MODEL 1
REMARK VINA RESULT:      -9.6      0.000      0.000
REMARK  6 active torsions:
REMARK  status: ('A' for Active; 'I' for Inactive)
REMARK    1  A    between atoms: C_2  and  C_3 
REMARK    2  A    between atoms: C_3  and  C_4 
REMARK    3  A    between atoms: C_7  and  C_8 
REMARK    4  A    between atoms: C_8  and  C_9 
REMARK       I    between atoms: C_9  and  N_10 
REMARK    5  A    between atoms: N_10  and  C_11 
REMARK    6  A    between atoms: C_18  and  C_19 
REMARK       I    between atoms: C_19  and  N_20 
ROOT
HETATM    1  C   UNL     1      25.410  47.454  50.442  1.00  0.00     0.035 A 
HETATM    2  C   UNL     1      24.163  47.838  49.930  1.00  0.00     0.046 A 
HETATM    3  C   UNL     1      24.094  48.825  48.923  1.00  0.00     0.030 A 
HETATM    4  C   UNL     1      25.274  49.396  48.463  1.00  0.00     0.063 A 
HETATM    5  N   UNL     1      24.893  50.300  47.511  1.00  0.00    -0.277 N 
HETATM    6  H   UNL     1      25.494  50.902  46.961  1.00  0.00     0.189 HD
HETATM    7  N   UNL     1      23.568  50.369  47.307  1.00  0.00    -0.168 NA
HETATM    8  C   UNL     1      23.059  49.462  48.172  1.00  0.00     0.156 A 
HETATM    9  C   UNL     1      26.534  49.039  48.948  1.00  0.00     0.034 A 
HETATM   10  C   UNL     1      26.574  48.055  49.944  1.00  0.00     0.032 A 
ENDROOT
BRANCH   1  11
HETATM   11  N   UNL     1      25.580  46.465  51.435  1.00  0.00    -0.327 N 
HETATM   12  C   UNL     1      25.512  46.627  52.809  1.00  0.00     0.226 C 
HETATM   13  O   UNL     1      25.340  47.682  53.412  1.00  0.00    -0.273 OA
HETATM   14  H   UNL     1      25.832  45.539  51.109  1.00  0.00     0.169 HD
BRANCH  12  15
HETATM   15  C   UNL     1      25.633  45.316  53.570  1.00  0.00     0.141 C 
BRANCH  15  16
HETATM   16  C   UNL     1      26.993  45.052  54.175  1.00  0.00    -0.049 A 
HETATM   17  C   UNL     1      27.661  43.839  53.965  1.00  0.00     0.008 A 
HETATM   18  C   UNL     1      28.942  43.633  54.482  1.00  0.00     0.007 A 
HETATM   19  C   UNL     1      29.595  44.644  55.198  1.00  0.00    -0.058 A 
HETATM   20  C   UNL     1      28.931  45.859  55.402  1.00  0.00     0.007 A 
HETATM   21  C   UNL     1      27.646  46.063  54.892  1.00  0.00     0.008 A 
BRANCH  19  22
HETATM   22  C   UNL     1      30.993  44.434  55.729  1.00  0.00     0.042 C 
BRANCH  22  23
HETATM   23  C   UNL     1      31.104  43.836  57.149  1.00  0.00    -0.019 C 
HETATM   24  C   UNL     1      31.073  44.900  58.247  1.00  0.00     0.010 C 
HETATM   25  C   UNL     1      32.321  42.927  57.320  1.00  0.00     0.010 C 
ENDBRANCH  22  23
ENDBRANCH  19  22
ENDBRANCH  15  16
ENDBRANCH  12  15
ENDBRANCH   1  11
BRANCH   8  26
HETATM   26  C   UNL     1      21.611  49.224  48.260  1.00  0.00     0.270 C 
HETATM   27  N   UNL     1      21.098  49.359  49.522  1.00  0.00    -0.365 N 
HETATM   28  H   UNL     1      21.726  49.606  50.277  1.00  0.00     0.159 HD
HETATM   29  H   UNL     1      20.113  49.216  49.677  1.00  0.00     0.159 HD
HETATM   30  O   UNL     1      20.891  48.929  47.313  1.00  0.00    -0.266 OA
ENDBRANCH   8  26
TORSDOF 6
ENDMDL
MODEL 2
REMARK VINA RESULT:      -8.7      3.138      9.946
REMARK  6 active torsions:
REMARK  status: ('A' for Active; 'I' for Inactive)
REMARK    1  A    between atoms: C_2  and  C_3 
REMARK    2  A    between atoms: C_3  and  C_4 
REMARK    3  A    between atoms: C_7  and  C_8 
REMARK    4  A    between atoms: C_8  and  C_9 
REMARK       I    between atoms: C_9  and  N_10 
REMARK    5  A    between atoms: N_10  and  C_11 
REMARK    6  A    between atoms: C_18  and  C_19 
REMARK       I    between atoms: C_19  and  N_20 
ROOT
HETATM    1  C   UNL     1      26.624  44.776  50.458  1.00  0.00     0.035 A 
HETATM    2  C   UNL     1      27.350  44.631  51.647  1.00  0.00     0.046 A 
HETATM    3  C   UNL     1      27.482  43.354  52.236  1.00  0.00     0.030 A 
HETATM    4  C   UNL     1      26.881  42.266  51.616  1.00  0.00     0.063 A 
HETATM    5  N   UNL     1      27.177  41.190  52.405  1.00  0.00    -0.277 N 
HETATM    6  H   UNL     1      26.900  40.226  52.258  1.00  0.00     0.189 HD
HETATM    7  N   UNL     1      27.920  41.479  53.485  1.00  0.00    -0.168 NA
HETATM    8  C   UNL     1      28.118  42.814  53.395  1.00  0.00     0.156 A 
HETATM    9  C   UNL     1      26.151  42.371  50.431  1.00  0.00     0.034 A 
HETATM   10  C   UNL     1      26.038  43.648  49.866  1.00  0.00     0.032 A 
ENDROOT
BRANCH   1  11
HETATM   11  N   UNL     1      26.453  46.007  49.786  1.00  0.00    -0.327 N 
HETATM   12  C   UNL     1      26.053  47.216  50.330  1.00  0.00     0.226 C 
HETATM   13  O   UNL     1      25.726  47.421  51.494  1.00  0.00    -0.273 OA
HETATM   14  H   UNL     1      26.588  45.993  48.782  1.00  0.00     0.169 HD
BRANCH  12  15
HETATM   15  C   UNL     1      26.090  48.360  49.327  1.00  0.00     0.141 C 
BRANCH  15  16
HETATM   16  C   UNL     1      24.742  48.951  48.984  1.00  0.00    -0.049 A 
HETATM   17  C   UNL     1      24.626  50.242  48.453  1.00  0.00     0.008 A 
HETATM   18  C   UNL     1      23.378  50.751  48.086  1.00  0.00     0.007 A 
HETATM   19  C   UNL     1      22.221  49.972  48.218  1.00  0.00    -0.058 A 
HETATM   20  C   UNL     1      22.337  48.680  48.742  1.00  0.00     0.007 A 
HETATM   21  C   UNL     1      23.584  48.172  49.117  1.00  0.00     0.008 A 
BRANCH  19  22
HETATM   22  C   UNL     1      20.876  50.511  47.792  1.00  0.00     0.042 C 
BRANCH  22  23
HETATM   23  C   UNL     1      20.283  51.640  48.661  1.00  0.00    -0.019 C 
HETATM   24  C   UNL     1      20.027  51.208  50.106  1.00  0.00     0.010 C 
HETATM   25  C   UNL     1      19.022  52.259  48.058  1.00  0.00     0.010 C 
ENDBRANCH  22  23
ENDBRANCH  19  22
ENDBRANCH  15  16
ENDBRANCH  12  15
ENDBRANCH   1  11
BRANCH   8  26
HETATM   26  C   UNL     1      28.904  43.536  54.406  1.00  0.00     0.270 C 
HETATM   27  N   UNL     1      30.113  42.960  54.689  1.00  0.00    -0.365 N 
HETATM   28  H   UNL     1      30.372  42.112  54.200  1.00  0.00     0.159 HD
HETATM   29  H   UNL     1      30.721  43.386  55.369  1.00  0.00     0.159 HD
HETATM   30  O   UNL     1      28.546  44.565  54.968  1.00  0.00    -0.266 OA
ENDBRANCH   8  26
TORSDOF 6
ENDMDL
MODEL 3
REMARK VINA RESULT:      -8.5      3.011      9.923
REMARK  6 active torsions:
REMARK  status: ('A' for Active; 'I' for Inactive)
REMARK    1  A    between atoms: C_2  and  C_3 
REMARK    2  A    between atoms: C_3  and  C_4 
REMARK    3  A    between atoms: C_7  and  C_8 
REMARK    4  A    between atoms: C_8  and  C_9 
REMARK       I    between atoms: C_9  and  N_10 
REMARK    5  A    between atoms: N_10  and  C_11 
REMARK    6  A    between atoms: C_18  and  C_19 
REMARK       I    between atoms: C_19  and  N_20 
ROOT
HETATM    1  C   UNL     1      25.333  46.986  51.162  1.00  0.00     0.035 A 
HETATM    2  C   UNL     1      26.153  46.991  52.298  1.00  0.00     0.046 A 
HETATM    3  C   UNL     1      26.227  45.840  53.112  1.00  0.00     0.030 A 
HETATM    4  C   UNL     1      25.476  44.725  52.765  1.00  0.00     0.063 A 
HETATM    5  N   UNL     1      25.751  43.790  53.724  1.00  0.00    -0.277 N 
HETATM    6  H   UNL     1      25.377  42.850  53.790  1.00  0.00     0.189 HD
HETATM    7  N   UNL     1      26.615  44.196  54.667  1.00  0.00    -0.168 NA
HETATM    8  C   UNL     1      26.921  45.463  54.303  1.00  0.00     0.156 A 
HETATM    9  C   UNL     1      24.649  44.682  51.642  1.00  0.00     0.034 A 
HETATM   10  C   UNL     1      24.596  45.835  50.849  1.00  0.00     0.032 A 
ENDROOT
BRANCH   1  11
HETATM   11  N   UNL     1      25.207  48.081  50.278  1.00  0.00    -0.327 N 
HETATM   12  C   UNL     1      26.068  48.444  49.256  1.00  0.00     0.226 C 
HETATM   13  O   UNL     1      27.130  47.901  48.968  1.00  0.00    -0.273 OA
HETATM   14  H   UNL     1      24.424  48.703  50.443  1.00  0.00     0.169 HD
BRANCH  12  15
HETATM   15  C   UNL     1      25.555  49.616  48.433  1.00  0.00     0.141 C 
BRANCH  15  16
HETATM   16  C   UNL     1      24.055  49.800  48.452  1.00  0.00    -0.049 A 
HETATM   17  C   UNL     1      23.477  51.047  48.722  1.00  0.00     0.008 A 
HETATM   18  C   UNL     1      22.091  51.214  48.677  1.00  0.00     0.007 A 
HETATM   19  C   UNL     1      21.252  50.145  48.337  1.00  0.00    -0.058 A 
HETATM   20  C   UNL     1      21.830  48.900  48.059  1.00  0.00     0.007 A 
HETATM   21  C   UNL     1      23.216  48.730  48.111  1.00  0.00     0.008 A 
BRANCH  19  22
HETATM   22  C   UNL     1      19.757  50.333  48.257  1.00  0.00     0.042 C 
BRANCH  22  23
HETATM   23  C   UNL     1      19.234  51.769  48.477  1.00  0.00    -0.019 C 
HETATM   24  C   UNL     1      18.650  51.983  49.874  1.00  0.00     0.010 C 
HETATM   25  C   UNL     1      18.235  52.211  47.408  1.00  0.00     0.010 C 
ENDBRANCH  22  23
ENDBRANCH  19  22
ENDBRANCH  15  16
ENDBRANCH  12  15
ENDBRANCH   1  11
BRANCH   8  26
HETATM   26  C   UNL     1      27.861  46.275  55.090  1.00  0.00     0.270 C 
HETATM   27  N   UNL     1      27.316  47.423  55.597  1.00  0.00    -0.365 N 
HETATM   28  H   UNL     1      26.343  47.625  55.406  1.00  0.00     0.159 HD
HETATM   29  H   UNL     1      27.886  48.042  56.152  1.00  0.00     0.159 HD
HETATM   30  O   UNL     1      29.033  45.985  55.297  1.00  0.00    -0.266 OA
ENDBRANCH   8  26
TORSDOF 6
ENDMDL
MODEL 4
REMARK VINA RESULT:      -8.5      3.068      9.848
REMARK  6 active torsions:
REMARK  status: ('A' for Active; 'I' for Inactive)
REMARK    1  A    between atoms: C_2  and  C_3 
REMARK    2  A    between atoms: C_3  and  C_4 
REMARK    3  A    between atoms: C_7  and  C_8 
REMARK    4  A    between atoms: C_8  and  C_9 
REMARK       I    between atoms: C_9  and  N_10 
REMARK    5  A    between atoms: N_10  and  C_11 
REMARK    6  A    between atoms: C_18  and  C_19 
REMARK       I    between atoms: C_19  and  N_20 
ROOT
HETATM    1  C   UNL     1      25.922  46.221  52.835  1.00  0.00     0.035 A 
HETATM    2  C   UNL     1      26.838  45.206  53.142  1.00  0.00     0.046 A 
HETATM    3  C   UNL     1      27.721  45.367  54.232  1.00  0.00     0.030 A 
HETATM    4  C   UNL     1      27.659  46.537  54.977  1.00  0.00     0.063 A 
HETATM    5  N   UNL     1      28.616  46.403  55.944  1.00  0.00    -0.277 N 
HETATM    6  H   UNL     1      28.853  47.069  56.670  1.00  0.00     0.189 HD
HETATM    7  N   UNL     1      29.297  45.247  55.898  1.00  0.00    -0.168 NA
HETATM    8  C   UNL     1      28.755  44.594  54.844  1.00  0.00     0.156 A 
HETATM    9  C   UNL     1      26.760  47.570  54.702  1.00  0.00     0.034 A 
HETATM   10  C   UNL     1      25.894  47.384  53.617  1.00  0.00     0.032 A 
ENDROOT
BRANCH   1  11
HETATM   11  N   UNL     1      24.990  46.145  51.777  1.00  0.00    -0.327 N 
HETATM   12  C   UNL     1      25.241  46.266  50.420  1.00  0.00     0.226 C 
HETATM   13  O   UNL     1      26.322  46.513  49.897  1.00  0.00    -0.273 OA
HETATM   14  H   UNL     1      24.017  46.040  52.042  1.00  0.00     0.169 HD
BRANCH  12  15
HETATM   15  C   UNL     1      24.010  46.013  49.562  1.00  0.00     0.141 C 
BRANCH  15  16
HETATM   16  C   UNL     1      23.295  47.257  49.090  1.00  0.00    -0.049 A 
HETATM   17  C   UNL     1      22.130  47.178  48.315  1.00  0.00     0.008 A 
HETATM   18  C   UNL     1      21.448  48.337  47.937  1.00  0.00     0.007 A 
HETATM   19  C   UNL     1      21.899  49.599  48.345  1.00  0.00    -0.058 A 
HETATM   20  C   UNL     1      23.059  49.677  49.125  1.00  0.00     0.007 A 
HETATM   21  C   UNL     1      23.746  48.519  49.498  1.00  0.00     0.008 A 
BRANCH  19  22
HETATM   22  C   UNL     1      21.144  50.849  47.963  1.00  0.00     0.042 C 
BRANCH  22  23
HETATM   23  C   UNL     1      19.833  51.119  48.732  1.00  0.00    -0.019 C 
HETATM   24  C   UNL     1      19.168  52.437  48.331  1.00  0.00     0.010 C 
HETATM   25  C   UNL     1      20.005  51.048  50.249  1.00  0.00     0.010 C 
ENDBRANCH  22  23
ENDBRANCH  19  22
ENDBRANCH  15  16
ENDBRANCH  12  15
ENDBRANCH   1  11
BRANCH   8  26
HETATM   26  C   UNL     1      29.229  43.259  54.452  1.00  0.00     0.270 C 
HETATM   27  N   UNL     1      30.592  43.134  54.430  1.00  0.00    -0.365 N 
HETATM   28  H   UNL     1      31.156  43.938  54.679  1.00  0.00     0.159 HD
HETATM   29  H   UNL     1      31.008  42.254  54.174  1.00  0.00     0.159 HD
HETATM   30  O   UNL     1      28.503  42.315  54.162  1.00  0.00    -0.266 OA
ENDBRANCH   8  26
TORSDOF 6
ENDMDL
MODEL 5
REMARK VINA RESULT:      -8.5      4.456      5.409
REMARK  6 active torsions:
REMARK  status: ('A' for Active; 'I' for Inactive)
REMARK    1  A    between atoms: C_2  and  C_3 
REMARK    2  A    between atoms: C_3  and  C_4 
REMARK    3  A    between atoms: C_7  and  C_8 
REMARK    4  A    between atoms: C_8  and  C_9 
REMARK       I    between atoms: C_9  and  N_10 
REMARK    5  A    between atoms: N_10  and  C_11 
REMARK    6  A    between atoms: C_18  and  C_19 
REMARK       I    between atoms: C_19  and  N_20 
ROOT
HETATM    1  C   UNL     1      25.730  42.666  50.780  1.00  0.00     0.035 A 
HETATM    2  C   UNL     1      24.869  41.896  49.988  1.00  0.00     0.046 A 
HETATM    3  C   UNL     1      24.238  42.481  48.868  1.00  0.00     0.030 A 
HETATM    4  C   UNL     1      24.489  43.816  48.581  1.00  0.00     0.063 A 
HETATM    5  N   UNL     1      23.751  44.091  47.463  1.00  0.00    -0.277 N 
HETATM    6  H   UNL     1      23.690  44.975  46.969  1.00  0.00     0.189 HD
HETATM    7  N   UNL     1      23.041  43.053  46.994  1.00  0.00    -0.168 NA
HETATM    8  C   UNL     1      23.332  42.048  47.852  1.00  0.00     0.156 A 
HETATM    9  C   UNL     1      25.341  44.615  49.346  1.00  0.00     0.034 A 
HETATM   10  C   UNL     1      25.956  44.009  50.449  1.00  0.00     0.032 A 
ENDROOT
BRANCH   1  11
HETATM   11  N   UNL     1      26.419  42.165  51.907  1.00  0.00    -0.327 N 
HETATM   12  C   UNL     1      27.643  41.518  51.930  1.00  0.00     0.226 C 
HETATM   13  O   UNL     1      28.328  41.218  50.958  1.00  0.00    -0.273 OA
HETATM   14  H   UNL     1      25.939  42.242  52.797  1.00  0.00     0.169 HD
BRANCH  12  15
HETATM   15  C   UNL     1      28.133  41.220  53.339  1.00  0.00     0.141 C 
BRANCH  15  16
HETATM   16  C   UNL     1      28.682  42.412  54.089  1.00  0.00    -0.049 A 
HETATM   17  C   UNL     1      30.025  42.470  54.483  1.00  0.00     0.008 A 
HETATM   18  C   UNL     1      30.530  43.604  55.123  1.00  0.00     0.007 A 
HETATM   19  C   UNL     1      29.712  44.716  55.361  1.00  0.00    -0.058 A 
HETATM   20  C   UNL     1      28.372  44.661  54.960  1.00  0.00     0.007 A 
HETATM   21  C   UNL     1      27.863  43.524  54.327  1.00  0.00     0.008 A 
BRANCH  19  22
HETATM   22  C   UNL     1      30.267  45.954  56.023  1.00  0.00     0.042 C 
BRANCH  22  23
HETATM   23  C   UNL     1      30.187  46.000  57.565  1.00  0.00    -0.019 C 
HETATM   24  C   UNL     1      30.896  44.821  58.233  1.00  0.00     0.010 C 
HETATM   25  C   UNL     1      28.756  46.126  58.085  1.00  0.00     0.010 C 
ENDBRANCH  22  23
ENDBRANCH  19  22
ENDBRANCH  15  16
ENDBRANCH  12  15
ENDBRANCH   1  11
BRANCH   8  26
HETATM   26  C   UNL     1      22.747  40.710  47.682  1.00  0.00     0.270 C 
HETATM   27  N   UNL     1      23.656  39.741  47.352  1.00  0.00    -0.365 N 
HETATM   28  H   UNL     1      24.629  40.003  47.254  1.00  0.00     0.159 HD
HETATM   29  H   UNL     1      23.346  38.793  47.217  1.00  0.00     0.159 HD
HETATM   30  O   UNL     1      21.558  40.443  47.815  1.00  0.00    -0.266 OA
ENDBRANCH   8  26
TORSDOF 6
ENDMDL
MODEL 6
REMARK VINA RESULT:      -8.4      3.787      9.439
REMARK  6 active torsions:
REMARK  status: ('A' for Active; 'I' for Inactive)
REMARK    1  A    between atoms: C_2  and  C_3 
REMARK    2  A    between atoms: C_3  and  C_4 
REMARK    3  A    between atoms: C_7  and  C_8 
REMARK    4  A    between atoms: C_8  and  C_9 
REMARK       I    between atoms: C_9  and  N_10 
REMARK    5  A    between atoms: N_10  and  C_11 
REMARK    6  A    between atoms: C_18  and  C_19 
REMARK       I    between atoms: C_19  and  N_20 
ROOT
HETATM    1  C   UNL     1      27.583  43.628  52.398  1.00  0.00     0.035 A 
HETATM    2  C   UNL     1      27.718  44.488  53.496  1.00  0.00     0.046 A 
HETATM    3  C   UNL     1      28.838  44.366  54.347  1.00  0.00     0.030 A 
HETATM    4  C   UNL     1      29.783  43.387  54.073  1.00  0.00     0.063 A 
HETATM    5  N   UNL     1      30.729  43.512  55.052  1.00  0.00    -0.277 N 
HETATM    6  H   UNL     1      31.570  42.958  55.167  1.00  0.00     0.189 HD
HETATM    7  N   UNL     1      30.486  44.487  55.941  1.00  0.00    -0.168 NA
HETATM    8  C   UNL     1      29.319  45.027  55.519  1.00  0.00     0.156 A 
HETATM    9  C   UNL     1      29.684  42.512  52.989  1.00  0.00     0.034 A 
HETATM   10  C   UNL     1      28.565  42.656  52.158  1.00  0.00     0.032 A 
ENDROOT
BRANCH   1  11
HETATM   11  N   UNL     1      26.509  43.685  51.482  1.00  0.00    -0.327 N 
HETATM   12  C   UNL     1      26.507  44.249  50.218  1.00  0.00     0.226 C 
HETATM   13  O   UNL     1      27.434  44.849  49.684  1.00  0.00    -0.273 OA
HETATM   14  H   UNL     1      25.623  43.316  51.807  1.00  0.00     0.169 HD
BRANCH  12  15
HETATM   15  C   UNL     1      25.203  44.022  49.467  1.00  0.00     0.141 C 
BRANCH  15  16
HETATM   16  C   UNL     1      24.338  45.250  49.306  1.00  0.00    -0.049 A 
HETATM   17  C   UNL     1      24.647  46.450  49.959  1.00  0.00     0.008 A 
HETATM   18  C   UNL     1      23.871  47.593  49.752  1.00  0.00     0.007 A 
HETATM   19  C   UNL     1      22.783  47.570  48.870  1.00  0.00    -0.058 A 
HETATM   20  C   UNL     1      22.479  46.373  48.211  1.00  0.00     0.007 A 
HETATM   21  C   UNL     1      23.250  45.227  48.423  1.00  0.00     0.008 A 
BRANCH  19  22
HETATM   22  C   UNL     1      21.964  48.813  48.622  1.00  0.00     0.042 C 
BRANCH  22  23
HETATM   23  C   UNL     1      22.469  50.111  49.289  1.00  0.00    -0.019 C 
HETATM   24  C   UNL     1      21.363  50.875  50.019  1.00  0.00     0.010 C 
HETATM   25  C   UNL     1      23.204  51.034  48.318  1.00  0.00     0.010 C 
ENDBRANCH  22  23
ENDBRANCH  19  22
ENDBRANCH  15  16
ENDBRANCH  12  15
ENDBRANCH   1  11
BRANCH   8  26
HETATM   26  C   UNL     1      28.698  46.151  56.234  1.00  0.00     0.270 C 
HETATM   27  N   UNL     1      28.828  46.086  57.595  1.00  0.00    -0.365 N 
HETATM   28  H   UNL     1      29.325  45.302  57.999  1.00  0.00     0.159 HD
HETATM   29  H   UNL     1      28.434  46.815  58.168  1.00  0.00     0.159 HD
HETATM   30  O   UNL     1      28.107  47.082  55.698  1.00  0.00    -0.266 OA
ENDBRANCH   8  26
TORSDOF 6
ENDMDL
MODEL 7
REMARK VINA RESULT:      -8.4      4.617     11.332
REMARK  6 active torsions:
REMARK  status: ('A' for Active; 'I' for Inactive)
REMARK    1  A    between atoms: C_2  and  C_3 
REMARK    2  A    between atoms: C_3  and  C_4 
REMARK    3  A    between atoms: C_7  and  C_8 
REMARK    4  A    between atoms: C_8  and  C_9 
REMARK       I    between atoms: C_9  and  N_10 
REMARK    5  A    between atoms: N_10  and  C_11 
REMARK    6  A    between atoms: C_18  and  C_19 
REMARK       I    between atoms: C_19  and  N_20 
ROOT
HETATM    1  C   UNL     1      22.504  49.249  49.159  1.00  0.00     0.035 A 
HETATM    2  C   UNL     1      23.546  48.429  49.612  1.00  0.00     0.046 A 
HETATM    3  C   UNL     1      24.867  48.670  49.174  1.00  0.00     0.030 A 
HETATM    4  C   UNL     1      25.100  49.720  48.296  1.00  0.00     0.063 A 
HETATM    5  N   UNL     1      26.446  49.701  48.058  1.00  0.00    -0.277 N 
HETATM    6  H   UNL     1      26.973  50.329  47.461  1.00  0.00     0.189 HD
HETATM    7  N   UNL     1      27.113  48.732  48.704  1.00  0.00    -0.168 NA
HETATM    8  C   UNL     1      26.150  48.085  49.400  1.00  0.00     0.156 A 
HETATM    9  C   UNL     1      24.088  50.558  47.823  1.00  0.00     0.034 A 
HETATM   10  C   UNL     1      22.788  50.300  48.275  1.00  0.00     0.032 A 
ENDROOT
BRANCH   1  11
HETATM   11  N   UNL     1      21.157  49.098  49.554  1.00  0.00    -0.327 N 
HETATM   12  C   UNL     1      20.153  48.415  48.888  1.00  0.00     0.226 C 
HETATM   13  O   UNL     1      20.247  47.858  47.799  1.00  0.00    -0.273 OA
HETATM   14  H   UNL     1      20.878  49.588  50.396  1.00  0.00     0.169 HD
BRANCH  12  15
HETATM   15  C   UNL     1      18.848  48.365  49.668  1.00  0.00     0.141 C 
BRANCH  15  16
HETATM   16  C   UNL     1      17.911  49.524  49.421  1.00  0.00    -0.049 A 
HETATM   17  C   UNL     1      18.138  50.780  49.997  1.00  0.00     0.008 A 
HETATM   18  C   UNL     1      17.295  51.857  49.711  1.00  0.00     0.007 A 
HETATM   19  C   UNL     1      16.222  51.709  48.823  1.00  0.00    -0.058 A 
HETATM   20  C   UNL     1      15.999  50.456  48.242  1.00  0.00     0.007 A 
HETATM   21  C   UNL     1      16.836  49.376  48.533  1.00  0.00     0.008 A 
BRANCH  19  22
HETATM   22  C   UNL     1      15.330  52.881  48.489  1.00  0.00     0.042 C 
BRANCH  22  23
HETATM   23  C   UNL     1      14.956  53.813  49.662  1.00  0.00    -0.019 C 
HETATM   24  C   UNL     1      13.990  53.163  50.655  1.00  0.00     0.010 C 
HETATM   25  C   UNL     1      14.415  55.166  49.200  1.00  0.00     0.010 C 
ENDBRANCH  22  23
ENDBRANCH  19  22
ENDBRANCH  15  16
ENDBRANCH  12  15
ENDBRANCH   1  11
BRANCH   8  26
HETATM   26  C   UNL     1      26.475  46.937  50.259  1.00  0.00     0.270 C 
HETATM   27  N   UNL     1      27.070  45.896  49.599  1.00  0.00    -0.365 N 
HETATM   28  H   UNL     1      27.241  45.987  48.604  1.00  0.00     0.159 HD
HETATM   29  H   UNL     1      27.330  45.067  50.107  1.00  0.00     0.159 HD
HETATM   30  O   UNL     1      26.250  46.876  51.462  1.00  0.00    -0.266 OA
ENDBRANCH   8  26
TORSDOF 6
ENDMDL
MODEL 8
REMARK VINA RESULT:      -8.1      3.347      6.809
REMARK  6 active torsions:
REMARK  status: ('A' for Active; 'I' for Inactive)
REMARK    1  A    between atoms: C_2  and  C_3 
REMARK    2  A    between atoms: C_3  and  C_4 
REMARK    3  A    between atoms: C_7  and  C_8 
REMARK    4  A    between atoms: C_8  and  C_9 
REMARK       I    between atoms: C_9  and  N_10 
REMARK    5  A    between atoms: N_10  and  C_11 
REMARK    6  A    between atoms: C_18  and  C_19 
REMARK       I    between atoms: C_19  and  N_20 
ROOT
HETATM    1  C   UNL     1      20.325  50.595  48.035  1.00  0.00     0.035 A 
HETATM    2  C   UNL     1      19.305  49.636  47.990  1.00  0.00     0.046 A 
HETATM    3  C   UNL     1      17.967  50.026  48.216  1.00  0.00     0.030 A 
HETATM    4  C   UNL     1      17.694  51.361  48.481  1.00  0.00     0.063 A 
HETATM    5  N   UNL     1      16.340  51.428  48.652  1.00  0.00    -0.277 N 
HETATM    6  H   UNL     1      15.787  52.252  48.861  1.00  0.00     0.189 HD
HETATM    7  N   UNL     1      15.703  50.254  48.522  1.00  0.00    -0.168 NA
HETATM    8  C   UNL     1      16.695  49.375  48.251  1.00  0.00     0.156 A 
HETATM    9  C   UNL     1      18.683  52.346  48.533  1.00  0.00     0.034 A 
HETATM   10  C   UNL     1      20.001  51.933  48.303  1.00  0.00     0.032 A 
ENDROOT
BRANCH   1  11
HETATM   11  N   UNL     1      21.688  50.305  47.806  1.00  0.00    -0.327 N 
HETATM   12  C   UNL     1      22.752  50.512  48.668  1.00  0.00     0.226 C 
HETATM   13  O   UNL     1      22.702  51.036  49.776  1.00  0.00    -0.273 OA
HETATM   14  H   UNL     1      21.923  49.952  46.886  1.00  0.00     0.169 HD
BRANCH  12  15
HETATM   15  C   UNL     1      24.068  49.971  48.130  1.00  0.00     0.141 C 
BRANCH  15  16
HETATM   16  C   UNL     1      24.689  48.868  48.954  1.00  0.00    -0.049 A 
HETATM   17  C   UNL     1      26.061  48.853  49.235  1.00  0.00     0.008 A 
HETATM   18  C   UNL     1      26.610  47.857  50.048  1.00  0.00     0.007 A 
HETATM   19  C   UNL     1      25.796  46.870  50.618  1.00  0.00    -0.058 A 
HETATM   20  C   UNL     1      24.424  46.889  50.343  1.00  0.00     0.007 A 
HETATM   21  C   UNL     1      23.875  47.880  49.524  1.00  0.00     0.008 A 
BRANCH  19  22
HETATM   22  C   UNL     1      26.384  45.814  51.523  1.00  0.00     0.042 C 
BRANCH  22  23
HETATM   23  C   UNL     1      25.959  45.868  53.006  1.00  0.00    -0.019 C 
HETATM   24  C   UNL     1      26.207  47.235  53.648  1.00  0.00     0.010 C 
HETATM   25  C   UNL     1      26.590  44.760  53.849  1.00  0.00     0.010 C 
ENDBRANCH  22  23
ENDBRANCH  19  22
ENDBRANCH  15  16
ENDBRANCH  12  15
ENDBRANCH   1  11
BRANCH   8  26
HETATM   26  C   UNL     1      16.410  47.950  48.030  1.00  0.00     0.270 C 
HETATM   27  N   UNL     1      15.784  47.684  46.842  1.00  0.00    -0.365 N 
HETATM   28  H   UNL     1      15.572  48.455  46.222  1.00  0.00     0.159 HD
HETATM   29  H   UNL     1      15.550  46.733  46.605  1.00  0.00     0.159 HD
HETATM   30  O   UNL     1      16.691  47.050  48.813  1.00  0.00    -0.266 OA
ENDBRANCH   8  26
TORSDOF 6
ENDMDL
MODEL 9
REMARK VINA RESULT:      -8.0     18.019     20.547
REMARK  6 active torsions:
REMARK  status: ('A' for Active; 'I' for Inactive)
REMARK    1  A    between atoms: C_2  and  C_3 
REMARK    2  A    between atoms: C_3  and  C_4 
REMARK    3  A    between atoms: C_7  and  C_8 
REMARK    4  A    between atoms: C_8  and  C_9 
REMARK       I    between atoms: C_9  and  N_10 
REMARK    5  A    between atoms: N_10  and  C_11 
REMARK    6  A    between atoms: C_18  and  C_19 
REMARK       I    between atoms: C_19  and  N_20 
ROOT
HETATM    1  C   UNL     1      40.438  44.049  64.354  1.00  0.00     0.035 A 
HETATM    2  C   UNL     1      40.756  42.716  64.650  1.00  0.00     0.046 A 
HETATM    3  C   UNL     1      40.197  41.676  63.876  1.00  0.00     0.030 A 
HETATM    4  C   UNL     1      39.339  42.002  62.834  1.00  0.00     0.063 A 
HETATM    5  N   UNL     1      38.968  40.808  62.282  1.00  0.00    -0.277 N 
HETATM    6  H   UNL     1      38.345  40.662  61.496  1.00  0.00     0.189 HD
HETATM    7  N   UNL     1      39.509  39.730  62.871  1.00  0.00    -0.168 NA
HETATM    8  C   UNL     1      40.273  40.249  63.859  1.00  0.00     0.156 A 
HETATM    9  C   UNL     1      39.000  43.317  62.509  1.00  0.00     0.034 A 
HETATM   10  C   UNL     1      39.570  44.331  63.290  1.00  0.00     0.032 A 
ENDROOT
BRANCH   1  11
HETATM   11  N   UNL     1      40.960  45.156  65.059  1.00  0.00    -0.327 N 
HETATM   12  C   UNL     1      41.993  45.993  64.672  1.00  0.00     0.226 C 
HETATM   13  O   UNL     1      42.678  45.887  63.659  1.00  0.00    -0.273 OA
HETATM   14  H   UNL     1      40.568  45.328  65.978  1.00  0.00     0.169 HD
BRANCH  12  15
HETATM   15  C   UNL     1      42.209  47.154  65.630  1.00  0.00     0.141 C 
BRANCH  15  16
HETATM   16  C   UNL     1      41.033  48.092  65.773  1.00  0.00    -0.049 A 
HETATM   17  C   UNL     1      40.701  48.662  67.008  1.00  0.00     0.008 A 
HETATM   18  C   UNL     1      39.646  49.573  67.111  1.00  0.00     0.007 A 
HETATM   19  C   UNL     1      38.916  49.953  65.978  1.00  0.00    -0.058 A 
HETATM   20  C   UNL     1      39.251  49.388  64.742  1.00  0.00     0.007 A 
HETATM   21  C   UNL     1      40.301  48.471  64.639  1.00  0.00     0.008 A 
BRANCH  19  22
HETATM   22  C   UNL     1      37.797  50.961  66.084  1.00  0.00     0.042 C 
BRANCH  22  23
HETATM   23  C   UNL     1      38.005  52.111  67.093  1.00  0.00    -0.019 C 
HETATM   24  C   UNL     1      37.159  51.954  68.358  1.00  0.00     0.010 C 
HETATM   25  C   UNL     1      37.789  53.493  66.476  1.00  0.00     0.010 C 
ENDBRANCH  22  23
ENDBRANCH  19  22
ENDBRANCH  15  16
ENDBRANCH  12  15
ENDBRANCH   1  11
BRANCH   8  26
HETATM   26  C   UNL     1      41.053  39.381  64.753  1.00  0.00     0.270 C 
HETATM   27  N   UNL     1      41.653  38.325  64.122  1.00  0.00    -0.365 N 
HETATM   28  H   UNL     1      41.525  38.221  63.123  1.00  0.00     0.159 HD
HETATM   29  H   UNL     1      42.210  37.677  64.656  1.00  0.00     0.159 HD
HETATM   30  O   UNL     1      41.180  39.553  65.960  1.00  0.00    -0.266 OA
ENDBRANCH   8  26
TORSDOF 6
ENDMDL
MODEL 10
REMARK VINA RESULT:      -8.0      4.378      9.408
REMARK  6 active torsions:
REMARK  status: ('A' for Active; 'I' for Inactive)
REMARK    1  A    between atoms: C_2  and  C_3 
REMARK    2  A    between atoms: C_3  and  C_4 
REMARK    3  A    between atoms: C_7  and  C_8 
REMARK    4  A    between atoms: C_8  and  C_9 
REMARK       I    between atoms: C_9  and  N_10 
REMARK    5  A    between atoms: N_10  and  C_11 
REMARK    6  A    between atoms: C_18  and  C_19 
REMARK       I    between atoms: C_19  and  N_20 
ROOT
HETATM    1  C   UNL     1      24.323  47.089  50.039  1.00  0.00     0.035 A 
HETATM    2  C   UNL     1      23.862  45.849  49.575  1.00  0.00     0.046 A 
HETATM    3  C   UNL     1      24.131  44.680  50.319  1.00  0.00     0.030 A 
HETATM    4  C   UNL     1      24.853  44.789  51.500  1.00  0.00     0.063 A 
HETATM    5  N   UNL     1      24.952  43.514  51.984  1.00  0.00    -0.277 N 
HETATM    6  H   UNL     1      25.415  43.214  52.834  1.00  0.00     0.189 HD
HETATM    7  N   UNL     1      24.358  42.581  51.223  1.00  0.00    -0.168 NA
HETATM    8  C   UNL     1      23.844  43.286  50.188  1.00  0.00     0.156 A 
HETATM    9  C   UNL     1      25.327  46.005  51.995  1.00  0.00     0.034 A 
HETATM   10  C   UNL     1      25.044  47.150  51.240  1.00  0.00     0.032 A 
ENDROOT
BRANCH   1  11
HETATM   11  N   UNL     1      24.088  48.313  49.375  1.00  0.00    -0.327 N 
HETATM   12  C   UNL     1      25.027  49.160  48.811  1.00  0.00     0.226 C 
HETATM   13  O   UNL     1      26.245  49.018  48.832  1.00  0.00    -0.273 OA
HETATM   14  H   UNL     1      23.128  48.635  49.353  1.00  0.00     0.169 HD
BRANCH  12  15
HETATM   15  C   UNL     1      24.402  50.336  48.076  1.00  0.00     0.141 C 
BRANCH  15  16
HETATM   16  C   UNL     1      22.997  50.685  48.509  1.00  0.00    -0.049 A 
HETATM   17  C   UNL     1      21.927  50.657  47.604  1.00  0.00     0.008 A 
HETATM   18  C   UNL     1      20.625  50.925  48.034  1.00  0.00     0.007 A 
HETATM   19  C   UNL     1      20.359  51.202  49.381  1.00  0.00    -0.058 A 
HETATM   20  C   UNL     1      21.426  51.223  50.286  1.00  0.00     0.007 A 
HETATM   21  C   UNL     1      22.730  50.963  49.856  1.00  0.00     0.008 A 
BRANCH  19  22
HETATM   22  C   UNL     1      18.947  51.459  49.851  1.00  0.00     0.042 C 
BRANCH  22  23
HETATM   23  C   UNL     1      18.054  50.216  50.050  1.00  0.00    -0.019 C 
HETATM   24  C   UNL     1      18.792  49.052  50.715  1.00  0.00     0.010 C 
HETATM   25  C   UNL     1      17.380  49.751  48.759  1.00  0.00     0.010 C 
ENDBRANCH  22  23
ENDBRANCH  19  22
ENDBRANCH  15  16
ENDBRANCH  12  15
ENDBRANCH   1  11
BRANCH   8  26
HETATM   26  C   UNL     1      23.095  42.621  49.112  1.00  0.00     0.270 C 
HETATM   27  N   UNL     1      23.655  41.447  48.686  1.00  0.00    -0.365 N 
HETATM   28  H   UNL     1      24.510  41.130  49.126  1.00  0.00     0.159 HD
HETATM   29  H   UNL     1      23.209  40.921  47.952  1.00  0.00     0.159 HD
HETATM   30  O   UNL     1      22.059  43.046  48.614  1.00  0.00    -0.266 OA
ENDBRANCH   8  26
TORSDOF 6
ENDMDL
