MODEL 1
REMARK VINA RESULT:      -8.4      0.000      0.000
REMARK  7 active torsions:
REMARK  status: ('A' for Active; 'I' for Inactive)
REMARK    1  A    between atoms: C_4  and  C_5 
REMARK    2  A    between atoms: C_5  and  O_6 
REMARK    3  A    between atoms: C_5  and  C_7 
REMARK    4  A    between atoms: C_7  and  N_8 
REMARK       I    between atoms: N_8  and  C_9 
REMARK    5  A    between atoms: N_8  and  C_20 
REMARK    6  A    between atoms: C_9  and  C_10 
REMARK    7  A    between atoms: C_14  and  C_15 
ROOT
HETATM    1  N   UNL     1      26.653  43.107  50.929  1.00  0.00    -0.339 N 
HETATM    2  C   UNL     1      26.503  42.215  49.840  1.00  0.00     0.274 C 
HETATM    3  O   UNL     1      26.081  42.618  48.752  1.00  0.00    -0.266 OA
ENDROOT
BRANCH   1   4
HETATM    4  C   UNL     1      27.260  42.715  52.224  1.00  0.00     0.163 C 
BRANCH   4   5
HETATM    5  C   UNL     1      28.792  42.900  52.304  1.00  0.00     0.169 C 
BRANCH   5   6
HETATM    6  C   UNL     1      29.189  43.586  53.598  1.00  0.00    -0.028 A 
HETATM    7  C   UNL     1      30.297  43.129  54.328  1.00  0.00     0.010 A 
HETATM    8  C   UNL     1      30.687  43.770  55.505  1.00  0.00     0.001 A 
HETATM    9  C   UNL     1      29.977  44.877  55.967  1.00  0.00     0.000 A 
HETATM   10  C   UNL     1      28.874  45.341  55.254  1.00  0.00     0.001 A 
HETATM   11  C   UNL     1      28.483  44.702  54.077  1.00  0.00     0.010 A 
ENDBRANCH   5   6
BRANCH   5  12
HETATM   12  O   UNL     1      29.451  41.628  52.276  1.00  0.00    -0.389 OA
HETATM   13  H   UNL     1      29.953  41.570  53.106  1.00  0.00     0.210 HD
ENDBRANCH   5  12
ENDBRANCH   4   5
ENDBRANCH   1   4
BRANCH   1  14
HETATM   14  C   UNL     1      26.221  44.508  50.693  1.00  0.00     0.087 C 
HETATM   15  C   UNL     1      27.241  45.421  49.989  1.00  0.00     0.025 C 
HETATM   16  C   UNL     1      26.654  46.804  49.708  1.00  0.00     0.002 C 
HETATM   17  C   UNL     1      26.129  47.460  50.981  1.00  0.00     0.000 C 
HETATM   18  C   UNL     1      25.127  46.565  51.702  1.00  0.00     0.002 C 
HETATM   19  C   UNL     1      25.700  45.176  51.981  1.00  0.00     0.025 C 
ENDBRANCH   1  14
BRANCH   2  20
HETATM   20  C   UNL     1      26.895  40.792  49.960  1.00  0.00     0.146 A 
HETATM   21  N   UNL     1      26.087  39.790  50.364  1.00  0.00    -0.169 NA
HETATM   22  N   UNL     1      26.864  38.694  50.320  1.00  0.00    -0.281 N 
HETATM   23  H   UNL     1      26.467  37.806  50.608  1.00  0.00     0.189 HD
HETATM   24  C   UNL     1      28.128  38.936  49.881  1.00  0.00     0.034 A 
HETATM   25  C   UNL     1      28.178  40.278  49.606  1.00  0.00     0.066 A 
BRANCH  24  26
HETATM   26  C   UNL     1      29.265  37.953  49.723  1.00  0.00     0.037 A 
HETATM   27  C   UNL     1      30.437  38.048  50.677  1.00  0.00     0.011 A 
HETATM   28  C   UNL     1      29.486  36.907  50.795  1.00  0.00     0.011 A 
ENDBRANCH  24  26
ENDBRANCH   2  20
TORSDOF 7
ENDMDL
MODEL 2
REMARK VINA RESULT:      -8.3      3.046      5.781
REMARK  7 active torsions:
REMARK  status: ('A' for Active; 'I' for Inactive)
REMARK    1  A    between atoms: C_4  and  C_5 
REMARK    2  A    between atoms: C_5  and  O_6 
REMARK    3  A    between atoms: C_5  and  C_7 
REMARK    4  A    between atoms: C_7  and  N_8 
REMARK       I    between atoms: N_8  and  C_9 
REMARK    5  A    between atoms: N_8  and  C_20 
REMARK    6  A    between atoms: C_9  and  C_10 
REMARK    7  A    between atoms: C_14  and  C_15 
ROOT
HETATM    1  N   UNL     1      26.107  46.704  50.573  1.00  0.00    -0.339 N 
HETATM    2  C   UNL     1      25.862  46.601  51.963  1.00  0.00     0.274 C 
HETATM    3  O   UNL     1      25.467  47.578  52.605  1.00  0.00    -0.266 OA
ENDROOT
BRANCH   1   4
HETATM    4  C   UNL     1      26.471  45.545  49.722  1.00  0.00     0.163 C 
BRANCH   4   5
HETATM    5  C   UNL     1      25.272  44.715  49.210  1.00  0.00     0.169 C 
BRANCH   5   6
HETATM    6  C   UNL     1      25.551  43.228  49.330  1.00  0.00    -0.028 A 
HETATM    7  C   UNL     1      24.702  42.299  48.710  1.00  0.00     0.010 A 
HETATM    8  C   UNL     1      24.964  40.930  48.791  1.00  0.00     0.001 A 
HETATM    9  C   UNL     1      26.079  40.473  49.492  1.00  0.00     0.000 A 
HETATM   10  C   UNL     1      26.930  41.383  50.114  1.00  0.00     0.001 A 
HETATM   11  C   UNL     1      26.669  42.751  50.032  1.00  0.00     0.010 A 
ENDBRANCH   5   6
BRANCH   5  12
HETATM   12  O   UNL     1      24.102  44.994  49.987  1.00  0.00    -0.389 OA
HETATM   13  H   UNL     1      24.381  45.629  50.668  1.00  0.00     0.210 HD
ENDBRANCH   5  12
ENDBRANCH   4   5
ENDBRANCH   1   4
BRANCH   1  14
HETATM   14  C   UNL     1      25.917  48.049  49.972  1.00  0.00     0.087 C 
HETATM   15  C   UNL     1      24.599  48.270  49.208  1.00  0.00     0.025 C 
HETATM   16  C   UNL     1      24.468  49.713  48.723  1.00  0.00     0.002 C 
HETATM   17  C   UNL     1      25.663  50.129  47.871  1.00  0.00     0.000 C 
HETATM   18  C   UNL     1      26.980  49.905  48.605  1.00  0.00     0.002 C 
HETATM   19  C   UNL     1      27.119  48.467  49.102  1.00  0.00     0.025 C 
ENDBRANCH   1  14
BRANCH   2  20
HETATM   20  C   UNL     1      26.023  45.310  52.672  1.00  0.00     0.146 A 
HETATM   21  N   UNL     1      25.020  44.472  53.006  1.00  0.00    -0.169 NA
HETATM   22  N   UNL     1      25.632  43.449  53.628  1.00  0.00    -0.281 N 
HETATM   23  H   UNL     1      25.063  42.693  53.994  1.00  0.00     0.189 HD
HETATM   24  C   UNL     1      26.985  43.574  53.688  1.00  0.00     0.034 A 
HETATM   25  C   UNL     1      27.280  44.752  53.051  1.00  0.00     0.066 A 
BRANCH  24  26
HETATM   26  C   UNL     1      27.981  42.633  54.323  1.00  0.00     0.037 A 
HETATM   27  C   UNL     1      28.536  41.499  53.487  1.00  0.00     0.011 A 
HETATM   28  C   UNL     1      29.417  42.648  53.842  1.00  0.00     0.011 A 
ENDBRANCH  24  26
ENDBRANCH   2  20
TORSDOF 7
ENDMDL
MODEL 3
REMARK VINA RESULT:      -8.2      2.757      3.974
REMARK  7 active torsions:
REMARK  status: ('A' for Active; 'I' for Inactive)
REMARK    1  A    between atoms: C_4  and  C_5 
REMARK    2  A    between atoms: C_5  and  O_6 
REMARK    3  A    between atoms: C_5  and  C_7 
REMARK    4  A    between atoms: C_7  and  N_8 
REMARK       I    between atoms: N_8  and  C_9 
REMARK    5  A    between atoms: N_8  and  C_20 
REMARK    6  A    between atoms: C_9  and  C_10 
REMARK    7  A    between atoms: C_14  and  C_15 
ROOT
HETATM    1  N   UNL     1      25.649  46.534  50.188  1.00  0.00    -0.339 N 
HETATM    2  C   UNL     1      25.385  45.206  49.776  1.00  0.00     0.274 C 
HETATM    3  O   UNL     1      24.789  44.984  48.718  1.00  0.00    -0.266 OA
ENDROOT
BRANCH   1   4
HETATM    4  C   UNL     1      26.458  46.869  51.385  1.00  0.00     0.163 C 
BRANCH   4   5
HETATM    5  C   UNL     1      25.742  46.642  52.736  1.00  0.00     0.169 C 
BRANCH   5   6
HETATM    6  C   UNL     1      26.742  46.327  53.833  1.00  0.00    -0.028 A 
HETATM    7  C   UNL     1      27.305  45.045  53.927  1.00  0.00     0.010 A 
HETATM    8  C   UNL     1      28.246  44.753  54.916  1.00  0.00     0.001 A 
HETATM    9  C   UNL     1      28.637  45.737  55.822  1.00  0.00     0.000 A 
HETATM   10  C   UNL     1      28.086  47.013  55.742  1.00  0.00     0.001 A 
HETATM   11  C   UNL     1      27.146  47.307  54.754  1.00  0.00     0.010 A 
ENDBRANCH   5   6
BRANCH   5  12
HETATM   12  O   UNL     1      25.033  47.822  53.130  1.00  0.00    -0.389 OA
HETATM   13  H   UNL     1      25.301  48.515  52.503  1.00  0.00     0.210 HD
ENDBRANCH   5  12
ENDBRANCH   4   5
ENDBRANCH   1   4
BRANCH   1  14
HETATM   14  C   UNL     1      25.118  47.610  49.313  1.00  0.00     0.087 C 
HETATM   15  C   UNL     1      26.020  48.845  49.136  1.00  0.00     0.025 C 
HETATM   16  C   UNL     1      25.422  49.836  48.138  1.00  0.00     0.002 C 
HETATM   17  C   UNL     1      24.010  50.251  48.538  1.00  0.00     0.000 C 
HETATM   18  C   UNL     1      23.103  49.040  48.732  1.00  0.00     0.002 C 
HETATM   19  C   UNL     1      23.695  48.037  49.722  1.00  0.00     0.025 C 
ENDBRANCH   1  14
BRANCH   2  20
HETATM   20  C   UNL     1      25.861  44.051  50.572  1.00  0.00     0.146 A 
HETATM   21  N   UNL     1      25.104  43.320  51.416  1.00  0.00    -0.169 NA
HETATM   22  N   UNL     1      25.948  42.396  51.909  1.00  0.00    -0.281 N 
HETATM   23  H   UNL     1      25.598  41.735  52.594  1.00  0.00     0.189 HD
HETATM   24  C   UNL     1      27.207  42.480  51.402  1.00  0.00     0.034 A 
HETATM   25  C   UNL     1      27.183  43.519  50.509  1.00  0.00     0.066 A 
BRANCH  24  26
HETATM   26  C   UNL     1      28.407  41.625  51.739  1.00  0.00     0.037 A 
HETATM   27  C   UNL     1      29.434  42.173  52.707  1.00  0.00     0.011 A 
HETATM   28  C   UNL     1      28.539  41.062  53.138  1.00  0.00     0.011 A 
ENDBRANCH  24  26
ENDBRANCH   2  20
TORSDOF 7
ENDMDL
MODEL 4
REMARK VINA RESULT:      -7.9      1.389      5.912
REMARK  7 active torsions:
REMARK  status: ('A' for Active; 'I' for Inactive)
REMARK    1  A    between atoms: C_4  and  C_5 
REMARK    2  A    between atoms: C_5  and  O_6 
REMARK    3  A    between atoms: C_5  and  C_7 
REMARK    4  A    between atoms: C_7  and  N_8 
REMARK       I    between atoms: N_8  and  C_9 
REMARK    5  A    between atoms: N_8  and  C_20 
REMARK    6  A    between atoms: C_9  and  C_10 
REMARK    7  A    between atoms: C_14  and  C_15 
ROOT
HETATM    1  N   UNL     1      27.737  41.643  51.128  1.00  0.00    -0.339 N 
HETATM    2  C   UNL     1      26.412  42.074  50.881  1.00  0.00     0.274 C 
HETATM    3  O   UNL     1      25.623  41.356  50.260  1.00  0.00    -0.266 OA
ENDROOT
BRANCH   1   4
HETATM    4  C   UNL     1      28.698  42.403  51.963  1.00  0.00     0.163 C 
BRANCH   4   5
HETATM    5  C   UNL     1      28.698  42.022  53.461  1.00  0.00     0.169 C 
BRANCH   5   6
HETATM    6  C   UNL     1      29.119  43.200  54.320  1.00  0.00    -0.028 A 
HETATM    7  C   UNL     1      28.302  44.337  54.408  1.00  0.00     0.010 A 
HETATM    8  C   UNL     1      28.666  45.415  55.217  1.00  0.00     0.001 A 
HETATM    9  C   UNL     1      29.851  45.369  55.950  1.00  0.00     0.000 A 
HETATM   10  C   UNL     1      30.673  44.248  55.872  1.00  0.00     0.001 A 
HETATM   11  C   UNL     1      30.309  43.170  55.064  1.00  0.00     0.010 A 
ENDBRANCH   5   6
BRANCH   5  12
HETATM   12  O   UNL     1      27.383  41.637  53.878  1.00  0.00    -0.389 OA
HETATM   13  H   UNL     1      26.927  41.335  53.075  1.00  0.00     0.210 HD
ENDBRANCH   5  12
ENDBRANCH   4   5
ENDBRANCH   1   4
BRANCH   1  14
HETATM   14  C   UNL     1      28.117  40.329  50.549  1.00  0.00     0.087 C 
HETATM   15  C   UNL     1      29.188  39.535  51.319  1.00  0.00     0.025 C 
HETATM   16  C   UNL     1      29.424  38.161  50.692  1.00  0.00     0.002 C 
HETATM   17  C   UNL     1      29.792  38.274  49.217  1.00  0.00     0.000 C 
HETATM   18  C   UNL     1      28.750  39.070  48.438  1.00  0.00     0.002 C 
HETATM   19  C   UNL     1      28.500  40.443  49.060  1.00  0.00     0.025 C 
ENDBRANCH   1  14
BRANCH   2  20
HETATM   20  C   UNL     1      25.921  43.371  51.404  1.00  0.00     0.146 A 
HETATM   21  N   UNL     1      25.232  43.539  52.551  1.00  0.00    -0.169 NA
HETATM   22  N   UNL     1      25.001  44.862  52.612  1.00  0.00    -0.281 N 
HETATM   23  H   UNL     1      24.468  45.227  53.395  1.00  0.00     0.189 HD
HETATM   24  C   UNL     1      25.533  45.559  51.572  1.00  0.00     0.034 A 
HETATM   25  C   UNL     1      26.164  44.632  50.784  1.00  0.00     0.066 A 
BRANCH  24  26
HETATM   26  C   UNL     1      25.454  47.045  51.307  1.00  0.00     0.037 A 
HETATM   27  C   UNL     1      26.164  47.599  50.091  1.00  0.00     0.011 A 
HETATM   28  C   UNL     1      24.675  47.538  50.107  1.00  0.00     0.011 A 
ENDBRANCH  24  26
ENDBRANCH   2  20
TORSDOF 7
ENDMDL
MODEL 5
REMARK VINA RESULT:      -7.8      2.806      5.843
REMARK  7 active torsions:
REMARK  status: ('A' for Active; 'I' for Inactive)
REMARK    1  A    between atoms: C_4  and  C_5 
REMARK    2  A    between atoms: C_5  and  O_6 
REMARK    3  A    between atoms: C_5  and  C_7 
REMARK    4  A    between atoms: C_7  and  N_8 
REMARK       I    between atoms: N_8  and  C_9 
REMARK    5  A    between atoms: N_8  and  C_20 
REMARK    6  A    between atoms: C_9  and  C_10 
REMARK    7  A    between atoms: C_14  and  C_15 
ROOT
HETATM    1  N   UNL     1      28.614  44.244  54.016  1.00  0.00    -0.339 N 
HETATM    2  C   UNL     1      29.051  43.595  52.836  1.00  0.00     0.274 C 
HETATM    3  O   UNL     1      30.225  43.232  52.718  1.00  0.00    -0.266 OA
ENDROOT
BRANCH   1   4
HETATM    4  C   UNL     1      27.197  44.602  54.270  1.00  0.00     0.163 C 
BRANCH   4   5
HETATM    5  C   UNL     1      26.810  46.042  53.863  1.00  0.00     0.169 C 
BRANCH   5   6
HETATM    6  C   UNL     1      25.940  46.040  52.620  1.00  0.00    -0.028 A 
HETATM    7  C   UNL     1      26.088  47.047  51.654  1.00  0.00     0.010 A 
HETATM    8  C   UNL     1      25.311  47.039  50.493  1.00  0.00     0.001 A 
HETATM    9  C   UNL     1      24.380  46.024  50.283  1.00  0.00     0.000 A 
HETATM   10  C   UNL     1      24.221  45.018  51.233  1.00  0.00     0.001 A 
HETATM   11  C   UNL     1      24.996  45.025  52.393  1.00  0.00     0.010 A 
ENDBRANCH   5   6
BRANCH   5  12
HETATM   12  O   UNL     1      26.059  46.671  54.908  1.00  0.00    -0.389 OA
HETATM   13  H   UNL     1      25.457  47.293  54.466  1.00  0.00     0.210 HD
ENDBRANCH   5  12
ENDBRANCH   4   5
ENDBRANCH   1   4
BRANCH   1  14
HETATM   14  C   UNL     1      29.652  44.502  55.045  1.00  0.00     0.087 C 
HETATM   15  C   UNL     1      30.331  43.260  55.650  1.00  0.00     0.025 C 
HETATM   16  C   UNL     1      31.448  43.647  56.618  1.00  0.00     0.002 C 
HETATM   17  C   UNL     1      30.940  44.573  57.718  1.00  0.00     0.000 C 
HETATM   18  C   UNL     1      30.252  45.805  57.140  1.00  0.00     0.002 C 
HETATM   19  C   UNL     1      29.137  45.430  56.164  1.00  0.00     0.025 C 
ENDBRANCH   1  14
BRANCH   2  20
HETATM   20  C   UNL     1      28.105  43.290  51.737  1.00  0.00     0.146 A 
HETATM   21  N   UNL     1      27.915  44.047  50.638  1.00  0.00    -0.169 NA
HETATM   22  N   UNL     1      26.976  43.389  49.936  1.00  0.00    -0.281 N 
HETATM   23  H   UNL     1      26.652  43.791  49.062  1.00  0.00     0.189 HD
HETATM   24  C   UNL     1      26.571  42.228  50.518  1.00  0.00     0.034 A 
HETATM   25  C   UNL     1      27.303  42.112  51.671  1.00  0.00     0.066 A 
BRANCH  24  26
HETATM   26  C   UNL     1      25.529  41.252  50.024  1.00  0.00     0.037 A 
HETATM   27  C   UNL     1      24.338  41.793  49.261  1.00  0.00     0.011 A 
HETATM   28  C   UNL     1      25.385  41.021  48.535  1.00  0.00     0.011 A 
ENDBRANCH  24  26
ENDBRANCH   2  20
TORSDOF 7
ENDMDL
MODEL 6
REMARK VINA RESULT:      -7.7     12.525     14.880
REMARK  7 active torsions:
REMARK  status: ('A' for Active; 'I' for Inactive)
REMARK    1  A    between atoms: C_4  and  C_5 
REMARK    2  A    between atoms: C_5  and  O_6 
REMARK    3  A    between atoms: C_5  and  C_7 
REMARK    4  A    between atoms: C_7  and  N_8 
REMARK       I    between atoms: N_8  and  C_9 
REMARK    5  A    between atoms: N_8  and  C_20 
REMARK    6  A    between atoms: C_9  and  C_10 
REMARK    7  A    between atoms: C_14  and  C_15 
ROOT
HETATM    1  N   UNL     1      33.586  50.131  41.388  1.00  0.00    -0.339 N 
HETATM    2  C   UNL     1      33.004  48.841  41.408  1.00  0.00     0.274 C 
HETATM    3  O   UNL     1      33.708  47.833  41.303  1.00  0.00    -0.266 OA
ENDROOT
BRANCH   1   4
HETATM    4  C   UNL     1      32.815  51.376  41.623  1.00  0.00     0.163 C 
BRANCH   4   5
HETATM    5  C   UNL     1      32.258  52.045  40.346  1.00  0.00     0.169 C 
BRANCH   5   6
HETATM    6  C   UNL     1      30.742  52.103  40.381  1.00  0.00    -0.028 A 
HETATM    7  C   UNL     1      30.065  52.102  41.610  1.00  0.00     0.010 A 
HETATM    8  C   UNL     1      28.671  52.183  41.654  1.00  0.00     0.001 A 
HETATM    9  C   UNL     1      27.938  52.268  40.472  1.00  0.00     0.000 A 
HETATM   10  C   UNL     1      28.596  52.269  39.245  1.00  0.00     0.001 A 
HETATM   11  C   UNL     1      29.989  52.189  39.199  1.00  0.00     0.010 A 
ENDBRANCH   5   6
BRANCH   5  12
HETATM   12  O   UNL     1      32.735  53.391  40.238  1.00  0.00    -0.389 OA
HETATM   13  H   UNL     1      32.105  53.851  39.659  1.00  0.00     0.210 HD
ENDBRANCH   5  12
ENDBRANCH   4   5
ENDBRANCH   1   4
BRANCH   1  14
HETATM   14  C   UNL     1      35.055  50.185  41.177  1.00  0.00     0.087 C 
HETATM   15  C   UNL     1      35.888  50.732  42.349  1.00  0.00     0.025 C 
HETATM   16  C   UNL     1      37.387  50.645  42.061  1.00  0.00     0.002 C 
HETATM   17  C   UNL     1      37.749  51.356  40.762  1.00  0.00     0.000 C 
HETATM   18  C   UNL     1      36.925  50.837  39.588  1.00  0.00     0.002 C 
HETATM   19  C   UNL     1      35.424  50.912  39.869  1.00  0.00     0.025 C 
ENDBRANCH   1  14
BRANCH   2  20
HETATM   20  C   UNL     1      31.547  48.665  41.606  1.00  0.00     0.146 A 
HETATM   21  N   UNL     1      30.895  48.810  42.778  1.00  0.00    -0.169 NA
HETATM   22  N   UNL     1      29.609  48.553  42.481  1.00  0.00    -0.281 N 
HETATM   23  H   UNL     1      28.923  48.581  43.227  1.00  0.00     0.189 HD
HETATM   24  C   UNL     1      29.396  48.275  41.166  1.00  0.00     0.034 A 
HETATM   25  C   UNL     1      30.622  48.369  40.561  1.00  0.00     0.066 A 
BRANCH  24  26
HETATM   26  C   UNL     1      28.093  47.925  40.486  1.00  0.00     0.037 A 
HETATM   27  C   UNL     1      26.954  48.919  40.555  1.00  0.00     0.011 A 
HETATM   28  C   UNL     1      27.667  48.710  39.264  1.00  0.00     0.011 A 
ENDBRANCH  24  26
ENDBRANCH   2  20
TORSDOF 7
ENDMDL
MODEL 7
REMARK VINA RESULT:      -7.7     16.141     17.689
REMARK  7 active torsions:
REMARK  status: ('A' for Active; 'I' for Inactive)
REMARK    1  A    between atoms: C_4  and  C_5 
REMARK    2  A    between atoms: C_5  and  O_6 
REMARK    3  A    between atoms: C_5  and  C_7 
REMARK    4  A    between atoms: C_7  and  N_8 
REMARK       I    between atoms: N_8  and  C_9 
REMARK    5  A    between atoms: N_8  and  C_20 
REMARK    6  A    between atoms: C_9  and  C_10 
REMARK    7  A    between atoms: C_14  and  C_15 
ROOT
HETATM    1  N   UNL     1      39.410  46.071  65.232  1.00  0.00    -0.339 N 
HETATM    2  C   UNL     1      40.266  45.495  64.263  1.00  0.00     0.274 C 
HETATM    3  O   UNL     1      41.255  46.110  63.854  1.00  0.00    -0.266 OA
ENDROOT
BRANCH   1   4
HETATM    4  C   UNL     1      38.275  45.344  65.849  1.00  0.00     0.163 C 
BRANCH   4   5
HETATM    5  C   UNL     1      36.981  45.325  65.004  1.00  0.00     0.169 C 
BRANCH   5   6
HETATM    6  C   UNL     1      36.188  44.055  65.254  1.00  0.00    -0.028 A 
HETATM    7  C   UNL     1      34.906  44.125  65.821  1.00  0.00     0.010 A 
HETATM    8  C   UNL     1      34.157  42.966  66.030  1.00  0.00     0.001 A 
HETATM    9  C   UNL     1      34.678  41.723  65.675  1.00  0.00     0.000 A 
HETATM   10  C   UNL     1      35.950  41.638  65.114  1.00  0.00     0.001 A 
HETATM   11  C   UNL     1      36.699  42.796  64.903  1.00  0.00     0.010 A 
ENDBRANCH   5   6
BRANCH   5  12
HETATM   12  O   UNL     1      36.139  46.430  65.353  1.00  0.00    -0.389 OA
HETATM   13  H   UNL     1      35.545  46.102  66.048  1.00  0.00     0.210 HD
ENDBRANCH   5  12
ENDBRANCH   4   5
ENDBRANCH   1   4
BRANCH   1  14
HETATM   14  C   UNL     1      39.745  47.452  65.664  1.00  0.00     0.087 C 
HETATM   15  C   UNL     1      39.614  47.740  67.171  1.00  0.00     0.025 C 
HETATM   16  C   UNL     1      40.079  49.155  67.512  1.00  0.00     0.002 C 
HETATM   17  C   UNL     1      39.333  50.204  66.695  1.00  0.00     0.000 C 
HETATM   18  C   UNL     1      39.438  49.928  65.198  1.00  0.00     0.002 C 
HETATM   19  C   UNL     1      38.983  48.513  64.846  1.00  0.00     0.025 C 
ENDBRANCH   1  14
BRANCH   2  20
HETATM   20  C   UNL     1      40.028  44.125  63.752  1.00  0.00     0.146 A 
HETATM   21  N   UNL     1      39.407  43.819  62.595  1.00  0.00    -0.169 NA
HETATM   22  N   UNL     1      39.419  42.476  62.552  1.00  0.00    -0.281 N 
HETATM   23  H   UNL     1      38.978  42.010  61.766  1.00  0.00     0.189 HD
HETATM   24  C   UNL     1      40.043  41.900  63.615  1.00  0.00     0.034 A 
HETATM   25  C   UNL     1      40.479  42.936  64.399  1.00  0.00     0.066 A 
BRANCH  24  26
HETATM   26  C   UNL     1      40.226  40.428  63.904  1.00  0.00     0.037 A 
HETATM   27  C   UNL     1      39.027  39.630  64.369  1.00  0.00     0.011 A 
HETATM   28  C   UNL     1      39.564  39.413  62.997  1.00  0.00     0.011 A 
ENDBRANCH  24  26
ENDBRANCH   2  20
TORSDOF 7
ENDMDL
MODEL 8
REMARK VINA RESULT:      -7.6      1.665      2.074
REMARK  7 active torsions:
REMARK  status: ('A' for Active; 'I' for Inactive)
REMARK    1  A    between atoms: C_4  and  C_5 
REMARK    2  A    between atoms: C_5  and  O_6 
REMARK    3  A    between atoms: C_5  and  C_7 
REMARK    4  A    between atoms: C_7  and  N_8 
REMARK       I    between atoms: N_8  and  C_9 
REMARK    5  A    between atoms: N_8  and  C_20 
REMARK    6  A    between atoms: C_9  and  C_10 
REMARK    7  A    between atoms: C_14  and  C_15 
ROOT
HETATM    1  N   UNL     1      26.581  43.928  50.179  1.00  0.00    -0.339 N 
HETATM    2  C   UNL     1      26.162  42.774  49.475  1.00  0.00     0.274 C 
HETATM    3  O   UNL     1      25.390  42.869  48.516  1.00  0.00    -0.266 OA
ENDROOT
BRANCH   1   4
HETATM    4  C   UNL     1      27.593  43.897  51.263  1.00  0.00     0.163 C 
BRANCH   4   5
HETATM    5  C   UNL     1      27.018  43.671  52.680  1.00  0.00     0.169 C 
BRANCH   5   6
HETATM    6  C   UNL     1      27.053  44.954  53.490  1.00  0.00    -0.028 A 
HETATM    7  C   UNL     1      28.152  45.235  54.317  1.00  0.00     0.010 A 
HETATM    8  C   UNL     1      28.207  46.424  55.046  1.00  0.00     0.001 A 
HETATM    9  C   UNL     1      27.168  47.348  54.957  1.00  0.00     0.000 A 
HETATM   10  C   UNL     1      26.070  47.082  54.142  1.00  0.00     0.001 A 
HETATM   11  C   UNL     1      26.014  45.894  53.412  1.00  0.00     0.010 A 
ENDBRANCH   5   6
BRANCH   5  12
HETATM   12  O   UNL     1      25.650  43.252  52.603  1.00  0.00    -0.389 OA
HETATM   13  H   UNL     1      25.642  42.320  52.876  1.00  0.00     0.210 HD
ENDBRANCH   5  12
ENDBRANCH   4   5
ENDBRANCH   1   4
BRANCH   1  14
HETATM   14  C   UNL     1      25.996  45.217  49.731  1.00  0.00     0.087 C 
HETATM   15  C   UNL     1      26.822  46.479  50.039  1.00  0.00     0.025 C 
HETATM   16  C   UNL     1      26.176  47.730  49.446  1.00  0.00     0.002 C 
HETATM   17  C   UNL     1      24.736  47.897  49.921  1.00  0.00     0.000 C 
HETATM   18  C   UNL     1      23.904  46.651  49.637  1.00  0.00     0.002 C 
HETATM   19  C   UNL     1      24.545  45.392  50.220  1.00  0.00     0.025 C 
ENDBRANCH   1  14
BRANCH   2  20
HETATM   20  C   UNL     1      26.675  41.431  49.836  1.00  0.00     0.146 A 
HETATM   21  N   UNL     1      26.109  40.593  50.728  1.00  0.00    -0.169 NA
HETATM   22  N   UNL     1      26.912  39.514  50.730  1.00  0.00    -0.281 N 
HETATM   23  H   UNL     1      26.691  38.745  51.354  1.00  0.00     0.189 HD
HETATM   24  C   UNL     1      27.954  39.606  49.860  1.00  0.00     0.034 A 
HETATM   25  C   UNL     1      27.817  40.820  49.239  1.00  0.00     0.066 A 
BRANCH  24  26
HETATM   26  C   UNL     1      29.053  38.599  49.614  1.00  0.00     0.037 A 
HETATM   27  C   UNL     1      29.982  38.250  50.757  1.00  0.00     0.011 A 
HETATM   28  C   UNL     1      28.980  37.249  50.294  1.00  0.00     0.011 A 
ENDBRANCH  24  26
ENDBRANCH   2  20
TORSDOF 7
ENDMDL
MODEL 9
REMARK VINA RESULT:      -7.6      3.493      6.587
REMARK  7 active torsions:
REMARK  status: ('A' for Active; 'I' for Inactive)
REMARK    1  A    between atoms: C_4  and  C_5 
REMARK    2  A    between atoms: C_5  and  O_6 
REMARK    3  A    between atoms: C_5  and  C_7 
REMARK    4  A    between atoms: C_7  and  N_8 
REMARK       I    between atoms: N_8  and  C_9 
REMARK    5  A    between atoms: N_8  and  C_20 
REMARK    6  A    between atoms: C_9  and  C_10 
REMARK    7  A    between atoms: C_14  and  C_15 
ROOT
HETATM    1  N   UNL     1      25.117  46.411  50.882  1.00  0.00    -0.339 N 
HETATM    2  C   UNL     1      25.462  46.488  52.252  1.00  0.00     0.274 C 
HETATM    3  O   UNL     1      25.388  47.560  52.859  1.00  0.00    -0.266 OA
ENDROOT
BRANCH   1   4
HETATM    4  C   UNL     1      25.072  45.137  50.124  1.00  0.00     0.163 C 
BRANCH   4   5
HETATM    5  C   UNL     1      23.791  44.300  50.338  1.00  0.00     0.169 C 
BRANCH   5   6
HETATM    6  C   UNL     1      23.403  43.568  49.066  1.00  0.00    -0.028 A 
HETATM    7  C   UNL     1      23.234  42.175  49.078  1.00  0.00     0.010 A 
HETATM    8  C   UNL     1      22.850  41.496  47.920  1.00  0.00     0.001 A 
HETATM    9  C   UNL     1      22.629  42.199  46.738  1.00  0.00     0.000 A 
HETATM   10  C   UNL     1      22.794  43.581  46.710  1.00  0.00     0.001 A 
HETATM   11  C   UNL     1      23.177  44.262  47.867  1.00  0.00     0.010 A 
ENDBRANCH   5   6
BRANCH   5  12
HETATM   12  O   UNL     1      24.004  43.310  51.352  1.00  0.00    -0.389 OA
HETATM   13  H   UNL     1      23.415  42.571  51.129  1.00  0.00     0.210 HD
ENDBRANCH   5  12
ENDBRANCH   4   5
ENDBRANCH   1   4
BRANCH   1  14
HETATM   14  C   UNL     1      24.728  47.688  50.231  1.00  0.00     0.087 C 
HETATM   15  C   UNL     1      23.409  47.671  49.439  1.00  0.00     0.025 C 
HETATM   16  C   UNL     1      23.060  49.059  48.902  1.00  0.00     0.002 C 
HETATM   17  C   UNL     1      24.191  49.632  48.054  1.00  0.00     0.000 C 
HETATM   18  C   UNL     1      25.512  49.645  48.816  1.00  0.00     0.002 C 
HETATM   19  C   UNL     1      25.867  48.264  49.365  1.00  0.00     0.025 C 
ENDBRANCH   1  14
BRANCH   2  20
HETATM   20  C   UNL     1      25.870  45.279  53.006  1.00  0.00     0.146 A 
HETATM   21  N   UNL     1      25.043  44.487  53.718  1.00  0.00    -0.169 NA
HETATM   22  N   UNL     1      25.845  43.533  54.222  1.00  0.00    -0.281 N 
HETATM   23  H   UNL     1      25.438  42.823  54.822  1.00  0.00     0.189 HD
HETATM   24  C   UNL     1      27.146  43.656  53.845  1.00  0.00     0.034 A 
HETATM   25  C   UNL     1      27.197  44.757  53.030  1.00  0.00     0.066 A 
BRANCH  24  26
HETATM   26  C   UNL     1      28.316  42.781  54.232  1.00  0.00     0.037 A 
HETATM   27  C   UNL     1      28.540  41.495  53.465  1.00  0.00     0.011 A 
HETATM   28  C   UNL     1      29.477  42.638  53.272  1.00  0.00     0.011 A 
ENDBRANCH  24  26
ENDBRANCH   2  20
TORSDOF 7
ENDMDL
MODEL 10
REMARK VINA RESULT:      -7.6     12.851     15.644
REMARK  7 active torsions:
REMARK  status: ('A' for Active; 'I' for Inactive)
REMARK    1  A    between atoms: C_4  and  C_5 
REMARK    2  A    between atoms: C_5  and  O_6 
REMARK    3  A    between atoms: C_5  and  C_7 
REMARK    4  A    between atoms: C_7  and  N_8 
REMARK       I    between atoms: N_8  and  C_9 
REMARK    5  A    between atoms: N_8  and  C_20 
REMARK    6  A    between atoms: C_9  and  C_10 
REMARK    7  A    between atoms: C_14  and  C_15 
ROOT
HETATM    1  N   UNL     1      34.146  51.275  40.859  1.00  0.00    -0.339 N 
HETATM    2  C   UNL     1      33.703  52.221  39.904  1.00  0.00     0.274 C 
HETATM    3  O   UNL     1      34.343  53.256  39.701  1.00  0.00    -0.266 OA
ENDROOT
BRANCH   1   4
HETATM    4  C   UNL     1      33.491  49.962  41.069  1.00  0.00     0.163 C 
BRANCH   4   5
HETATM    5  C   UNL     1      32.159  50.020  41.851  1.00  0.00     0.169 C 
BRANCH   5   6
HETATM    6  C   UNL     1      31.108  49.139  41.200  1.00  0.00    -0.028 A 
HETATM    7  C   UNL     1      29.878  48.920  41.838  1.00  0.00     0.010 A 
HETATM    8  C   UNL     1      28.894  48.134  41.235  1.00  0.00     0.001 A 
HETATM    9  C   UNL     1      29.127  47.558  39.987  1.00  0.00     0.000 A 
HETATM   10  C   UNL     1      30.344  47.765  39.342  1.00  0.00     0.001 A 
HETATM   11  C   UNL     1      31.327  48.552  39.944  1.00  0.00     0.010 A 
ENDBRANCH   5   6
BRANCH   5  12
HETATM   12  O   UNL     1      32.344  49.545  43.190  1.00  0.00    -0.389 OA
HETATM   13  H   UNL     1      31.544  49.803  43.676  1.00  0.00     0.210 HD
ENDBRANCH   5  12
ENDBRANCH   4   5
ENDBRANCH   1   4
BRANCH   1  14
HETATM   14  C   UNL     1      35.368  51.637  41.621  1.00  0.00     0.087 C 
HETATM   15  C   UNL     1      36.583  50.710  41.434  1.00  0.00     0.025 C 
HETATM   16  C   UNL     1      37.808  51.235  42.182  1.00  0.00     0.002 C 
HETATM   17  C   UNL     1      37.513  51.445  43.663  1.00  0.00     0.000 C 
HETATM   18  C   UNL     1      36.304  52.351  43.871  1.00  0.00     0.002 C 
HETATM   19  C   UNL     1      35.074  51.840  43.121  1.00  0.00     0.025 C 
ENDBRANCH   1  14
BRANCH   2  20
HETATM   20  C   UNL     1      32.493  51.970  39.087  1.00  0.00     0.146 A 
HETATM   21  N   UNL     1      32.479  51.397  37.866  1.00  0.00    -0.169 NA
HETATM   22  N   UNL     1      31.181  51.381  37.518  1.00  0.00    -0.281 N 
HETATM   23  H   UNL     1      30.926  51.007  36.610  1.00  0.00     0.189 HD
HETATM   24  C   UNL     1      30.353  51.892  38.468  1.00  0.00     0.034 A 
HETATM   25  C   UNL     1      31.161  52.255  39.513  1.00  0.00     0.066 A 
BRANCH  24  26
HETATM   26  C   UNL     1      28.851  52.047  38.410  1.00  0.00     0.037 A 
HETATM   27  C   UNL     1      27.994  50.801  38.483  1.00  0.00     0.011 A 
HETATM   28  C   UNL     1      28.031  51.734  39.644  1.00  0.00     0.011 A 
ENDBRANCH  24  26
ENDBRANCH   2  20
TORSDOF 7
ENDMDL
