MODEL 1
REMARK VINA RESULT:     -10.2      0.000      0.000
REMARK  7 active torsions:
REMARK  status: ('A' for Active; 'I' for Inactive)
REMARK    1  A    between atoms: C_7  and  C_8 
REMARK    2  A    between atoms: C_8  and  C_9 
REMARK       I    between atoms: C_9  and  N_10 
REMARK    3  A    between atoms: N_10  and  N_11 
REMARK       I    between atoms: N_11  and  C_12 
REMARK    4  A    between atoms: C_12  and  C_13 
REMARK    5  A    between atoms: C_23  and  O_24 
REMARK    6  A    between atoms: O_24  and  C_25 
REMARK    7  A    between atoms: C_25  and  C_26 
ROOT
HETATM    1  C   UNL     1      23.528  44.998  48.877  1.00  0.00     0.068 C 
HETATM    2  C   UNL     1      24.307  45.276  50.112  1.00  0.00     0.013 A 
HETATM    3  N   UNL     1      24.216  44.468  51.217  1.00  0.00    -0.359 N 
HETATM    4  H   UNL     1      23.636  43.642  51.288  1.00  0.00     0.166 HD
HETATM    5  C   UNL     1      25.029  44.931  52.223  1.00  0.00     0.043 A 
HETATM    6  C   UNL     1      25.661  46.077  51.747  1.00  0.00     0.002 A 
HETATM    7  C   UNL     1      25.193  46.302  50.411  1.00  0.00    -0.015 A 
HETATM    8  C   UNL     1      25.250  44.424  53.507  1.00  0.00     0.033 A 
HETATM    9  C   UNL     1      26.154  45.106  54.334  1.00  0.00     0.039 A 
HETATM   10  C   UNL     1      26.814  46.251  53.889  1.00  0.00     0.070 A 
HETATM   11  C   UNL     1      26.564  46.744  52.601  1.00  0.00     0.051 A 
ENDROOT
BRANCH   7  12
HETATM   12  C   UNL     1      25.589  47.433  49.511  1.00  0.00     0.146 C 
BRANCH  12  13
HETATM   13  C   UNL     1      24.575  48.563  49.429  1.00  0.00     0.240 C 
HETATM   14  N   UNL     1      23.324  48.300  49.948  1.00  0.00    -0.267 N 
HETATM   15  H   UNL     1      23.000  47.356  50.160  1.00  0.00     0.190 HD
HETATM   16  O   UNL     1      24.887  49.677  48.998  1.00  0.00    -0.272 OA
BRANCH  14  17
HETATM   17  N   UNL     1      22.345  49.289  49.852  1.00  0.00    -0.262 N 
HETATM   18  C   UNL     1      21.216  49.067  49.094  1.00  0.00     0.288 C 
HETATM   19  O   UNL     1      21.028  48.052  48.430  1.00  0.00    -0.264 OA
HETATM   20  H   UNL     1      22.463  50.149  50.391  1.00  0.00     0.190 HD
BRANCH  18  21
HETATM   21  C   UNL     1      20.214  50.178  49.154  1.00  0.00     0.125 A 
HETATM   22  N   UNL     1      19.116  49.963  49.931  1.00  0.00    -0.255 NA
HETATM   23  C   UNL     1      18.205  50.958  49.972  1.00  0.00     0.117 A 
HETATM   24  C   UNL     1      18.333  52.151  49.277  1.00  0.00     0.019 A 
HETATM   25  C   UNL     1      19.467  52.344  48.492  1.00  0.00     0.004 A 
HETATM   26  C   UNL     1      20.429  51.341  48.425  1.00  0.00     0.037 A 
ENDBRANCH  18  21
ENDBRANCH  14  17
ENDBRANCH  12  13
ENDBRANCH   7  12
BRANCH  10  27
HETATM   27  O   UNL     1      27.724  46.983  54.604  1.00  0.00    -0.347 OA
BRANCH  27  28
HETATM   28  C   UNL     1      27.705  46.841  56.025  1.00  0.00     0.214 C 
BRANCH  28  29
HETATM   29  C   UNL     1      28.897  46.042  56.509  1.00  0.00    -0.034 A 
HETATM   30  C   UNL     1      29.325  46.077  57.844  1.00  0.00     0.009 A 
HETATM   31  C   UNL     1      30.411  45.305  58.264  1.00  0.00     0.001 A 
HETATM   32  C   UNL     1      31.074  44.479  57.359  1.00  0.00     0.000 A 
HETATM   33  C   UNL     1      30.650  44.421  56.033  1.00  0.00     0.001 A 
HETATM   34  C   UNL     1      29.566  45.193  55.611  1.00  0.00     0.009 A 
ENDBRANCH  28  29
ENDBRANCH  27  28
ENDBRANCH  10  27
TORSDOF 7
ENDMDL
MODEL 2
REMARK VINA RESULT:      -9.9      2.856      3.909
REMARK  7 active torsions:
REMARK  status: ('A' for Active; 'I' for Inactive)
REMARK    1  A    between atoms: C_7  and  C_8 
REMARK    2  A    between atoms: C_8  and  C_9 
REMARK       I    between atoms: C_9  and  N_10 
REMARK    3  A    between atoms: N_10  and  N_11 
REMARK       I    between atoms: N_11  and  C_12 
REMARK    4  A    between atoms: C_12  and  C_13 
REMARK    5  A    between atoms: C_23  and  O_24 
REMARK    6  A    between atoms: O_24  and  C_25 
REMARK    7  A    between atoms: C_25  and  C_26 
ROOT
HETATM    1  C   UNL     1      25.780  40.385  48.705  1.00  0.00     0.068 C 
HETATM    2  C   UNL     1      26.342  41.023  49.924  1.00  0.00     0.013 A 
HETATM    3  N   UNL     1      27.537  40.616  50.463  1.00  0.00    -0.359 N 
HETATM    4  H   UNL     1      28.120  39.877  50.094  1.00  0.00     0.166 HD
HETATM    5  C   UNL     1      27.841  41.356  51.580  1.00  0.00     0.043 A 
HETATM    6  C   UNL     1      26.804  42.267  51.764  1.00  0.00     0.002 A 
HETATM    7  C   UNL     1      25.848  42.047  50.720  1.00  0.00    -0.015 A 
HETATM    8  C   UNL     1      28.947  41.287  52.432  1.00  0.00     0.033 A 
HETATM    9  C   UNL     1      29.002  42.185  53.507  1.00  0.00     0.039 A 
HETATM   10  C   UNL     1      27.988  43.118  53.719  1.00  0.00     0.070 A 
HETATM   11  C   UNL     1      26.885  43.157  52.856  1.00  0.00     0.051 A 
ENDROOT
BRANCH   7  12
HETATM   12  C   UNL     1      24.558  42.786  50.527  1.00  0.00     0.146 C 
BRANCH  12  13
HETATM   13  C   UNL     1      24.714  44.211  50.022  1.00  0.00     0.240 C 
HETATM   14  N   UNL     1      23.723  45.100  50.386  1.00  0.00    -0.267 N 
HETATM   15  H   UNL     1      22.823  44.801  50.761  1.00  0.00     0.190 HD
HETATM   16  O   UNL     1      25.716  44.565  49.394  1.00  0.00    -0.272 OA
BRANCH  14  17
HETATM   17  N   UNL     1      23.797  46.407  49.906  1.00  0.00    -0.262 N 
HETATM   18  C   UNL     1      22.928  46.829  48.923  1.00  0.00     0.288 C 
HETATM   19  O   UNL     1      22.105  46.098  48.380  1.00  0.00    -0.264 OA
HETATM   20  H   UNL     1      24.469  47.049  50.333  1.00  0.00     0.190 HD
BRANCH  18  21
HETATM   21  C   UNL     1      23.064  48.277  48.570  1.00  0.00     0.125 A 
HETATM   22  N   UNL     1      24.270  48.854  48.833  1.00  0.00    -0.255 NA
HETATM   23  C   UNL     1      24.388  50.164  48.529  1.00  0.00     0.117 A 
HETATM   24  C   UNL     1      23.366  50.924  47.979  1.00  0.00     0.019 A 
HETATM   25  C   UNL     1      22.145  50.308  47.719  1.00  0.00     0.004 A 
HETATM   26  C   UNL     1      21.986  48.958  48.018  1.00  0.00     0.037 A 
ENDBRANCH  18  21
ENDBRANCH  14  17
ENDBRANCH  12  13
ENDBRANCH   7  12
BRANCH  10  27
HETATM   27  O   UNL     1      27.948  44.048  54.724  1.00  0.00    -0.347 OA
BRANCH  27  28
HETATM   28  C   UNL     1      28.986  45.030  54.747  1.00  0.00     0.214 C 
BRANCH  28  29
HETATM   29  C   UNL     1      29.830  44.902  55.997  1.00  0.00    -0.034 A 
HETATM   30  C   UNL     1      30.811  43.909  56.135  1.00  0.00     0.009 A 
HETATM   31  C   UNL     1      31.593  43.837  57.290  1.00  0.00     0.001 A 
HETATM   32  C   UNL     1      31.413  44.762  58.316  1.00  0.00     0.000 A 
HETATM   33  C   UNL     1      30.453  45.763  58.187  1.00  0.00     0.001 A 
HETATM   34  C   UNL     1      29.670  45.836  57.034  1.00  0.00     0.009 A 
ENDBRANCH  28  29
ENDBRANCH  27  28
ENDBRANCH  10  27
TORSDOF 7
ENDMDL
MODEL 3
REMARK VINA RESULT:      -9.8      2.231      2.663
REMARK  7 active torsions:
REMARK  status: ('A' for Active; 'I' for Inactive)
REMARK    1  A    between atoms: C_7  and  C_8 
REMARK    2  A    between atoms: C_8  and  C_9 
REMARK       I    between atoms: C_9  and  N_10 
REMARK    3  A    between atoms: N_10  and  N_11 
REMARK       I    between atoms: N_11  and  C_12 
REMARK    4  A    between atoms: C_12  and  C_13 
REMARK    5  A    between atoms: C_23  and  O_24 
REMARK    6  A    between atoms: O_24  and  C_25 
REMARK    7  A    between atoms: C_25  and  C_26 
ROOT
HETATM    1  C   UNL     1      24.124  43.639  48.658  1.00  0.00     0.068 C 
HETATM    2  C   UNL     1      25.254  43.485  49.611  1.00  0.00     0.013 A 
HETATM    3  N   UNL     1      25.536  42.279  50.204  1.00  0.00    -0.359 N 
HETATM    4  H   UNL     1      25.023  41.421  50.051  1.00  0.00     0.166 HD
HETATM    5  C   UNL     1      26.622  42.392  51.038  1.00  0.00     0.043 A 
HETATM    6  C   UNL     1      27.049  43.717  50.980  1.00  0.00     0.002 A 
HETATM    7  C   UNL     1      26.173  44.411  50.084  1.00  0.00    -0.015 A 
HETATM    8  C   UNL     1      27.251  41.429  51.832  1.00  0.00     0.033 A 
HETATM    9  C   UNL     1      28.362  41.828  52.588  1.00  0.00     0.039 A 
HETATM   10  C   UNL     1      28.826  43.142  52.549  1.00  0.00     0.070 A 
HETATM   11  C   UNL     1      28.168  44.090  51.753  1.00  0.00     0.051 A 
ENDROOT
BRANCH   7  12
HETATM   12  C   UNL     1      26.241  45.866  49.726  1.00  0.00     0.146 C 
BRANCH  12  13
HETATM   13  C   UNL     1      25.062  46.694  50.211  1.00  0.00     0.240 C 
HETATM   14  N   UNL     1      24.132  47.051  49.257  1.00  0.00    -0.267 N 
HETATM   15  H   UNL     1      24.314  46.984  48.256  1.00  0.00     0.190 HD
HETATM   16  O   UNL     1      24.910  46.955  51.408  1.00  0.00    -0.272 OA
BRANCH  14  17
HETATM   17  N   UNL     1      23.058  47.851  49.645  1.00  0.00    -0.262 N 
HETATM   18  C   UNL     1      22.197  48.354  48.694  1.00  0.00     0.288 C 
HETATM   19  O   UNL     1      22.344  48.191  47.486  1.00  0.00    -0.264 OA
HETATM   20  H   UNL     1      22.900  48.011  50.642  1.00  0.00     0.190 HD
BRANCH  18  21
HETATM   21  C   UNL     1      21.044  49.122  49.260  1.00  0.00     0.125 A 
HETATM   22  N   UNL     1      19.913  48.410  49.524  1.00  0.00    -0.255 NA
HETATM   23  C   UNL     1      18.868  49.105  50.020  1.00  0.00     0.117 A 
HETATM   24  C   UNL     1      18.893  50.470  50.263  1.00  0.00     0.019 A 
HETATM   25  C   UNL     1      20.063  51.172  49.985  1.00  0.00     0.004 A 
HETATM   26  C   UNL     1      21.163  50.490  49.474  1.00  0.00     0.037 A 
ENDBRANCH  18  21
ENDBRANCH  14  17
ENDBRANCH  12  13
ENDBRANCH   7  12
BRANCH  10  27
HETATM   27  O   UNL     1      29.906  43.635  53.232  1.00  0.00    -0.347 OA
BRANCH  27  28
HETATM   28  C   UNL     1      30.403  42.852  54.319  1.00  0.00     0.214 C 
BRANCH  28  29
HETATM   29  C   UNL     1      30.495  43.676  55.586  1.00  0.00    -0.034 A 
HETATM   30  C   UNL     1      31.347  43.324  56.643  1.00  0.00     0.009 A 
HETATM   31  C   UNL     1      31.431  44.122  57.786  1.00  0.00     0.001 A 
HETATM   32  C   UNL     1      30.674  45.288  57.883  1.00  0.00     0.000 A 
HETATM   33  C   UNL     1      29.836  45.660  56.834  1.00  0.00     0.001 A 
HETATM   34  C   UNL     1      29.750  44.862  55.691  1.00  0.00     0.009 A 
ENDBRANCH  28  29
ENDBRANCH  27  28
ENDBRANCH  10  27
TORSDOF 7
ENDMDL
MODEL 4
REMARK VINA RESULT:      -9.8      2.269     10.896
REMARK  7 active torsions:
REMARK  status: ('A' for Active; 'I' for Inactive)
REMARK    1  A    between atoms: C_7  and  C_8 
REMARK    2  A    between atoms: C_8  and  C_9 
REMARK       I    between atoms: C_9  and  N_10 
REMARK    3  A    between atoms: N_10  and  N_11 
REMARK       I    between atoms: N_11  and  C_12 
REMARK    4  A    between atoms: C_12  and  C_13 
REMARK    5  A    between atoms: C_23  and  O_24 
REMARK    6  A    between atoms: O_24  and  C_25 
REMARK    7  A    between atoms: C_25  and  C_26 
ROOT
HETATM    1  C   UNL     1      27.269  48.303  49.355  1.00  0.00     0.068 C 
HETATM    2  C   UNL     1      25.827  48.618  49.179  1.00  0.00     0.013 A 
HETATM    3  N   UNL     1      25.414  49.764  48.549  1.00  0.00    -0.359 N 
HETATM    4  H   UNL     1      26.027  50.470  48.162  1.00  0.00     0.166 HD
HETATM    5  C   UNL     1      24.042  49.827  48.509  1.00  0.00     0.043 A 
HETATM    6  C   UNL     1      23.560  48.681  49.138  1.00  0.00     0.002 A 
HETATM    7  C   UNL     1      24.694  47.921  49.573  1.00  0.00    -0.015 A 
HETATM    8  C   UNL     1      23.200  50.803  47.969  1.00  0.00     0.033 A 
HETATM    9  C   UNL     1      21.817  50.601  48.064  1.00  0.00     0.039 A 
HETATM   10  C   UNL     1      21.296  49.462  48.677  1.00  0.00     0.070 A 
HETATM   11  C   UNL     1      22.163  48.505  49.222  1.00  0.00     0.051 A 
ENDROOT
BRANCH   7  12
HETATM   12  C   UNL     1      24.657  46.618  50.313  1.00  0.00     0.146 C 
BRANCH  12  13
HETATM   13  C   UNL     1      25.569  46.552  51.527  1.00  0.00     0.240 C 
HETATM   14  N   UNL     1      26.367  45.432  51.633  1.00  0.00    -0.267 N 
HETATM   15  H   UNL     1      26.208  44.587  51.084  1.00  0.00     0.190 HD
HETATM   16  O   UNL     1      25.647  47.492  52.324  1.00  0.00    -0.272 OA
BRANCH  14  17
HETATM   17  N   UNL     1      27.185  45.304  52.755  1.00  0.00    -0.262 N 
HETATM   18  C   UNL     1      28.034  44.224  52.867  1.00  0.00     0.288 C 
HETATM   19  O   UNL     1      28.082  43.306  52.052  1.00  0.00    -0.264 OA
HETATM   20  H   UNL     1      27.176  46.047  53.456  1.00  0.00     0.190 HD
BRANCH  18  21
HETATM   21  C   UNL     1      28.913  44.262  54.077  1.00  0.00     0.125 A 
HETATM   22  N   UNL     1      28.797  45.360  54.875  1.00  0.00    -0.255 NA
HETATM   23  C   UNL     1      29.602  45.403  55.959  1.00  0.00     0.117 A 
HETATM   24  C   UNL     1      30.513  44.410  56.283  1.00  0.00     0.019 A 
HETATM   25  C   UNL     1      30.610  43.299  55.450  1.00  0.00     0.004 A 
HETATM   26  C   UNL     1      29.796  43.218  54.324  1.00  0.00     0.037 A 
ENDBRANCH  18  21
ENDBRANCH  14  17
ENDBRANCH  12  13
ENDBRANCH   7  12
BRANCH  10  27
HETATM   27  O   UNL     1      19.967  49.158  48.812  1.00  0.00    -0.347 OA
BRANCH  27  28
HETATM   28  C   UNL     1      19.290  49.681  49.955  1.00  0.00     0.214 C 
BRANCH  28  29
HETATM   29  C   UNL     1      18.176  50.621  49.546  1.00  0.00    -0.034 A 
HETATM   30  C   UNL     1      17.064  50.183  48.812  1.00  0.00     0.009 A 
HETATM   31  C   UNL     1      16.039  51.069  48.475  1.00  0.00     0.001 A 
HETATM   32  C   UNL     1      16.104  52.401  48.878  1.00  0.00     0.000 A 
HETATM   33  C   UNL     1      17.195  52.848  49.622  1.00  0.00     0.001 A 
HETATM   34  C   UNL     1      18.221  51.963  49.958  1.00  0.00     0.009 A 
ENDBRANCH  28  29
ENDBRANCH  27  28
ENDBRANCH  10  27
TORSDOF 7
ENDMDL
MODEL 5
REMARK VINA RESULT:      -9.7      4.511      9.374
REMARK  7 active torsions:
REMARK  status: ('A' for Active; 'I' for Inactive)
REMARK    1  A    between atoms: C_7  and  C_8 
REMARK    2  A    between atoms: C_8  and  C_9 
REMARK       I    between atoms: C_9  and  N_10 
REMARK    3  A    between atoms: N_10  and  N_11 
REMARK       I    between atoms: N_11  and  C_12 
REMARK    4  A    between atoms: C_12  and  C_13 
REMARK    5  A    between atoms: C_23  and  O_24 
REMARK    6  A    between atoms: O_24  and  C_25 
REMARK    7  A    between atoms: C_25  and  C_26 
ROOT
HETATM    1  C   UNL     1      31.028  44.419  56.366  1.00  0.00     0.068 C 
HETATM    2  C   UNL     1      29.822  44.820  55.596  1.00  0.00     0.013 A 
HETATM    3  N   UNL     1      29.351  46.108  55.617  1.00  0.00    -0.359 N 
HETATM    4  H   UNL     1      29.766  46.872  56.135  1.00  0.00     0.166 HD
HETATM    5  C   UNL     1      28.232  46.228  54.829  1.00  0.00     0.043 A 
HETATM    6  C   UNL     1      27.975  44.971  54.286  1.00  0.00     0.002 A 
HETATM    7  C   UNL     1      28.978  44.076  54.784  1.00  0.00    -0.015 A 
HETATM    8  C   UNL     1      27.435  47.344  54.559  1.00  0.00     0.033 A 
HETATM    9  C   UNL     1      26.342  47.177  53.698  1.00  0.00     0.039 A 
HETATM   10  C   UNL     1      26.059  45.936  53.127  1.00  0.00     0.070 A 
HETATM   11  C   UNL     1      26.867  44.831  53.425  1.00  0.00     0.051 A 
ENDROOT
BRANCH   7  12
HETATM   12  C   UNL     1      29.090  42.612  54.480  1.00  0.00     0.146 C 
BRANCH  12  13
HETATM   13  C   UNL     1      29.172  42.277  52.999  1.00  0.00     0.240 C 
HETATM   14  N   UNL     1      28.506  41.139  52.593  1.00  0.00    -0.267 N 
HETATM   15  H   UNL     1      28.177  40.428  53.247  1.00  0.00     0.190 HD
HETATM   16  O   UNL     1      29.733  43.031  52.199  1.00  0.00    -0.272 OA
BRANCH  14  17
HETATM   17  N   UNL     1      28.592  40.763  51.253  1.00  0.00    -0.262 N 
HETATM   18  C   UNL     1      27.462  40.767  50.464  1.00  0.00     0.288 C 
HETATM   19  O   UNL     1      26.338  41.031  50.883  1.00  0.00    -0.264 OA
HETATM   20  H   UNL     1      29.510  40.537  50.865  1.00  0.00     0.190 HD
BRANCH  18  21
HETATM   21  C   UNL     1      27.718  40.427  49.030  1.00  0.00     0.125 A 
HETATM   22  N   UNL     1      27.577  41.442  48.131  1.00  0.00    -0.255 NA
HETATM   23  C   UNL     1      27.793  41.131  46.835  1.00  0.00     0.117 A 
HETATM   24  C   UNL     1      28.140  39.864  46.393  1.00  0.00     0.019 A 
HETATM   25  C   UNL     1      28.278  38.846  47.333  1.00  0.00     0.004 A 
HETATM   26  C   UNL     1      28.065  39.128  48.679  1.00  0.00     0.037 A 
ENDBRANCH  18  21
ENDBRANCH  14  17
ENDBRANCH  12  13
ENDBRANCH   7  12
BRANCH  10  27
HETATM   27  O   UNL     1      25.030  45.664  52.265  1.00  0.00    -0.347 OA
BRANCH  27  28
HETATM   28  C   UNL     1      25.360  45.514  50.883  1.00  0.00     0.214 C 
BRANCH  28  29
HETATM   29  C   UNL     1      25.430  46.858  50.190  1.00  0.00    -0.034 A 
HETATM   30  C   UNL     1      26.652  47.463  49.862  1.00  0.00     0.009 A 
HETATM   31  C   UNL     1      26.682  48.690  49.196  1.00  0.00     0.001 A 
HETATM   32  C   UNL     1      25.493  49.322  48.838  1.00  0.00     0.000 A 
HETATM   33  C   UNL     1      24.272  48.725  49.143  1.00  0.00     0.001 A 
HETATM   34  C   UNL     1      24.240  47.499  49.810  1.00  0.00     0.009 A 
ENDBRANCH  28  29
ENDBRANCH  27  28
ENDBRANCH  10  27
TORSDOF 7
ENDMDL
MODEL 6
REMARK VINA RESULT:      -9.5      1.534      2.262
REMARK  7 active torsions:
REMARK  status: ('A' for Active; 'I' for Inactive)
REMARK    1  A    between atoms: C_7  and  C_8 
REMARK    2  A    between atoms: C_8  and  C_9 
REMARK       I    between atoms: C_9  and  N_10 
REMARK    3  A    between atoms: N_10  and  N_11 
REMARK       I    between atoms: N_11  and  C_12 
REMARK    4  A    between atoms: C_12  and  C_13 
REMARK    5  A    between atoms: C_23  and  O_24 
REMARK    6  A    between atoms: O_24  and  C_25 
REMARK    7  A    between atoms: C_25  and  C_26 
ROOT
HETATM    1  C   UNL     1      22.274  45.673  47.542  1.00  0.00     0.068 C 
HETATM    2  C   UNL     1      23.168  45.575  48.726  1.00  0.00     0.013 A 
HETATM    3  N   UNL     1      23.366  44.386  49.380  1.00  0.00    -0.359 N 
HETATM    4  H   UNL     1      22.942  43.504  49.127  1.00  0.00     0.166 HD
HETATM    5  C   UNL     1      24.231  44.552  50.435  1.00  0.00     0.043 A 
HETATM    6  C   UNL     1      24.598  45.896  50.459  1.00  0.00     0.002 A 
HETATM    7  C   UNL     1      23.913  46.546  49.380  1.00  0.00    -0.015 A 
HETATM    8  C   UNL     1      24.712  43.622  51.362  1.00  0.00     0.033 A 
HETATM    9  C   UNL     1      25.605  44.076  52.342  1.00  0.00     0.039 A 
HETATM   10  C   UNL     1      26.003  45.411  52.392  1.00  0.00     0.070 A 
HETATM   11  C   UNL     1      25.496  46.325  51.458  1.00  0.00     0.051 A 
ENDROOT
BRANCH   7  12
HETATM   12  C   UNL     1      23.990  48.002  49.029  1.00  0.00     0.146 C 
BRANCH  12  13
HETATM   13  C   UNL     1      22.649  48.657  48.743  1.00  0.00     0.240 C 
HETATM   14  N   UNL     1      21.716  48.608  49.758  1.00  0.00    -0.267 N 
HETATM   15  H   UNL     1      21.803  47.982  50.559  1.00  0.00     0.190 HD
HETATM   16  O   UNL     1      22.444  49.270  47.691  1.00  0.00    -0.272 OA
BRANCH  14  17
HETATM   17  N   UNL     1      20.454  49.153  49.525  1.00  0.00    -0.262 N 
HETATM   18  C   UNL     1      20.173  50.438  49.939  1.00  0.00     0.288 C 
HETATM   19  O   UNL     1      20.960  51.140  50.568  1.00  0.00    -0.264 OA
HETATM   20  H   UNL     1      19.770  48.602  49.003  1.00  0.00     0.190 HD
BRANCH  18  21
HETATM   21  C   UNL     1      18.813  50.921  49.546  1.00  0.00     0.125 A 
HETATM   22  N   UNL     1      18.016  50.026  48.897  1.00  0.00    -0.255 NA
HETATM   23  C   UNL     1      16.794  50.467  48.528  1.00  0.00     0.117 A 
HETATM   24  C   UNL     1      16.331  51.751  48.771  1.00  0.00     0.019 A 
HETATM   25  C   UNL     1      17.166  52.644  49.436  1.00  0.00     0.004 A 
HETATM   26  C   UNL     1      18.433  52.226  49.834  1.00  0.00     0.037 A 
ENDBRANCH  18  21
ENDBRANCH  14  17
ENDBRANCH  12  13
ENDBRANCH   7  12
BRANCH  10  27
HETATM   27  O   UNL     1      26.878  45.956  53.293  1.00  0.00    -0.347 OA
BRANCH  27  28
HETATM   28  C   UNL     1      26.895  45.397  54.607  1.00  0.00     0.214 C 
BRANCH  28  29
HETATM   29  C   UNL     1      28.245  44.789  54.924  1.00  0.00    -0.034 A 
HETATM   30  C   UNL     1      28.674  43.586  54.345  1.00  0.00     0.009 A 
HETATM   31  C   UNL     1      29.937  43.067  54.635  1.00  0.00     0.001 A 
HETATM   32  C   UNL     1      30.793  43.749  55.498  1.00  0.00     0.000 A 
HETATM   33  C   UNL     1      30.387  44.953  56.068  1.00  0.00     0.001 A 
HETATM   34  C   UNL     1      29.124  45.472  55.780  1.00  0.00     0.009 A 
ENDBRANCH  28  29
ENDBRANCH  27  28
ENDBRANCH  10  27
TORSDOF 7
ENDMDL
MODEL 7
REMARK VINA RESULT:      -9.1      4.321      6.840
REMARK  7 active torsions:
REMARK  status: ('A' for Active; 'I' for Inactive)
REMARK    1  A    between atoms: C_7  and  C_8 
REMARK    2  A    between atoms: C_8  and  C_9 
REMARK       I    between atoms: C_9  and  N_10 
REMARK    3  A    between atoms: N_10  and  N_11 
REMARK       I    between atoms: N_11  and  C_12 
REMARK    4  A    between atoms: C_12  and  C_13 
REMARK    5  A    between atoms: C_23  and  O_24 
REMARK    6  A    between atoms: O_24  and  C_25 
REMARK    7  A    between atoms: C_25  and  C_26 
ROOT
HETATM    1  C   UNL     1      28.080  46.657  56.498  1.00  0.00     0.068 C 
HETATM    2  C   UNL     1      28.236  45.554  55.513  1.00  0.00     0.013 A 
HETATM    3  N   UNL     1      29.439  44.921  55.328  1.00  0.00    -0.359 N 
HETATM    4  H   UNL     1      30.293  45.136  55.826  1.00  0.00     0.166 HD
HETATM    5  C   UNL     1      29.328  43.942  54.370  1.00  0.00     0.043 A 
HETATM    6  C   UNL     1      28.009  43.950  53.924  1.00  0.00     0.002 A 
HETATM    7  C   UNL     1      27.320  44.982  54.642  1.00  0.00    -0.015 A 
HETATM    8  C   UNL     1      30.289  43.058  53.871  1.00  0.00     0.033 A 
HETATM    9  C   UNL     1      29.889  42.143  52.887  1.00  0.00     0.039 A 
HETATM   10  C   UNL     1      28.575  42.115  52.422  1.00  0.00     0.070 A 
HETATM   11  C   UNL     1      27.635  43.021  52.932  1.00  0.00     0.051 A 
ENDROOT
BRANCH   7  12
HETATM   12  C   UNL     1      25.880  45.367  54.479  1.00  0.00     0.146 C 
BRANCH  12  13
HETATM   13  C   UNL     1      25.640  46.547  53.551  1.00  0.00     0.240 C 
HETATM   14  N   UNL     1      25.226  46.242  52.271  1.00  0.00    -0.267 N 
HETATM   15  H   UNL     1      25.296  45.305  51.875  1.00  0.00     0.190 HD
HETATM   16  O   UNL     1      25.731  47.710  53.954  1.00  0.00    -0.272 OA
BRANCH  14  17
HETATM   17  N   UNL     1      25.039  47.289  51.368  1.00  0.00    -0.262 N 
HETATM   18  C   UNL     1      24.507  47.035  50.122  1.00  0.00     0.288 C 
HETATM   19  O   UNL     1      24.230  45.911  49.715  1.00  0.00    -0.264 OA
HETATM   20  H   UNL     1      25.257  48.241  51.669  1.00  0.00     0.190 HD
BRANCH  18  21
HETATM   21  C   UNL     1      24.283  48.261  49.295  1.00  0.00     0.125 A 
HETATM   22  N   UNL     1      22.987  48.572  49.011  1.00  0.00    -0.255 NA
HETATM   23  C   UNL     1      22.786  49.670  48.251  1.00  0.00     0.117 A 
HETATM   24  C   UNL     1      23.808  50.468  47.760  1.00  0.00     0.019 A 
HETATM   25  C   UNL     1      25.122  50.126  48.066  1.00  0.00     0.004 A 
HETATM   26  C   UNL     1      25.371  49.002  48.849  1.00  0.00     0.037 A 
ENDBRANCH  18  21
ENDBRANCH  14  17
ENDBRANCH  12  13
ENDBRANCH   7  12
BRANCH  10  27
HETATM   27  O   UNL     1      28.074  41.257  51.479  1.00  0.00    -0.347 OA
BRANCH  27  28
HETATM   28  C   UNL     1      28.782  40.036  51.265  1.00  0.00     0.214 C 
BRANCH  28  29
HETATM   29  C   UNL     1      28.356  39.378  49.970  1.00  0.00    -0.034 A 
HETATM   30  C   UNL     1      29.217  38.548  49.237  1.00  0.00     0.009 A 
HETATM   31  C   UNL     1      28.783  37.933  48.061  1.00  0.00     0.001 A 
HETATM   32  C   UNL     1      27.480  38.128  47.608  1.00  0.00     0.000 A 
HETATM   33  C   UNL     1      26.608  38.937  48.334  1.00  0.00     0.001 A 
HETATM   34  C   UNL     1      27.041  39.554  49.509  1.00  0.00     0.009 A 
ENDBRANCH  28  29
ENDBRANCH  27  28
ENDBRANCH  10  27
TORSDOF 7
ENDMDL
MODEL 8
REMARK VINA RESULT:      -9.1      2.300      3.233
REMARK  7 active torsions:
REMARK  status: ('A' for Active; 'I' for Inactive)
REMARK    1  A    between atoms: C_7  and  C_8 
REMARK    2  A    between atoms: C_8  and  C_9 
REMARK       I    between atoms: C_9  and  N_10 
REMARK    3  A    between atoms: N_10  and  N_11 
REMARK       I    between atoms: N_11  and  C_12 
REMARK    4  A    between atoms: C_12  and  C_13 
REMARK    5  A    between atoms: C_23  and  O_24 
REMARK    6  A    between atoms: O_24  and  C_25 
REMARK    7  A    between atoms: C_25  and  C_26 
ROOT
HETATM    1  C   UNL     1      22.404  43.077  46.435  1.00  0.00     0.068 C 
HETATM    2  C   UNL     1      23.193  43.431  47.643  1.00  0.00     0.013 A 
HETATM    3  N   UNL     1      24.530  43.135  47.741  1.00  0.00    -0.359 N 
HETATM    4  H   UNL     1      25.077  42.670  47.028  1.00  0.00     0.166 HD
HETATM    5  C   UNL     1      25.033  43.562  48.946  1.00  0.00     0.043 A 
HETATM    6  C   UNL     1      23.982  44.150  49.646  1.00  0.00     0.002 A 
HETATM    7  C   UNL     1      22.813  44.055  48.823  1.00  0.00    -0.015 A 
HETATM    8  C   UNL     1      26.329  43.473  49.463  1.00  0.00     0.033 A 
HETATM    9  C   UNL     1      26.565  44.009  50.736  1.00  0.00     0.039 A 
HETATM   10  C   UNL     1      25.540  44.614  51.463  1.00  0.00     0.070 A 
HETATM   11  C   UNL     1      24.247  44.679  50.926  1.00  0.00     0.051 A 
ENDROOT
BRANCH   7  12
HETATM   12  C   UNL     1      21.439  44.541  49.174  1.00  0.00     0.146 C 
BRANCH  12  13
HETATM   13  C   UNL     1      21.190  46.010  48.874  1.00  0.00     0.240 C 
HETATM   14  N   UNL     1      20.041  46.557  49.407  1.00  0.00    -0.267 N 
HETATM   15  H   UNL     1      19.278  45.988  49.777  1.00  0.00     0.190 HD
HETATM   16  O   UNL     1      22.017  46.690  48.258  1.00  0.00    -0.272 OA
BRANCH  14  17
HETATM   17  N   UNL     1      19.745  47.888  49.119  1.00  0.00    -0.262 N 
HETATM   18  C   UNL     1      19.083  48.662  50.048  1.00  0.00     0.288 C 
HETATM   19  O   UNL     1      18.671  48.235  51.123  1.00  0.00    -0.264 OA
HETATM   20  H   UNL     1      20.071  48.283  48.235  1.00  0.00     0.190 HD
BRANCH  18  21
HETATM   21  C   UNL     1      18.910  50.091  49.640  1.00  0.00     0.125 A 
HETATM   22  N   UNL     1      17.841  50.748  50.169  1.00  0.00    -0.255 NA
HETATM   23  C   UNL     1      17.676  52.033  49.788  1.00  0.00     0.117 A 
HETATM   24  C   UNL     1      18.520  52.691  48.906  1.00  0.00     0.019 A 
HETATM   25  C   UNL     1      19.606  51.995  48.381  1.00  0.00     0.004 A 
HETATM   26  C   UNL     1      19.810  50.669  48.752  1.00  0.00     0.037 A 
ENDBRANCH  18  21
ENDBRANCH  14  17
ENDBRANCH  12  13
ENDBRANCH   7  12
BRANCH  10  27
HETATM   27  O   UNL     1      25.662  45.182  52.704  1.00  0.00    -0.347 OA
BRANCH  27  28
HETATM   28  C   UNL     1      25.786  44.297  53.818  1.00  0.00     0.214 C 
BRANCH  28  29
HETATM   29  C   UNL     1      27.236  44.131  54.223  1.00  0.00    -0.034 A 
HETATM   30  C   UNL     1      27.935  45.131  54.914  1.00  0.00     0.009 A 
HETATM   31  C   UNL     1      29.263  44.934  55.299  1.00  0.00     0.001 A 
HETATM   32  C   UNL     1      29.905  43.732  55.009  1.00  0.00     0.000 A 
HETATM   33  C   UNL     1      29.218  42.723  54.338  1.00  0.00     0.001 A 
HETATM   34  C   UNL     1      27.891  42.919  53.951  1.00  0.00     0.009 A 
ENDBRANCH  28  29
ENDBRANCH  27  28
ENDBRANCH  10  27
TORSDOF 7
ENDMDL
MODEL 9
REMARK VINA RESULT:      -9.0      3.220      4.313
REMARK  7 active torsions:
REMARK  status: ('A' for Active; 'I' for Inactive)
REMARK    1  A    between atoms: C_7  and  C_8 
REMARK    2  A    between atoms: C_8  and  C_9 
REMARK       I    between atoms: C_9  and  N_10 
REMARK    3  A    between atoms: N_10  and  N_11 
REMARK       I    between atoms: N_11  and  C_12 
REMARK    4  A    between atoms: C_12  and  C_13 
REMARK    5  A    between atoms: C_23  and  O_24 
REMARK    6  A    between atoms: O_24  and  C_25 
REMARK    7  A    between atoms: C_25  and  C_26 
ROOT
HETATM    1  C   UNL     1      23.361  42.131  46.377  1.00  0.00     0.068 C 
HETATM    2  C   UNL     1      24.332  41.960  47.490  1.00  0.00     0.013 A 
HETATM    3  N   UNL     1      25.582  41.435  47.278  1.00  0.00    -0.359 N 
HETATM    4  H   UNL     1      25.942  41.131  46.384  1.00  0.00     0.166 HD
HETATM    5  C   UNL     1      26.290  41.380  48.455  1.00  0.00     0.043 A 
HETATM    6  C   UNL     1      25.463  41.886  49.456  1.00  0.00     0.002 A 
HETATM    7  C   UNL     1      24.217  42.242  48.844  1.00  0.00    -0.015 A 
HETATM    8  C   UNL     1      27.587  40.925  48.706  1.00  0.00     0.033 A 
HETATM    9  C   UNL     1      28.063  40.996  50.022  1.00  0.00     0.039 A 
HETATM   10  C   UNL     1      27.269  41.504  51.049  1.00  0.00     0.070 A 
HETATM   11  C   UNL     1      25.967  41.943  50.772  1.00  0.00     0.051 A 
ENDROOT
BRANCH   7  12
HETATM   12  C   UNL     1      23.018  42.813  49.539  1.00  0.00     0.146 C 
BRANCH  12  13
HETATM   13  C   UNL     1      23.007  44.330  49.643  1.00  0.00     0.240 C 
HETATM   14  N   UNL     1      21.899  44.969  49.128  1.00  0.00    -0.267 N 
HETATM   15  H   UNL     1      21.233  44.509  48.506  1.00  0.00     0.190 HD
HETATM   16  O   UNL     1      23.904  44.940  50.232  1.00  0.00    -0.272 OA
BRANCH  14  17
HETATM   17  N   UNL     1      21.865  46.363  49.156  1.00  0.00    -0.262 N 
HETATM   18  C   UNL     1      22.075  47.079  47.997  1.00  0.00     0.288 C 
HETATM   19  O   UNL     1      22.355  46.565  46.918  1.00  0.00    -0.264 OA
HETATM   20  H   UNL     1      21.634  46.831  50.035  1.00  0.00     0.190 HD
BRANCH  18  21
HETATM   21  C   UNL     1      21.923  48.559  48.159  1.00  0.00     0.125 A 
HETATM   22  N   UNL     1      22.921  49.331  47.646  1.00  0.00    -0.255 NA
HETATM   23  C   UNL     1      22.792  50.665  47.806  1.00  0.00     0.117 A 
HETATM   24  C   UNL     1      21.723  51.265  48.453  1.00  0.00     0.019 A 
HETATM   25  C   UNL     1      20.717  50.452  48.968  1.00  0.00     0.004 A 
HETATM   26  C   UNL     1      20.813  49.071  48.820  1.00  0.00     0.037 A 
ENDBRANCH  18  21
ENDBRANCH  14  17
ENDBRANCH  12  13
ENDBRANCH   7  12
BRANCH  10  27
HETATM   27  O   UNL     1      27.637  41.633  52.362  1.00  0.00    -0.347 OA
BRANCH  27  28
HETATM   28  C   UNL     1      27.201  42.805  53.051  1.00  0.00     0.214 C 
BRANCH  28  29
HETATM   29  C   UNL     1      28.290  43.343  53.955  1.00  0.00    -0.034 A 
HETATM   30  C   UNL     1      29.504  42.666  54.144  1.00  0.00     0.009 A 
HETATM   31  C   UNL     1      30.499  43.203  54.962  1.00  0.00     0.001 A 
HETATM   32  C   UNL     1      30.301  44.431  55.592  1.00  0.00     0.000 A 
HETATM   33  C   UNL     1      29.108  45.123  55.400  1.00  0.00     0.001 A 
HETATM   34  C   UNL     1      28.111  44.586  54.584  1.00  0.00     0.009 A 
ENDBRANCH  28  29
ENDBRANCH  27  28
ENDBRANCH  10  27
TORSDOF 7
ENDMDL
MODEL 10
REMARK VINA RESULT:      -8.8      2.415      3.941
REMARK  7 active torsions:
REMARK  status: ('A' for Active; 'I' for Inactive)
REMARK    1  A    between atoms: C_7  and  C_8 
REMARK    2  A    between atoms: C_8  and  C_9 
REMARK       I    between atoms: C_9  and  N_10 
REMARK    3  A    between atoms: N_10  and  N_11 
REMARK       I    between atoms: N_11  and  C_12 
REMARK    4  A    between atoms: C_12  and  C_13 
REMARK    5  A    between atoms: C_23  and  O_24 
REMARK    6  A    between atoms: O_24  and  C_25 
REMARK    7  A    between atoms: C_25  and  C_26 
ROOT
HETATM    1  C   UNL     1      22.600  50.030  47.646  1.00  0.00     0.068 C 
HETATM    2  C   UNL     1      23.441  49.066  48.404  1.00  0.00     0.013 A 
HETATM    3  N   UNL     1      24.728  49.369  48.769  1.00  0.00    -0.359 N 
HETATM    4  H   UNL     1      25.202  50.239  48.567  1.00  0.00     0.166 HD
HETATM    5  C   UNL     1      25.294  48.323  49.458  1.00  0.00     0.043 A 
HETATM    6  C   UNL     1      24.336  47.314  49.534  1.00  0.00     0.002 A 
HETATM    7  C   UNL     1      23.164  47.783  48.854  1.00  0.00    -0.015 A 
HETATM    8  C   UNL     1      26.570  48.195  50.013  1.00  0.00     0.033 A 
HETATM    9  C   UNL     1      26.879  47.001  50.678  1.00  0.00     0.039 A 
HETATM   10  C   UNL     1      25.943  45.973  50.784  1.00  0.00     0.070 A 
HETATM   11  C   UNL     1      24.675  46.122  50.207  1.00  0.00     0.051 A 
ENDROOT
BRANCH   7  12
HETATM   12  C   UNL     1      21.884  47.026  48.668  1.00  0.00     0.146 C 
BRANCH  12  13
HETATM   13  C   UNL     1      20.646  47.899  48.533  1.00  0.00     0.240 C 
HETATM   14  N   UNL     1      20.159  48.453  49.698  1.00  0.00    -0.267 N 
HETATM   15  H   UNL     1      20.441  48.130  50.624  1.00  0.00     0.190 HD
HETATM   16  O   UNL     1      20.161  48.159  47.428  1.00  0.00    -0.272 OA
BRANCH  14  17
HETATM   17  N   UNL     1      18.997  49.221  49.632  1.00  0.00    -0.262 N 
HETATM   18  C   UNL     1      19.078  50.596  49.691  1.00  0.00     0.288 C 
HETATM   19  O   UNL     1      20.126  51.211  49.861  1.00  0.00    -0.264 OA
HETATM   20  H   UNL     1      18.103  48.747  49.490  1.00  0.00     0.190 HD
BRANCH  18  21
HETATM   21  C   UNL     1      17.764  51.291  49.521  1.00  0.00     0.125 A 
HETATM   22  N   UNL     1      16.799  50.606  48.846  1.00  0.00    -0.255 NA
HETATM   23  C   UNL     1      15.618  51.240  48.678  1.00  0.00     0.117 A 
HETATM   24  C   UNL     1      15.354  52.518  49.147  1.00  0.00     0.019 A 
HETATM   25  C   UNL     1      16.359  53.194  49.834  1.00  0.00     0.004 A 
HETATM   26  C   UNL     1      17.589  52.573  50.028  1.00  0.00     0.037 A 
ENDBRANCH  18  21
ENDBRANCH  14  17
ENDBRANCH  12  13
ENDBRANCH   7  12
BRANCH  10  27
HETATM   27  O   UNL     1      26.133  44.775  51.421  1.00  0.00    -0.347 OA
BRANCH  27  28
HETATM   28  C   UNL     1      26.346  44.814  52.833  1.00  0.00     0.214 C 
BRANCH  28  29
HETATM   29  C   UNL     1      27.677  44.192  53.201  1.00  0.00    -0.034 A 
HETATM   30  C   UNL     1      28.431  43.448  52.281  1.00  0.00     0.009 A 
HETATM   31  C   UNL     1      29.668  42.912  52.643  1.00  0.00     0.001 A 
HETATM   32  C   UNL     1      30.174  43.122  53.924  1.00  0.00     0.000 A 
HETATM   33  C   UNL     1      29.444  43.872  54.844  1.00  0.00     0.001 A 
HETATM   34  C   UNL     1      28.206  44.407  54.483  1.00  0.00     0.009 A 
ENDBRANCH  28  29
ENDBRANCH  27  28
ENDBRANCH  10  27
TORSDOF 7
ENDMDL
