MODEL 1
REMARK VINA RESULT:     -10.9      0.000      0.000
REMARK  4 active torsions:
REMARK  status: ('A' for Active; 'I' for Inactive)
REMARK    1  A    between atoms: C_5  and  N_6 
REMARK       I    between atoms: N_6  and  C_7 
REMARK    2  A    between atoms: C_7  and  C_8 
REMARK    3  A    between atoms: C_12  and  C_13 
REMARK    4  A    between atoms: N_24  and  C_25 
ROOT
HETATM    1  N   UNL     1      26.362  45.160  50.641  1.00  0.00    -0.348 N 
HETATM    2  C   UNL     1      27.070  44.036  50.971  1.00  0.00     0.257 C 
HETATM    3  O   UNL     1      27.193  43.079  50.212  1.00  0.00    -0.267 OA
HETATM    4  H   UNL     1      26.281  45.906  51.332  1.00  0.00     0.163 HD
ENDROOT
BRANCH   1   5
HETATM    5  C   UNL     1      25.859  45.403  49.305  1.00  0.00     0.122 C 
HETATM    6  C   UNL     1      24.920  44.283  48.808  1.00  0.00     0.039 C 
HETATM    7  C   UNL     1      23.432  44.394  49.269  1.00  0.00    -0.040 C 
HETATM    8  C   UNL     1      23.295  44.119  50.780  1.00  0.00     0.015 C 
HETATM    9  C   UNL     1      22.616  43.314  48.525  1.00  0.00     0.015 C 
HETATM   10  C   UNL     1      22.825  45.793  48.927  1.00  0.00     0.069 C 
HETATM   11  C   UNL     1      23.798  46.898  49.171  1.00  0.00     0.047 A 
HETATM   12  C   UNL     1      25.159  46.715  49.336  1.00  0.00     0.008 A 
HETATM   13  N   UNL     1      23.557  48.263  49.297  1.00  0.00    -0.238 N 
HETATM   14  C   UNL     1      25.670  47.992  49.577  1.00  0.00     0.150 A 
HETATM   15  N   UNL     1      24.719  48.922  49.588  1.00  0.00    -0.179 NA
BRANCH  13  16
HETATM   16  C   UNL     1      22.353  49.027  49.175  1.00  0.00     0.058 A 
HETATM   17  C   UNL     1      22.457  50.417  48.978  1.00  0.00     0.031 A 
HETATM   18  C   UNL     1      21.316  51.214  48.864  1.00  0.00     0.002 A 
HETATM   19  C   UNL     1      20.054  50.633  48.934  1.00  0.00     0.000 A 
HETATM   20  C   UNL     1      19.937  49.256  49.109  1.00  0.00     0.002 A 
HETATM   21  C   UNL     1      21.079  48.454  49.226  1.00  0.00     0.031 A 
ENDBRANCH  13  16
ENDBRANCH   1   5
BRANCH   2  22
HETATM   22  C   UNL     1      27.755  44.080  52.298  1.00  0.00     0.100 A 
HETATM   23  C   UNL     1      27.311  44.934  53.439  1.00  0.00     0.261 A 
HETATM   24  O   UNL     1      26.291  45.618  53.387  1.00  0.00    -0.267 OA
HETATM   25  N   UNL     1      28.111  44.936  54.557  1.00  0.00    -0.322 N 
HETATM   26  C   UNL     1      29.272  44.210  54.685  1.00  0.00     0.045 A 
HETATM   27  H   UNL     1      27.798  45.516  55.326  1.00  0.00     0.169 HD
HETATM   28  C   UNL     1      29.662  43.419  53.671  1.00  0.00     0.031 A 
HETATM   29  C   UNL     1      28.878  43.354  52.457  1.00  0.00     0.025 A 
BRANCH  26  30
HETATM   30  C   UNL     1      30.069  44.363  55.915  1.00  0.00    -0.009 A 
HETATM   31  C   UNL     1      29.837  45.448  56.775  1.00  0.00     0.013 A 
HETATM   32  C   UNL     1      30.590  45.609  57.941  1.00  0.00     0.001 A 
HETATM   33  C   UNL     1      31.584  44.687  58.260  1.00  0.00     0.000 A 
HETATM   34  C   UNL     1      31.824  43.604  57.418  1.00  0.00     0.001 A 
HETATM   35  C   UNL     1      31.069  43.440  56.253  1.00  0.00     0.013 A 
ENDBRANCH  26  30
ENDBRANCH   2  22
TORSDOF 4
ENDMDL
MODEL 2
REMARK VINA RESULT:     -10.3      1.763      9.750
REMARK  4 active torsions:
REMARK  status: ('A' for Active; 'I' for Inactive)
REMARK    1  A    between atoms: C_5  and  N_6 
REMARK       I    between atoms: N_6  and  C_7 
REMARK    2  A    between atoms: C_7  and  C_8 
REMARK    3  A    between atoms: C_12  and  C_13 
REMARK    4  A    between atoms: N_24  and  C_25 
ROOT
HETATM    1  N   UNL     1      24.125  44.883  50.877  1.00  0.00    -0.348 N 
HETATM    2  C   UNL     1      23.652  44.927  49.593  1.00  0.00     0.257 C 
HETATM    3  O   UNL     1      23.726  43.974  48.823  1.00  0.00    -0.267 OA
HETATM    4  H   UNL     1      24.052  45.723  51.453  1.00  0.00     0.163 HD
ENDROOT
BRANCH   1   5
HETATM    5  C   UNL     1      24.576  43.659  51.503  1.00  0.00     0.122 C 
HETATM    6  C   UNL     1      25.359  42.747  50.534  1.00  0.00     0.039 C 
HETATM    7  C   UNL     1      26.874  43.086  50.361  1.00  0.00    -0.040 C 
HETATM    8  C   UNL     1      27.064  44.410  49.594  1.00  0.00     0.015 C 
HETATM    9  C   UNL     1      27.524  41.966  49.521  1.00  0.00     0.015 C 
HETATM   10  C   UNL     1      27.608  43.161  51.739  1.00  0.00     0.069 C 
HETATM   11  C   UNL     1      26.776  43.832  52.780  1.00  0.00     0.047 A 
HETATM   12  C   UNL     1      25.414  44.049  52.667  1.00  0.00     0.008 A 
HETATM   13  N   UNL     1      27.170  44.369  54.002  1.00  0.00    -0.238 N 
HETATM   14  C   UNL     1      25.060  44.732  53.833  1.00  0.00     0.150 A 
HETATM   15  N   UNL     1      26.104  44.958  54.623  1.00  0.00    -0.179 NA
BRANCH  13  16
HETATM   16  C   UNL     1      28.441  44.394  54.659  1.00  0.00     0.058 A 
HETATM   17  C   UNL     1      28.788  45.536  55.406  1.00  0.00     0.031 A 
HETATM   18  C   UNL     1      30.020  45.620  56.059  1.00  0.00     0.002 A 
HETATM   19  C   UNL     1      30.919  44.562  55.984  1.00  0.00     0.000 A 
HETATM   20  C   UNL     1      30.580  43.419  55.264  1.00  0.00     0.002 A 
HETATM   21  C   UNL     1      29.347  43.331  54.606  1.00  0.00     0.031 A 
ENDBRANCH  13  16
ENDBRANCH   1   5
BRANCH   2  22
HETATM   22  C   UNL     1      22.966  46.197  49.208  1.00  0.00     0.100 A 
HETATM   23  C   UNL     1      23.398  47.551  49.665  1.00  0.00     0.261 A 
HETATM   24  O   UNL     1      24.409  47.723  50.342  1.00  0.00    -0.267 OA
HETATM   25  N   UNL     1      22.596  48.609  49.304  1.00  0.00    -0.322 N 
HETATM   26  C   UNL     1      21.445  48.496  48.561  1.00  0.00     0.045 A 
HETATM   27  H   UNL     1      22.901  49.523  49.617  1.00  0.00     0.169 HD
HETATM   28  C   UNL     1      21.066  47.282  48.126  1.00  0.00     0.031 A 
HETATM   29  C   UNL     1      21.851  46.113  48.456  1.00  0.00     0.025 A 
BRANCH  26  30
HETATM   30  C   UNL     1      20.645  49.707  48.310  1.00  0.00    -0.009 A 
HETATM   31  C   UNL     1      19.752  49.752  47.227  1.00  0.00     0.013 A 
HETATM   32  C   UNL     1      18.993  50.897  46.973  1.00  0.00     0.001 A 
HETATM   33  C   UNL     1      19.118  52.011  47.799  1.00  0.00     0.000 A 
HETATM   34  C   UNL     1      19.997  51.982  48.879  1.00  0.00     0.001 A 
HETATM   35  C   UNL     1      20.755  50.836  49.135  1.00  0.00     0.013 A 
ENDBRANCH  26  30
ENDBRANCH   2  22
TORSDOF 4
ENDMDL
MODEL 3
REMARK VINA RESULT:     -10.0      2.042      3.345
REMARK  4 active torsions:
REMARK  status: ('A' for Active; 'I' for Inactive)
REMARK    1  A    between atoms: C_5  and  N_6 
REMARK       I    between atoms: N_6  and  C_7 
REMARK    2  A    between atoms: C_7  and  C_8 
REMARK    3  A    between atoms: C_12  and  C_13 
REMARK    4  A    between atoms: N_24  and  C_25 
ROOT
HETATM    1  N   UNL     1      23.566  45.771  48.789  1.00  0.00    -0.348 N 
HETATM    2  C   UNL     1      24.276  44.603  48.716  1.00  0.00     0.257 C 
HETATM    3  O   UNL     1      24.201  43.836  47.760  1.00  0.00    -0.267 OA
HETATM    4  H   UNL     1      23.659  46.347  49.626  1.00  0.00     0.163 HD
ENDROOT
BRANCH   1   5
HETATM    5  C   UNL     1      22.815  46.301  47.671  1.00  0.00     0.122 C 
HETATM    6  C   UNL     1      21.611  45.414  47.287  1.00  0.00     0.039 C 
HETATM    7  C   UNL     1      20.311  45.639  48.124  1.00  0.00    -0.040 C 
HETATM    8  C   UNL     1      20.485  45.132  49.569  1.00  0.00     0.015 C 
HETATM    9  C   UNL     1      19.175  44.816  47.477  1.00  0.00     0.015 C 
HETATM   10  C   UNL     1      19.886  47.142  48.137  1.00  0.00     0.069 C 
HETATM   11  C   UNL     1      21.061  48.054  48.267  1.00  0.00     0.047 A 
HETATM   12  C   UNL     1      22.372  47.669  48.053  1.00  0.00     0.008 A 
HETATM   13  N   UNL     1      21.090  49.397  48.631  1.00  0.00    -0.238 N 
HETATM   14  C   UNL     1      23.133  48.809  48.323  1.00  0.00     0.150 A 
HETATM   15  N   UNL     1      22.382  49.839  48.699  1.00  0.00    -0.179 NA
BRANCH  13  16
HETATM   16  C   UNL     1      20.037  50.321  48.923  1.00  0.00     0.058 A 
HETATM   17  C   UNL     1      20.037  51.568  48.270  1.00  0.00     0.031 A 
HETATM   18  C   UNL     1      19.041  52.513  48.525  1.00  0.00     0.002 A 
HETATM   19  C   UNL     1      18.024  52.222  49.428  1.00  0.00     0.000 A 
HETATM   20  C   UNL     1      18.001  50.985  50.067  1.00  0.00     0.002 A 
HETATM   21  C   UNL     1      18.999  50.035  49.815  1.00  0.00     0.031 A 
ENDBRANCH  13  16
ENDBRANCH   1   5
BRANCH   2  22
HETATM   22  C   UNL     1      25.217  44.355  49.850  1.00  0.00     0.100 A 
HETATM   23  C   UNL     1      24.789  44.210  51.273  1.00  0.00     0.261 A 
HETATM   24  O   UNL     1      23.605  44.214  51.604  1.00  0.00    -0.267 OA
HETATM   25  N   UNL     1      25.789  44.088  52.208  1.00  0.00    -0.322 N 
HETATM   26  C   UNL     1      27.132  44.090  51.917  1.00  0.00     0.045 A 
HETATM   27  H   UNL     1      25.486  43.987  53.170  1.00  0.00     0.169 HD
HETATM   28  C   UNL     1      27.522  44.193  50.635  1.00  0.00     0.031 A 
HETATM   29  C   UNL     1      26.537  44.323  49.584  1.00  0.00     0.025 A 
BRANCH  26  30
HETATM   30  C   UNL     1      28.096  44.023  53.029  1.00  0.00    -0.009 A 
HETATM   31  C   UNL     1      27.996  44.921  54.105  1.00  0.00     0.013 A 
HETATM   32  C   UNL     1      28.908  44.873  55.162  1.00  0.00     0.001 A 
HETATM   33  C   UNL     1      29.931  43.928  55.157  1.00  0.00     0.000 A 
HETATM   34  C   UNL     1      30.041  43.029  54.099  1.00  0.00     0.001 A 
HETATM   35  C   UNL     1      29.128  43.074  53.042  1.00  0.00     0.013 A 
ENDBRANCH  26  30
ENDBRANCH   2  22
TORSDOF 4
ENDMDL
MODEL 4
REMARK VINA RESULT:      -9.7      5.935     10.718
REMARK  4 active torsions:
REMARK  status: ('A' for Active; 'I' for Inactive)
REMARK    1  A    between atoms: C_5  and  N_6 
REMARK       I    between atoms: N_6  and  C_7 
REMARK    2  A    between atoms: C_7  and  C_8 
REMARK    3  A    between atoms: C_12  and  C_13 
REMARK    4  A    between atoms: N_24  and  C_25 
ROOT
HETATM    1  N   UNL     1      17.635  51.019  48.098  1.00  0.00    -0.348 N 
HETATM    2  C   UNL     1      18.329  50.894  49.272  1.00  0.00     0.257 C 
HETATM    3  O   UNL     1      17.819  51.092  50.371  1.00  0.00    -0.267 OA
HETATM    4  H   UNL     1      18.131  50.864  47.220  1.00  0.00     0.163 HD
ENDROOT
BRANCH   1   5
HETATM    5  C   UNL     1      16.201  51.205  48.053  1.00  0.00     0.122 C 
HETATM    6  C   UNL     1      15.788  52.483  47.291  1.00  0.00     0.039 C 
HETATM    7  C   UNL     1      15.708  52.347  45.737  1.00  0.00    -0.040 C 
HETATM    8  C   UNL     1      17.111  52.185  45.119  1.00  0.00     0.015 C 
HETATM    9  C   UNL     1      15.100  53.649  45.172  1.00  0.00     0.015 C 
HETATM   10  C   UNL     1      14.798  51.151  45.309  1.00  0.00     0.069 C 
HETATM   11  C   UNL     1      14.996  49.958  46.184  1.00  0.00     0.047 A 
HETATM   12  C   UNL     1      15.624  49.992  47.416  1.00  0.00     0.008 A 
HETATM   13  N   UNL     1      14.633  48.635  45.952  1.00  0.00    -0.238 N 
HETATM   14  C   UNL     1      15.625  48.666  47.857  1.00  0.00     0.150 A 
HETATM   15  N   UNL     1      15.065  47.842  46.979  1.00  0.00    -0.179 NA
BRANCH  13  16
HETATM   16  C   UNL     1      13.923  48.023  44.870  1.00  0.00     0.058 A 
HETATM   17  C   UNL     1      12.762  47.283  45.163  1.00  0.00     0.031 A 
HETATM   18  C   UNL     1      12.035  46.656  44.149  1.00  0.00     0.002 A 
HETATM   19  C   UNL     1      12.452  46.766  42.827  1.00  0.00     0.000 A 
HETATM   20  C   UNL     1      13.589  47.511  42.521  1.00  0.00     0.002 A 
HETATM   21  C   UNL     1      14.321  48.141  43.535  1.00  0.00     0.031 A 
ENDBRANCH  13  16
ENDBRANCH   1   5
BRANCH   2  22
HETATM   22  C   UNL     1      19.739  50.423  49.133  1.00  0.00     0.100 A 
HETATM   23  C   UNL     1      20.210  49.066  49.540  1.00  0.00     0.261 A 
HETATM   24  O   UNL     1      19.440  48.203  49.958  1.00  0.00    -0.267 OA
HETATM   25  N   UNL     1      21.560  48.825  49.441  1.00  0.00    -0.322 N 
HETATM   26  C   UNL     1      22.484  49.742  48.997  1.00  0.00     0.045 A 
HETATM   27  H   UNL     1      21.868  47.900  49.717  1.00  0.00     0.169 HD
HETATM   28  C   UNL     1      22.062  50.956  48.605  1.00  0.00     0.031 A 
HETATM   29  C   UNL     1      20.657  51.295  48.673  1.00  0.00     0.025 A 
BRANCH  26  30
HETATM   30  C   UNL     1      23.910  49.372  49.012  1.00  0.00    -0.009 A 
HETATM   31  C   UNL     1      24.846  50.138  48.298  1.00  0.00     0.013 A 
HETATM   32  C   UNL     1      26.200  49.793  48.298  1.00  0.00     0.001 A 
HETATM   33  C   UNL     1      26.634  48.678  49.011  1.00  0.00     0.000 A 
HETATM   34  C   UNL     1      25.718  47.910  49.726  1.00  0.00     0.001 A 
HETATM   35  C   UNL     1      24.364  48.255  49.729  1.00  0.00     0.013 A 
ENDBRANCH  26  30
ENDBRANCH   2  22
TORSDOF 4
ENDMDL
MODEL 5
REMARK VINA RESULT:      -9.6      2.716      4.629
REMARK  4 active torsions:
REMARK  status: ('A' for Active; 'I' for Inactive)
REMARK    1  A    between atoms: C_5  and  N_6 
REMARK       I    between atoms: N_6  and  C_7 
REMARK    2  A    between atoms: C_7  and  C_8 
REMARK    3  A    between atoms: C_12  and  C_13 
REMARK    4  A    between atoms: N_24  and  C_25 
ROOT
HETATM    1  N   UNL     1      22.572  47.249  48.890  1.00  0.00    -0.348 N 
HETATM    2  C   UNL     1      23.343  46.117  48.905  1.00  0.00     0.257 C 
HETATM    3  O   UNL     1      23.359  45.311  47.979  1.00  0.00    -0.267 OA
HETATM    4  H   UNL     1      22.590  47.861  49.706  1.00  0.00     0.163 HD
ENDROOT
BRANCH   1   5
HETATM    5  C   UNL     1      21.860  47.695  47.712  1.00  0.00     0.122 C 
HETATM    6  C   UNL     1      20.941  46.604  47.121  1.00  0.00     0.039 C 
HETATM    7  C   UNL     1      19.534  46.473  47.786  1.00  0.00    -0.040 C 
HETATM    8  C   UNL     1      19.643  45.897  49.212  1.00  0.00     0.015 C 
HETATM    9  C   UNL     1      18.697  45.481  46.949  1.00  0.00     0.015 C 
HETATM   10  C   UNL     1      18.783  47.843  47.824  1.00  0.00     0.069 C 
HETATM   11  C   UNL     1      19.699  48.972  48.161  1.00  0.00     0.047 A 
HETATM   12  C   UNL     1      21.079  48.898  48.105  1.00  0.00     0.008 A 
HETATM   13  N   UNL     1      19.381  50.255  48.597  1.00  0.00    -0.238 N 
HETATM   14  C   UNL     1      21.526  50.150  48.536  1.00  0.00     0.150 A 
HETATM   15  N   UNL     1      20.524  50.958  48.863  1.00  0.00    -0.179 NA
BRANCH  13  16
HETATM   16  C   UNL     1      18.121  50.902  48.795  1.00  0.00     0.058 A 
HETATM   17  C   UNL     1      18.062  52.006  49.667  1.00  0.00     0.031 A 
HETATM   18  C   UNL     1      16.857  52.669  49.907  1.00  0.00     0.002 A 
HETATM   19  C   UNL     1      15.695  52.247  49.271  1.00  0.00     0.000 A 
HETATM   20  C   UNL     1      15.742  51.169  48.390  1.00  0.00     0.002 A 
HETATM   21  C   UNL     1      16.948  50.500  48.149  1.00  0.00     0.031 A 
ENDBRANCH  13  16
ENDBRANCH   1   5
BRANCH   2  22
HETATM   22  C   UNL     1      24.228  45.963  50.097  1.00  0.00     0.100 A 
HETATM   23  C   UNL     1      24.994  47.084  50.720  1.00  0.00     0.261 A 
HETATM   24  O   UNL     1      24.889  48.245  50.329  1.00  0.00    -0.267 OA
HETATM   25  N   UNL     1      25.843  46.754  51.750  1.00  0.00    -0.322 N 
HETATM   26  C   UNL     1      26.025  45.480  52.232  1.00  0.00     0.045 A 
HETATM   27  H   UNL     1      26.354  47.523  52.166  1.00  0.00     0.169 HD
HETATM   28  C   UNL     1      25.319  44.471  51.692  1.00  0.00     0.031 A 
HETATM   29  C   UNL     1      24.399  44.727  50.606  1.00  0.00     0.025 A 
BRANCH  26  30
HETATM   30  C   UNL     1      27.023  45.262  53.293  1.00  0.00    -0.009 A 
HETATM   31  C   UNL     1      27.800  44.092  53.303  1.00  0.00     0.013 A 
HETATM   32  C   UNL     1      28.744  43.870  54.307  1.00  0.00     0.001 A 
HETATM   33  C   UNL     1      28.924  44.815  55.315  1.00  0.00     0.000 A 
HETATM   34  C   UNL     1      28.163  45.982  55.318  1.00  0.00     0.001 A 
HETATM   35  C   UNL     1      27.219  46.206  54.312  1.00  0.00     0.013 A 
ENDBRANCH  26  30
ENDBRANCH   2  22
TORSDOF 4
ENDMDL
MODEL 6
REMARK VINA RESULT:      -9.5      5.668      9.648
REMARK  4 active torsions:
REMARK  status: ('A' for Active; 'I' for Inactive)
REMARK    1  A    between atoms: C_5  and  N_6 
REMARK       I    between atoms: N_6  and  C_7 
REMARK    2  A    between atoms: C_7  and  C_8 
REMARK    3  A    between atoms: C_12  and  C_13 
REMARK    4  A    between atoms: N_24  and  C_25 
ROOT
HETATM    1  N   UNL     1      18.265  49.567  48.685  1.00  0.00    -0.348 N 
HETATM    2  C   UNL     1      18.924  48.378  48.851  1.00  0.00     0.257 C 
HETATM    3  O   UNL     1      18.357  47.290  48.806  1.00  0.00    -0.267 OA
HETATM    4  H   UNL     1      18.797  50.434  48.761  1.00  0.00     0.163 HD
ENDROOT
BRANCH   1   5
HETATM    5  C   UNL     1      16.886  49.642  48.252  1.00  0.00     0.122 C 
HETATM    6  C   UNL     1      16.035  50.585  49.130  1.00  0.00     0.039 C 
HETATM    7  C   UNL     1      16.117  52.103  48.767  1.00  0.00    -0.040 C 
HETATM    8  C   UNL     1      17.499  52.687  49.120  1.00  0.00     0.015 C 
HETATM    9  C   UNL     1      15.066  52.856  49.612  1.00  0.00     0.015 C 
HETATM   10  C   UNL     1      15.806  52.351  47.256  1.00  0.00     0.069 C 
HETATM   11  C   UNL     1      16.419  51.310  46.381  1.00  0.00     0.047 A 
HETATM   12  C   UNL     1      16.899  50.095  46.836  1.00  0.00     0.008 A 
HETATM   13  N   UNL     1      16.646  51.344  45.008  1.00  0.00    -0.238 N 
HETATM   14  C   UNL     1      17.414  49.462  45.702  1.00  0.00     0.150 A 
HETATM   15  N   UNL     1      17.298  50.211  44.610  1.00  0.00    -0.179 NA
BRANCH  13  16
HETATM   16  C   UNL     1      16.319  52.325  44.019  1.00  0.00     0.058 A 
HETATM   17  C   UNL     1      17.324  52.738  43.124  1.00  0.00     0.031 A 
HETATM   18  C   UNL     1      17.065  53.700  42.146  1.00  0.00     0.002 A 
HETATM   19  C   UNL     1      15.795  54.257  42.040  1.00  0.00     0.000 A 
HETATM   20  C   UNL     1      14.785  53.844  42.906  1.00  0.00     0.002 A 
HETATM   21  C   UNL     1      15.042  52.880  43.890  1.00  0.00     0.031 A 
ENDBRANCH  13  16
ENDBRANCH   1   5
BRANCH   2  22
HETATM   22  C   UNL     1      20.405  48.487  49.017  1.00  0.00     0.100 A 
HETATM   23  C   UNL     1      21.094  49.675  49.603  1.00  0.00     0.261 A 
HETATM   24  O   UNL     1      20.474  50.632  50.062  1.00  0.00    -0.267 OA
HETATM   25  N   UNL     1      22.469  49.659  49.590  1.00  0.00    -0.322 N 
HETATM   26  C   UNL     1      23.231  48.634  49.082  1.00  0.00     0.045 A 
HETATM   27  H   UNL     1      22.926  50.469  49.993  1.00  0.00     0.169 HD
HETATM   28  C   UNL     1      22.615  47.551  48.578  1.00  0.00     0.031 A 
HETATM   29  C   UNL     1      21.171  47.481  48.553  1.00  0.00     0.025 A 
BRANCH  26  30
HETATM   30  C   UNL     1      24.697  48.783  49.069  1.00  0.00    -0.009 A 
HETATM   31  C   UNL     1      25.507  47.856  49.744  1.00  0.00     0.013 A 
HETATM   32  C   UNL     1      26.898  47.990  49.746  1.00  0.00     0.001 A 
HETATM   33  C   UNL     1      27.495  49.053  49.072  1.00  0.00     0.000 A 
HETATM   34  C   UNL     1      26.704  49.979  48.394  1.00  0.00     0.001 A 
HETATM   35  C   UNL     1      25.314  49.844  48.390  1.00  0.00     0.013 A 
ENDBRANCH  26  30
ENDBRANCH   2  22
TORSDOF 4
ENDMDL
MODEL 7
REMARK VINA RESULT:      -9.3      9.830     13.280
REMARK  4 active torsions:
REMARK  status: ('A' for Active; 'I' for Inactive)
REMARK    1  A    between atoms: C_5  and  N_6 
REMARK       I    between atoms: N_6  and  C_7 
REMARK    2  A    between atoms: C_7  and  C_8 
REMARK    3  A    between atoms: C_12  and  C_13 
REMARK    4  A    between atoms: N_24  and  C_25 
ROOT
HETATM    1  N   UNL     1      28.724  48.227  39.524  1.00  0.00    -0.348 N 
HETATM    2  C   UNL     1      28.497  46.924  39.167  1.00  0.00     0.257 C 
HETATM    3  O   UNL     1      29.058  46.387  38.217  1.00  0.00    -0.267 OA
HETATM    4  H   UNL     1      28.202  48.615  40.311  1.00  0.00     0.163 HD
ENDROOT
BRANCH   1   5
HETATM    5  C   UNL     1      29.779  49.026  38.939  1.00  0.00     0.122 C 
HETATM    6  C   UNL     1      29.302  50.436  38.528  1.00  0.00     0.039 C 
HETATM    7  C   UNL     1      29.280  51.501  39.671  1.00  0.00    -0.040 C 
HETATM    8  C   UNL     1      28.167  51.199  40.693  1.00  0.00     0.015 C 
HETATM    9  C   UNL     1      28.970  52.876  39.040  1.00  0.00     0.015 C 
HETATM   10  C   UNL     1      30.659  51.593  40.400  1.00  0.00     0.069 C 
HETATM   11  C   UNL     1      31.274  50.248  40.604  1.00  0.00     0.047 A 
HETATM   12  C   UNL     1      30.874  49.101  39.941  1.00  0.00     0.008 A 
HETATM   13  N   UNL     1      32.302  49.878  41.466  1.00  0.00    -0.238 N 
HETATM   14  C   UNL     1      31.679  48.085  40.461  1.00  0.00     0.150 A 
HETATM   15  N   UNL     1      32.513  48.529  41.395  1.00  0.00    -0.179 NA
BRANCH  13  16
HETATM   16  C   UNL     1      33.114  50.650  42.356  1.00  0.00     0.058 A 
HETATM   17  C   UNL     1      34.469  50.848  42.027  1.00  0.00     0.031 A 
HETATM   18  C   UNL     1      35.312  51.583  42.864  1.00  0.00     0.002 A 
HETATM   19  C   UNL     1      34.812  52.140  44.036  1.00  0.00     0.000 A 
HETATM   20  C   UNL     1      33.469  51.968  44.364  1.00  0.00     0.002 A 
HETATM   21  C   UNL     1      32.621  51.230  43.528  1.00  0.00     0.031 A 
ENDBRANCH  13  16
ENDBRANCH   1   5
BRANCH   2  22
HETATM   22  C   UNL     1      27.572  46.168  40.064  1.00  0.00     0.100 A 
HETATM   23  C   UNL     1      26.476  46.800  40.857  1.00  0.00     0.261 A 
HETATM   24  O   UNL     1      26.211  47.998  40.770  1.00  0.00    -0.267 OA
HETATM   25  N   UNL     1      25.780  45.979  41.712  1.00  0.00    -0.322 N 
HETATM   26  C   UNL     1      26.028  44.636  41.875  1.00  0.00     0.045 A 
HETATM   27  H   UNL     1      25.038  46.418  42.243  1.00  0.00     0.169 HD
HETATM   28  C   UNL     1      26.995  44.057  41.144  1.00  0.00     0.031 A 
HETATM   29  C   UNL     1      27.776  44.846  40.217  1.00  0.00     0.025 A 
BRANCH  26  30
HETATM   30  C   UNL     1      25.250  43.892  42.881  1.00  0.00    -0.009 A 
HETATM   31  C   UNL     1      24.179  44.511  43.545  1.00  0.00     0.013 A 
HETATM   32  C   UNL     1      23.438  43.820  44.507  1.00  0.00     0.001 A 
HETATM   33  C   UNL     1      23.759  42.500  44.816  1.00  0.00     0.000 A 
HETATM   34  C   UNL     1      24.817  41.871  44.163  1.00  0.00     0.001 A 
HETATM   35  C   UNL     1      25.557  42.561  43.200  1.00  0.00     0.013 A 
ENDBRANCH  26  30
ENDBRANCH   2  22
TORSDOF 4
ENDMDL
MODEL 8
REMARK VINA RESULT:      -9.3      5.647     12.576
REMARK  4 active torsions:
REMARK  status: ('A' for Active; 'I' for Inactive)
REMARK    1  A    between atoms: C_5  and  N_6 
REMARK       I    between atoms: N_6  and  C_7 
REMARK    2  A    between atoms: C_7  and  C_8 
REMARK    3  A    between atoms: C_12  and  C_13 
REMARK    4  A    between atoms: N_24  and  C_25 
ROOT
HETATM    1  N   UNL     1      19.260  48.401  47.773  1.00  0.00    -0.348 N 
HETATM    2  C   UNL     1      18.293  49.358  47.928  1.00  0.00     0.257 C 
HETATM    3  O   UNL     1      17.813  49.649  49.020  1.00  0.00    -0.267 OA
HETATM    4  H   UNL     1      19.594  48.194  46.832  1.00  0.00     0.163 HD
ENDROOT
BRANCH   1   5
HETATM    5  C   UNL     1      19.939  47.787  48.894  1.00  0.00     0.122 C 
HETATM    6  C   UNL     1      20.171  46.273  48.694  1.00  0.00     0.039 C 
HETATM    7  C   UNL     1      21.434  45.888  47.860  1.00  0.00    -0.040 C 
HETATM    8  C   UNL     1      21.258  46.265  46.375  1.00  0.00     0.015 C 
HETATM    9  C   UNL     1      21.607  44.355  47.931  1.00  0.00     0.015 C 
HETATM   10  C   UNL     1      22.727  46.558  48.427  1.00  0.00     0.069 C 
HETATM   11  C   UNL     1      22.482  47.965  48.861  1.00  0.00     0.047 A 
HETATM   12  C   UNL     1      21.227  48.508  49.071  1.00  0.00     0.008 A 
HETATM   13  N   UNL     1      23.406  48.976  49.110  1.00  0.00    -0.238 N 
HETATM   14  C   UNL     1      21.463  49.840  49.419  1.00  0.00     0.150 A 
HETATM   15  N   UNL     1      22.758  50.140  49.415  1.00  0.00    -0.179 NA
BRANCH  13  16
HETATM   16  C   UNL     1      24.836  48.976  49.093  1.00  0.00     0.058 A 
HETATM   17  C   UNL     1      25.516  47.979  49.819  1.00  0.00     0.031 A 
HETATM   18  C   UNL     1      26.912  47.937  49.848  1.00  0.00     0.002 A 
HETATM   19  C   UNL     1      27.649  48.883  49.145  1.00  0.00     0.000 A 
HETATM   20  C   UNL     1      26.989  49.864  48.407  1.00  0.00     0.002 A 
HETATM   21  C   UNL     1      25.590  49.910  48.377  1.00  0.00     0.031 A 
ENDBRANCH  13  16
ENDBRANCH   1   5
BRANCH   2  22
HETATM   22  C   UNL     1      17.909  50.086  46.682  1.00  0.00     0.100 A 
HETATM   23  C   UNL     1      17.806  49.444  45.338  1.00  0.00     0.261 A 
HETATM   24  O   UNL     1      17.964  48.235  45.176  1.00  0.00    -0.267 OA
HETATM   25  N   UNL     1      17.541  50.275  44.275  1.00  0.00    -0.322 N 
HETATM   26  C   UNL     1      17.366  51.635  44.375  1.00  0.00     0.045 A 
HETATM   27  H   UNL     1      17.471  49.827  43.369  1.00  0.00     0.169 HD
HETATM   28  C   UNL     1      17.432  52.214  45.586  1.00  0.00     0.031 A 
HETATM   29  C   UNL     1      17.704  51.415  46.761  1.00  0.00     0.025 A 
BRANCH  26  30
HETATM   30  C   UNL     1      17.159  52.413  43.141  1.00  0.00    -0.009 A 
HETATM   31  C   UNL     1      16.210  53.447  43.109  1.00  0.00     0.013 A 
HETATM   32  C   UNL     1      15.999  54.187  41.943  1.00  0.00     0.001 A 
HETATM   33  C   UNL     1      16.734  53.902  40.795  1.00  0.00     0.000 A 
HETATM   34  C   UNL     1      17.682  52.881  40.812  1.00  0.00     0.001 A 
HETATM   35  C   UNL     1      17.896  52.142  41.978  1.00  0.00     0.013 A 
ENDBRANCH  26  30
ENDBRANCH   2  22
TORSDOF 4
ENDMDL
MODEL 9
REMARK VINA RESULT:      -9.0      6.144      9.249
REMARK  4 active torsions:
REMARK  status: ('A' for Active; 'I' for Inactive)
REMARK    1  A    between atoms: C_5  and  N_6 
REMARK       I    between atoms: N_6  and  C_7 
REMARK    2  A    between atoms: C_7  and  C_8 
REMARK    3  A    between atoms: C_12  and  C_13 
REMARK    4  A    between atoms: N_24  and  C_25 
ROOT
HETATM    1  N   UNL     1      26.629  40.863  48.617  1.00  0.00    -0.348 N 
HETATM    2  C   UNL     1      26.106  41.853  49.407  1.00  0.00     0.257 C 
HETATM    3  O   UNL     1      24.970  42.292  49.257  1.00  0.00    -0.267 OA
HETATM    4  H   UNL     1      27.591  40.565  48.783  1.00  0.00     0.163 HD
ENDROOT
BRANCH   1   5
HETATM    5  C   UNL     1      25.832  40.116  47.668  1.00  0.00     0.122 C 
HETATM    6  C   UNL     1      25.783  40.781  46.276  1.00  0.00     0.039 C 
HETATM    7  C   UNL     1      26.992  40.472  45.336  1.00  0.00    -0.040 C 
HETATM    8  C   UNL     1      28.279  41.152  45.842  1.00  0.00     0.015 C 
HETATM    9  C   UNL     1      26.677  41.054  43.941  1.00  0.00     0.015 C 
HETATM   10  C   UNL     1      27.228  38.934  45.188  1.00  0.00     0.069 C 
HETATM   11  C   UNL     1      27.046  38.214  46.482  1.00  0.00     0.047 A 
HETATM   12  C   UNL     1      26.415  38.751  47.590  1.00  0.00     0.008 A 
HETATM   13  N   UNL     1      27.465  36.935  46.837  1.00  0.00    -0.238 N 
HETATM   14  C   UNL     1      26.507  37.763  48.573  1.00  0.00     0.150 A 
HETATM   15  N   UNL     1      27.159  36.686  48.146  1.00  0.00    -0.179 NA
BRANCH  13  16
HETATM   16  C   UNL     1      28.124  35.911  46.084  1.00  0.00     0.058 A 
HETATM   17  C   UNL     1      27.543  34.630  46.042  1.00  0.00     0.031 A 
HETATM   18  C   UNL     1      28.148  33.590  45.332  1.00  0.00     0.002 A 
HETATM   19  C   UNL     1      29.336  33.817  44.647  1.00  0.00     0.000 A 
HETATM   20  C   UNL     1      29.911  35.086  44.665  1.00  0.00     0.002 A 
HETATM   21  C   UNL     1      29.309  36.131  45.376  1.00  0.00     0.031 A 
ENDBRANCH  13  16
ENDBRANCH   1   5
BRANCH   2  22
HETATM   22  C   UNL     1      26.988  42.314  50.520  1.00  0.00     0.100 A 
HETATM   23  C   UNL     1      27.939  41.429  51.254  1.00  0.00     0.261 A 
HETATM   24  O   UNL     1      28.117  40.254  50.938  1.00  0.00    -0.267 OA
HETATM   25  N   UNL     1      28.604  41.986  52.321  1.00  0.00    -0.322 N 
HETATM   26  C   UNL     1      28.447  43.285  52.743  1.00  0.00     0.045 A 
HETATM   27  H   UNL     1      29.249  41.376  52.809  1.00  0.00     0.169 HD
HETATM   28  C   UNL     1      27.612  44.094  52.070  1.00  0.00     0.031 A 
HETATM   29  C   UNL     1      26.874  43.592  50.932  1.00  0.00     0.025 A 
BRANCH  26  30
HETATM   30  C   UNL     1      29.171  43.728  53.948  1.00  0.00    -0.009 A 
HETATM   31  C   UNL     1      28.788  44.906  54.608  1.00  0.00     0.013 A 
HETATM   32  C   UNL     1      29.469  45.341  55.747  1.00  0.00     0.001 A 
HETATM   33  C   UNL     1      30.542  44.602  56.241  1.00  0.00     0.000 A 
HETATM   34  C   UNL     1      30.932  43.429  55.598  1.00  0.00     0.001 A 
HETATM   35  C   UNL     1      30.249  42.992  54.460  1.00  0.00     0.013 A 
ENDBRANCH  26  30
ENDBRANCH   2  22
TORSDOF 4
ENDMDL
MODEL 10
REMARK VINA RESULT:      -9.0     12.613     14.396
REMARK  4 active torsions:
REMARK  status: ('A' for Active; 'I' for Inactive)
REMARK    1  A    between atoms: C_5  and  N_6 
REMARK       I    between atoms: N_6  and  C_7 
REMARK    2  A    between atoms: C_7  and  C_8 
REMARK    3  A    between atoms: C_12  and  C_13 
REMARK    4  A    between atoms: N_24  and  C_25 
ROOT
HETATM    1  N   UNL     1      32.855  51.914  42.560  1.00  0.00    -0.348 N 
HETATM    2  C   UNL     1      33.741  51.851  43.602  1.00  0.00     0.257 C 
HETATM    3  O   UNL     1      33.389  51.875  44.778  1.00  0.00    -0.267 OA
HETATM    4  H   UNL     1      33.221  51.915  41.608  1.00  0.00     0.163 HD
ENDROOT
BRANCH   1   5
HETATM    5  C   UNL     1      31.422  51.819  42.745  1.00  0.00     0.122 C 
HETATM    6  C   UNL     1      30.648  52.913  41.979  1.00  0.00     0.039 C 
HETATM    7  C   UNL     1      30.362  52.610  40.473  1.00  0.00    -0.040 C 
HETATM    8  C   UNL     1      31.659  52.656  39.640  1.00  0.00     0.015 C 
HETATM    9  C   UNL     1      29.424  53.710  39.931  1.00  0.00     0.015 C 
HETATM   10  C   UNL     1      29.661  51.226  40.286  1.00  0.00     0.069 C 
HETATM   11  C   UNL     1      30.227  50.186  41.194  1.00  0.00     0.047 A 
HETATM   12  C   UNL     1      31.015  50.461  42.297  1.00  0.00     0.008 A 
HETATM   13  N   UNL     1      30.110  48.801  41.117  1.00  0.00    -0.238 N 
HETATM   14  C   UNL     1      31.352  49.211  42.821  1.00  0.00     0.150 A 
HETATM   15  N   UNL     1      30.845  48.211  42.108  1.00  0.00    -0.179 NA
BRANCH  13  16
HETATM   16  C   UNL     1      29.384  47.961  40.215  1.00  0.00     0.058 A 
HETATM   17  C   UNL     1      30.034  47.504  39.053  1.00  0.00     0.031 A 
HETATM   18  C   UNL     1      29.370  46.691  38.131  1.00  0.00     0.002 A 
HETATM   19  C   UNL     1      28.051  46.314  38.362  1.00  0.00     0.000 A 
HETATM   20  C   UNL     1      27.402  46.744  39.517  1.00  0.00     0.002 A 
HETATM   21  C   UNL     1      28.064  47.561  40.442  1.00  0.00     0.031 A 
ENDBRANCH  13  16
ENDBRANCH   1   5
BRANCH   2  22
HETATM   22  C   UNL     1      35.172  51.674  43.213  1.00  0.00     0.100 A 
HETATM   23  C   UNL     1      35.654  50.638  42.253  1.00  0.00     0.261 A 
HETATM   24  O   UNL     1      34.883  49.893  41.651  1.00  0.00    -0.267 OA
HETATM   25  N   UNL     1      37.015  50.540  42.081  1.00  0.00    -0.322 N 
HETATM   26  C   UNL     1      37.939  51.327  42.727  1.00  0.00     0.045 A 
HETATM   27  H   UNL     1      37.330  49.836  41.425  1.00  0.00     0.169 HD
HETATM   28  C   UNL     1      37.509  52.279  43.572  1.00  0.00     0.031 A 
HETATM   29  C   UNL     1      36.093  52.454  43.811  1.00  0.00     0.025 A 
BRANCH  26  30
HETATM   30  C   UNL     1      39.372  51.064  42.501  1.00  0.00    -0.009 A 
HETATM   31  C   UNL     1      39.946  49.861  42.941  1.00  0.00     0.013 A 
HETATM   32  C   UNL     1      41.304  49.602  42.739  1.00  0.00     0.001 A 
HETATM   33  C   UNL     1      42.104  50.543  42.096  1.00  0.00     0.000 A 
HETATM   34  C   UNL     1      41.548  51.740  41.651  1.00  0.00     0.001 A 
HETATM   35  C   UNL     1      40.189  51.999  41.850  1.00  0.00     0.013 A 
ENDBRANCH  26  30
ENDBRANCH   2  22
TORSDOF 4
ENDMDL
