MODEL 1
REMARK VINA RESULT:      -8.2      0.000      0.000
REMARK  8 active torsions:
REMARK  status: ('A' for Active; 'I' for Inactive)
REMARK    1  A    between atoms: O_2  and  C_3 
REMARK    2  A    between atoms: C_6  and  N_7 
REMARK    3  A    between atoms: N_7  and  C_8 
REMARK    4  A    between atoms: C_8  and  C_9 
REMARK    5  A    between atoms: C_9  and  C_10 
REMARK    6  A    between atoms: C_10  and  C_11 
REMARK       I    between atoms: C_11  and  N_12 
REMARK    7  A    between atoms: N_12  and  N_13 
REMARK    8  A    between atoms: C_14  and  C_15 
ROOT
HETATM    1  C   UNL     1      28.097  41.564  51.912  1.00  0.00     0.237 C 
HETATM    2  N   UNL     1      27.330  42.629  52.367  1.00  0.00    -0.247 N 
HETATM    3  O   UNL     1      29.044  41.069  52.516  1.00  0.00    -0.272 OA
HETATM    4  H   UNL     1      26.554  42.987  51.823  1.00  0.00     0.192 HD
ENDROOT
BRANCH   1   5
HETATM    5  C   UNL     1      27.638  41.061  50.555  1.00  0.00     0.106 C 
BRANCH   5   6
HETATM    6  C   UNL     1      26.114  41.038  50.460  1.00  0.00     0.029 C 
BRANCH   6   7
HETATM    7  C   UNL     1      25.598  41.760  49.216  1.00  0.00     0.120 C 
BRANCH   7   8
HETATM    8  N   UNL     1      26.409  42.949  48.992  1.00  0.00    -0.390 N 
HETATM    9  H   UNL     1      26.810  42.990  48.056  1.00  0.00     0.159 HD
BRANCH   8  10
HETATM   10  C   UNL     1      25.970  44.203  49.419  1.00  0.00     0.028 A 
HETATM   11  C   UNL     1      26.826  45.260  49.741  1.00  0.00     0.032 A 
HETATM   12  C   UNL     1      26.327  46.528  50.082  1.00  0.00     0.039 A 
HETATM   13  C   UNL     1      24.955  46.766  50.083  1.00  0.00     0.068 A 
HETATM   14  C   UNL     1      24.091  45.730  49.734  1.00  0.00     0.039 A 
HETATM   15  C   UNL     1      24.595  44.472  49.390  1.00  0.00     0.032 A 
BRANCH  13  16
HETATM   16  O   UNL     1      24.338  47.947  50.392  1.00  0.00    -0.356 OA
HETATM   17  C   UNL     1      23.601  48.577  49.351  1.00  0.00     0.210 C 
ENDBRANCH  13  16
ENDBRANCH   8  10
ENDBRANCH   7   8
ENDBRANCH   6   7
ENDBRANCH   5   6
ENDBRANCH   1   5
BRANCH   2  18
HETATM   18  N   UNL     1      27.645  43.208  53.561  1.00  0.00    -0.184 NA
HETATM   19  C   UNL     1      28.391  44.263  53.521  1.00  0.00     0.152 C 
BRANCH  19  20
HETATM   20  C   UNL     1      28.765  44.905  54.764  1.00  0.00     0.011 A 
HETATM   21  C   UNL     1      29.779  44.503  55.692  1.00  0.00     0.004 A 
HETATM   22  C   UNL     1      29.772  45.424  56.743  1.00  0.00     0.043 A 
HETATM   23  C   UNL     1      30.709  43.442  55.741  1.00  0.00     0.014 A 
HETATM   24  C   UNL     1      30.641  45.337  57.837  1.00  0.00     0.030 A 
HETATM   25  N   UNL     1      28.794  46.350  56.465  1.00  0.00    -0.364 N 
HETATM   26  C   UNL     1      31.550  44.276  57.859  1.00  0.00     0.002 A 
HETATM   27  C   UNL     1      31.586  43.342  56.828  1.00  0.00     0.001 A 
HETATM   28  H   UNL     1      28.563  47.137  57.055  1.00  0.00     0.165 HD
HETATM   29  C   UNL     1      28.185  46.050  55.280  1.00  0.00     0.102 A 
ENDBRANCH  19  20
ENDBRANCH   2  18
TORSDOF 8
ENDMDL
MODEL 2
REMARK VINA RESULT:      -8.2      3.937      6.181
REMARK  8 active torsions:
REMARK  status: ('A' for Active; 'I' for Inactive)
REMARK    1  A    between atoms: O_2  and  C_3 
REMARK    2  A    between atoms: C_6  and  N_7 
REMARK    3  A    between atoms: N_7  and  C_8 
REMARK    4  A    between atoms: C_8  and  C_9 
REMARK    5  A    between atoms: C_9  and  C_10 
REMARK    6  A    between atoms: C_10  and  C_11 
REMARK       I    between atoms: C_11  and  N_12 
REMARK    7  A    between atoms: N_12  and  N_13 
REMARK    8  A    between atoms: C_14  and  C_15 
ROOT
HETATM    1  C   UNL     1      25.348  47.583  50.619  1.00  0.00     0.237 C 
HETATM    2  N   UNL     1      25.232  46.980  51.865  1.00  0.00    -0.247 N 
HETATM    3  O   UNL     1      26.384  48.047  50.154  1.00  0.00    -0.272 OA
HETATM    4  H   UNL     1      24.347  46.608  52.189  1.00  0.00     0.192 HD
ENDROOT
BRANCH   1   5
HETATM    5  C   UNL     1      24.028  47.615  49.870  1.00  0.00     0.106 C 
BRANCH   5   6
HETATM    6  C   UNL     1      24.054  48.649  48.745  1.00  0.00     0.029 C 
BRANCH   6   7
HETATM    7  C   UNL     1      23.274  49.913  49.099  1.00  0.00     0.120 C 
BRANCH   7   8
HETATM    8  N   UNL     1      22.067  49.535  49.822  1.00  0.00    -0.390 N 
HETATM    9  H   UNL     1      22.227  49.382  50.816  1.00  0.00     0.159 HD
BRANCH   8  10
HETATM   10  C   UNL     1      20.860  50.197  49.591  1.00  0.00     0.028 A 
HETATM   11  C   UNL     1      19.668  49.896  50.255  1.00  0.00     0.032 A 
HETATM   12  C   UNL     1      18.503  50.652  50.046  1.00  0.00     0.039 A 
HETATM   13  C   UNL     1      18.519  51.743  49.181  1.00  0.00     0.068 A 
HETATM   14  C   UNL     1      19.709  52.073  48.536  1.00  0.00     0.039 A 
HETATM   15  C   UNL     1      20.866  51.320  48.753  1.00  0.00     0.032 A 
BRANCH  13  16
HETATM   16  O   UNL     1      17.463  52.561  48.889  1.00  0.00    -0.356 OA
HETATM   17  C   UNL     1      16.628  52.943  49.975  1.00  0.00     0.210 C 
ENDBRANCH  13  16
ENDBRANCH   8  10
ENDBRANCH   7   8
ENDBRANCH   6   7
ENDBRANCH   5   6
ENDBRANCH   1   5
BRANCH   2  18
HETATM   18  N   UNL     1      26.333  46.907  52.668  1.00  0.00    -0.184 NA
HETATM   19  C   UNL     1      26.316  46.014  53.603  1.00  0.00     0.152 C 
BRANCH  19  20
HETATM   20  C   UNL     1      27.455  45.907  54.491  1.00  0.00     0.011 A 
HETATM   21  C   UNL     1      28.446  44.873  54.530  1.00  0.00     0.004 A 
HETATM   22  C   UNL     1      29.342  45.193  55.553  1.00  0.00     0.043 A 
HETATM   23  C   UNL     1      28.672  43.693  53.790  1.00  0.00     0.014 A 
HETATM   24  C   UNL     1      30.446  44.396  55.876  1.00  0.00     0.030 A 
HETATM   25  N   UNL     1      28.914  46.374  56.114  1.00  0.00    -0.364 N 
HETATM   26  C   UNL     1      30.645  43.232  55.128  1.00  0.00     0.002 A 
HETATM   27  C   UNL     1      29.774  42.884  54.100  1.00  0.00     0.001 A 
HETATM   28  H   UNL     1      29.372  46.847  56.881  1.00  0.00     0.165 HD
HETATM   29  C   UNL     1      27.784  46.812  55.484  1.00  0.00     0.102 A 
ENDBRANCH  19  20
ENDBRANCH   2  18
TORSDOF 8
ENDMDL
MODEL 3
REMARK VINA RESULT:      -8.2      2.546      7.726
REMARK  8 active torsions:
REMARK  status: ('A' for Active; 'I' for Inactive)
REMARK    1  A    between atoms: O_2  and  C_3 
REMARK    2  A    between atoms: C_6  and  N_7 
REMARK    3  A    between atoms: N_7  and  C_8 
REMARK    4  A    between atoms: C_8  and  C_9 
REMARK    5  A    between atoms: C_9  and  C_10 
REMARK    6  A    between atoms: C_10  and  C_11 
REMARK       I    between atoms: C_11  and  N_12 
REMARK    7  A    between atoms: N_12  and  N_13 
REMARK    8  A    between atoms: C_14  and  C_15 
ROOT
HETATM    1  C   UNL     1      26.905  43.028  50.087  1.00  0.00     0.237 C 
HETATM    2  N   UNL     1      26.951  44.270  50.707  1.00  0.00    -0.247 N 
HETATM    3  O   UNL     1      26.877  42.846  48.874  1.00  0.00    -0.272 OA
HETATM    4  H   UNL     1      26.982  44.352  51.716  1.00  0.00     0.192 HD
ENDROOT
BRANCH   1   5
HETATM    5  C   UNL     1      26.892  41.885  51.087  1.00  0.00     0.106 C 
BRANCH   5   6
HETATM    6  C   UNL     1      28.281  41.266  51.239  1.00  0.00     0.029 C 
BRANCH   6   7
HETATM    7  C   UNL     1      28.717  41.169  52.699  1.00  0.00     0.120 C 
BRANCH   7   8
HETATM    8  N   UNL     1      29.824  42.090  52.921  1.00  0.00    -0.390 N 
HETATM    9  H   UNL     1      30.217  42.459  52.057  1.00  0.00     0.159 HD
BRANCH   8  10
HETATM   10  C   UNL     1      29.749  43.070  53.913  1.00  0.00     0.028 A 
HETATM   11  C   UNL     1      30.708  43.238  54.915  1.00  0.00     0.032 A 
HETATM   12  C   UNL     1      30.626  44.295  55.835  1.00  0.00     0.039 A 
HETATM   13  C   UNL     1      29.590  45.222  55.752  1.00  0.00     0.068 A 
HETATM   14  C   UNL     1      28.645  45.085  54.738  1.00  0.00     0.039 A 
HETATM   15  C   UNL     1      28.735  44.033  53.821  1.00  0.00     0.032 A 
BRANCH  13  16
HETATM   16  O   UNL     1      29.394  46.294  56.577  1.00  0.00    -0.356 OA
HETATM   17  C   UNL     1      28.762  46.037  57.825  1.00  0.00     0.210 C 
ENDBRANCH  13  16
ENDBRANCH   8  10
ENDBRANCH   7   8
ENDBRANCH   6   7
ENDBRANCH   5   6
ENDBRANCH   1   5
BRANCH   2  18
HETATM   18  N   UNL     1      26.936  45.395  49.935  1.00  0.00    -0.184 NA
HETATM   19  C   UNL     1      26.418  46.457  50.458  1.00  0.00     0.152 C 
BRANCH  19  20
HETATM   20  C   UNL     1      26.366  47.672  49.673  1.00  0.00     0.011 A 
HETATM   21  C   UNL     1      25.205  48.389  49.238  1.00  0.00     0.004 A 
HETATM   22  C   UNL     1      25.647  49.494  48.505  1.00  0.00     0.043 A 
HETATM   23  C   UNL     1      23.814  48.209  49.397  1.00  0.00     0.014 A 
HETATM   24  C   UNL     1      24.775  50.421  47.923  1.00  0.00     0.030 A 
HETATM   25  N   UNL     1      27.022  49.451  48.496  1.00  0.00    -0.364 N 
HETATM   26  C   UNL     1      23.403  50.217  48.097  1.00  0.00     0.002 A 
HETATM   27  C   UNL     1      22.927  49.129  48.823  1.00  0.00     0.001 A 
HETATM   28  H   UNL     1      27.616  50.128  48.037  1.00  0.00     0.165 HD
HETATM   29  C   UNL     1      27.464  48.363  49.194  1.00  0.00     0.102 A 
ENDBRANCH  19  20
ENDBRANCH   2  18
TORSDOF 8
ENDMDL
MODEL 4
REMARK VINA RESULT:      -8.0      3.821      5.983
REMARK  8 active torsions:
REMARK  status: ('A' for Active; 'I' for Inactive)
REMARK    1  A    between atoms: O_2  and  C_3 
REMARK    2  A    between atoms: C_6  and  N_7 
REMARK    3  A    between atoms: N_7  and  C_8 
REMARK    4  A    between atoms: C_8  and  C_9 
REMARK    5  A    between atoms: C_9  and  C_10 
REMARK    6  A    between atoms: C_10  and  C_11 
REMARK       I    between atoms: C_11  and  N_12 
REMARK    7  A    between atoms: N_12  and  N_13 
REMARK    8  A    between atoms: C_14  and  C_15 
ROOT
HETATM    1  C   UNL     1      25.533  47.012  50.363  1.00  0.00     0.237 C 
HETATM    2  N   UNL     1      25.558  46.523  51.662  1.00  0.00    -0.247 N 
HETATM    3  O   UNL     1      26.375  46.772  49.503  1.00  0.00    -0.272 OA
HETATM    4  H   UNL     1      24.825  46.752  52.324  1.00  0.00     0.192 HD
ENDROOT
BRANCH   1   5
HETATM    5  C   UNL     1      24.328  47.898  50.103  1.00  0.00     0.106 C 
BRANCH   5   6
HETATM    6  C   UNL     1      23.408  47.287  49.047  1.00  0.00     0.029 C 
BRANCH   6   7
HETATM    7  C   UNL     1      22.402  48.297  48.498  1.00  0.00     0.120 C 
BRANCH   7   8
HETATM    8  N   UNL     1      21.376  48.535  49.505  1.00  0.00    -0.390 N 
HETATM    9  H   UNL     1      21.689  48.327  50.452  1.00  0.00     0.159 HD
BRANCH   8  10
HETATM   10  C   UNL     1      20.589  49.686  49.463  1.00  0.00     0.028 A 
HETATM   11  C   UNL     1      20.861  50.786  48.644  1.00  0.00     0.032 A 
HETATM   12  C   UNL     1      19.987  51.882  48.578  1.00  0.00     0.039 A 
HETATM   13  C   UNL     1      18.806  51.887  49.317  1.00  0.00     0.068 A 
HETATM   14  C   UNL     1      18.507  50.783  50.114  1.00  0.00     0.039 A 
HETATM   15  C   UNL     1      19.379  49.692  50.171  1.00  0.00     0.032 A 
BRANCH  13  16
HETATM   16  O   UNL     1      17.870  52.883  49.344  1.00  0.00    -0.356 OA
HETATM   17  C   UNL     1      16.607  52.562  49.911  1.00  0.00     0.210 C 
ENDBRANCH  13  16
ENDBRANCH   8  10
ENDBRANCH   7   8
ENDBRANCH   6   7
ENDBRANCH   5   6
ENDBRANCH   1   5
BRANCH   2  18
HETATM   18  N   UNL     1      26.602  45.735  52.052  1.00  0.00    -0.184 NA
HETATM   19  C   UNL     1      26.386  44.922  53.034  1.00  0.00     0.152 C 
BRANCH  19  20
HETATM   20  C   UNL     1      27.467  44.076  53.494  1.00  0.00     0.011 A 
HETATM   21  C   UNL     1      28.518  44.410  54.408  1.00  0.00     0.004 A 
HETATM   22  C   UNL     1      29.327  43.278  54.544  1.00  0.00     0.043 A 
HETATM   23  C   UNL     1      28.862  45.567  55.139  1.00  0.00     0.014 A 
HETATM   24  C   UNL     1      30.459  43.246  55.367  1.00  0.00     0.030 A 
HETATM   25  N   UNL     1      28.789  42.295  53.746  1.00  0.00    -0.364 N 
HETATM   26  C   UNL     1      30.776  44.406  56.078  1.00  0.00     0.002 A 
HETATM   27  C   UNL     1      29.991  45.551  55.968  1.00  0.00     0.001 A 
HETATM   28  H   UNL     1      29.168  41.364  53.646  1.00  0.00     0.165 HD
HETATM   29  C   UNL     1      27.672  42.762  53.113  1.00  0.00     0.102 A 
ENDBRANCH  19  20
ENDBRANCH   2  18
TORSDOF 8
ENDMDL
MODEL 5
REMARK VINA RESULT:      -7.8      2.592      6.736
REMARK  8 active torsions:
REMARK  status: ('A' for Active; 'I' for Inactive)
REMARK    1  A    between atoms: O_2  and  C_3 
REMARK    2  A    between atoms: C_6  and  N_7 
REMARK    3  A    between atoms: N_7  and  C_8 
REMARK    4  A    between atoms: C_8  and  C_9 
REMARK    5  A    between atoms: C_9  and  C_10 
REMARK    6  A    between atoms: C_10  and  C_11 
REMARK       I    between atoms: C_11  and  N_12 
REMARK    7  A    between atoms: N_12  and  N_13 
REMARK    8  A    between atoms: C_14  and  C_15 
ROOT
HETATM    1  C   UNL     1      26.034  42.118  50.408  1.00  0.00     0.237 C 
HETATM    2  N   UNL     1      26.732  43.319  50.408  1.00  0.00    -0.247 N 
HETATM    3  O   UNL     1      24.935  41.941  49.891  1.00  0.00    -0.272 OA
HETATM    4  H   UNL     1      27.642  43.398  50.846  1.00  0.00     0.192 HD
ENDROOT
BRANCH   1   5
HETATM    5  C   UNL     1      26.786  41.015  51.132  1.00  0.00     0.106 C 
BRANCH   5   6
HETATM    6  C   UNL     1      28.152  41.500  51.614  1.00  0.00     0.029 C 
BRANCH   6   7
HETATM    7  C   UNL     1      28.389  41.195  53.092  1.00  0.00     0.120 C 
BRANCH   7   8
HETATM    8  N   UNL     1      27.354  41.851  53.879  1.00  0.00    -0.390 N 
HETATM    9  H   UNL     1      27.144  41.364  54.749  1.00  0.00     0.159 HD
BRANCH   8  10
HETATM   10  C   UNL     1      27.359  43.236  54.053  1.00  0.00     0.028 A 
HETATM   11  C   UNL     1      26.212  44.033  53.997  1.00  0.00     0.032 A 
HETATM   12  C   UNL     1      26.264  45.410  54.265  1.00  0.00     0.039 A 
HETATM   13  C   UNL     1      27.468  46.013  54.619  1.00  0.00     0.068 A 
HETATM   14  C   UNL     1      28.614  45.225  54.709  1.00  0.00     0.039 A 
HETATM   15  C   UNL     1      28.555  43.853  54.447  1.00  0.00     0.032 A 
BRANCH  13  16
HETATM   16  O   UNL     1      27.658  47.336  54.907  1.00  0.00    -0.356 OA
HETATM   17  C   UNL     1      26.516  48.072  55.325  1.00  0.00     0.210 C 
ENDBRANCH  13  16
ENDBRANCH   8  10
ENDBRANCH   7   8
ENDBRANCH   6   7
ENDBRANCH   5   6
ENDBRANCH   1   5
BRANCH   2  18
HETATM   18  N   UNL     1      26.166  44.412  49.820  1.00  0.00    -0.184 NA
HETATM   19  C   UNL     1      25.942  45.435  50.579  1.00  0.00     0.152 C 
BRANCH  19  20
HETATM   20  C   UNL     1      25.329  46.614  50.005  1.00  0.00     0.011 A 
HETATM   21  C   UNL     1      25.979  47.787  49.501  1.00  0.00     0.004 A 
HETATM   22  C   UNL     1      24.980  48.657  49.054  1.00  0.00     0.043 A 
HETATM   23  C   UNL     1      27.324  48.196  49.378  1.00  0.00     0.014 A 
HETATM   24  C   UNL     1      25.257  49.910  48.496  1.00  0.00     0.030 A 
HETATM   25  N   UNL     1      23.772  48.038  49.275  1.00  0.00    -0.364 N 
HETATM   26  C   UNL     1      26.598  50.289  48.387  1.00  0.00     0.002 A 
HETATM   27  C   UNL     1      27.617  49.447  48.820  1.00  0.00     0.001 A 
HETATM   28  H   UNL     1      22.871  48.436  49.049  1.00  0.00     0.165 HD
HETATM   29  C   UNL     1      23.969  46.812  49.844  1.00  0.00     0.102 A 
ENDBRANCH  19  20
ENDBRANCH   2  18
TORSDOF 8
ENDMDL
MODEL 6
REMARK VINA RESULT:      -7.8      1.843      2.633
REMARK  8 active torsions:
REMARK  status: ('A' for Active; 'I' for Inactive)
REMARK    1  A    between atoms: O_2  and  C_3 
REMARK    2  A    between atoms: C_6  and  N_7 
REMARK    3  A    between atoms: N_7  and  C_8 
REMARK    4  A    between atoms: C_8  and  C_9 
REMARK    5  A    between atoms: C_9  and  C_10 
REMARK    6  A    between atoms: C_10  and  C_11 
REMARK       I    between atoms: C_11  and  N_12 
REMARK    7  A    between atoms: N_12  and  N_13 
REMARK    8  A    between atoms: C_14  and  C_15 
ROOT
HETATM    1  C   UNL     1      25.662  43.642  51.998  1.00  0.00     0.237 C 
HETATM    2  N   UNL     1      26.918  43.268  52.457  1.00  0.00    -0.247 N 
HETATM    3  O   UNL     1      24.869  44.350  52.612  1.00  0.00    -0.272 OA
HETATM    4  H   UNL     1      27.531  42.687  51.897  1.00  0.00     0.192 HD
ENDROOT
BRANCH   1   5
HETATM    5  C   UNL     1      25.357  43.071  50.624  1.00  0.00     0.106 C 
BRANCH   5   6
HETATM    6  C   UNL     1      25.506  44.134  49.537  1.00  0.00     0.029 C 
BRANCH   6   7
HETATM    7  C   UNL     1      26.762  44.983  49.723  1.00  0.00     0.120 C 
BRANCH   7   8
HETATM    8  N   UNL     1      26.415  46.179  50.480  1.00  0.00    -0.390 N 
HETATM    9  H   UNL     1      27.185  46.532  51.045  1.00  0.00     0.159 HD
BRANCH   8  10
HETATM   10  C   UNL     1      25.695  47.216  49.884  1.00  0.00     0.028 A 
HETATM   11  C   UNL     1      24.306  47.351  49.973  1.00  0.00     0.032 A 
HETATM   12  C   UNL     1      23.643  48.462  49.428  1.00  0.00     0.039 A 
HETATM   13  C   UNL     1      24.366  49.474  48.801  1.00  0.00     0.068 A 
HETATM   14  C   UNL     1      25.753  49.368  48.734  1.00  0.00     0.039 A 
HETATM   15  C   UNL     1      26.408  48.262  49.284  1.00  0.00     0.032 A 
BRANCH  13  16
HETATM   16  O   UNL     1      23.849  50.606  48.233  1.00  0.00    -0.356 OA
HETATM   17  C   UNL     1      22.544  50.506  47.677  1.00  0.00     0.210 C 
ENDBRANCH  13  16
ENDBRANCH   8  10
ENDBRANCH   7   8
ENDBRANCH   6   7
ENDBRANCH   5   6
ENDBRANCH   1   5
BRANCH   2  18
HETATM   18  N   UNL     1      27.320  43.681  53.694  1.00  0.00    -0.184 NA
HETATM   19  C   UNL     1      28.167  44.657  53.738  1.00  0.00     0.152 C 
BRANCH  19  20
HETATM   20  C   UNL     1      28.635  45.122  55.027  1.00  0.00     0.011 A 
HETATM   21  C   UNL     1      29.717  44.604  55.809  1.00  0.00     0.004 A 
HETATM   22  C   UNL     1      29.790  45.368  56.977  1.00  0.00     0.043 A 
HETATM   23  C   UNL     1      30.649  43.558  55.637  1.00  0.00     0.014 A 
HETATM   24  C   UNL     1      30.740  45.138  57.979  1.00  0.00     0.030 A 
HETATM   25  N   UNL     1      28.793  46.313  56.908  1.00  0.00    -0.364 N 
HETATM   26  C   UNL     1      31.650  44.095  57.782  1.00  0.00     0.002 A 
HETATM   27  C   UNL     1      31.607  43.316  56.630  1.00  0.00     0.001 A 
HETATM   28  H   UNL     1      28.607  47.006  57.619  1.00  0.00     0.165 HD
HETATM   29  C   UNL     1      28.095  46.175  55.742  1.00  0.00     0.102 A 
ENDBRANCH  19  20
ENDBRANCH   2  18
TORSDOF 8
ENDMDL
MODEL 7
REMARK VINA RESULT:      -7.7      1.611      2.397
REMARK  8 active torsions:
REMARK  status: ('A' for Active; 'I' for Inactive)
REMARK    1  A    between atoms: O_2  and  C_3 
REMARK    2  A    between atoms: C_6  and  N_7 
REMARK    3  A    between atoms: N_7  and  C_8 
REMARK    4  A    between atoms: C_8  and  C_9 
REMARK    5  A    between atoms: C_9  and  C_10 
REMARK    6  A    between atoms: C_10  and  C_11 
REMARK       I    between atoms: C_11  and  N_12 
REMARK    7  A    between atoms: N_12  and  N_13 
REMARK    8  A    between atoms: C_14  and  C_15 
ROOT
HETATM    1  C   UNL     1      26.100  42.306  51.061  1.00  0.00     0.237 C 
HETATM    2  N   UNL     1      25.512  43.138  52.006  1.00  0.00    -0.247 N 
HETATM    3  O   UNL     1      27.263  41.918  51.090  1.00  0.00    -0.272 OA
HETATM    4  H   UNL     1      24.541  43.415  51.929  1.00  0.00     0.192 HD
ENDROOT
BRANCH   1   5
HETATM    5  C   UNL     1      25.133  41.915  49.957  1.00  0.00     0.106 C 
BRANCH   5   6
HETATM    6  C   UNL     1      24.813  43.105  49.054  1.00  0.00     0.029 C 
BRANCH   6   7
HETATM    7  C   UNL     1      23.319  43.420  49.015  1.00  0.00     0.120 C 
BRANCH   7   8
HETATM    8  N   UNL     1      23.047  44.528  49.921  1.00  0.00    -0.390 N 
HETATM    9  H   UNL     1      23.230  44.302  50.897  1.00  0.00     0.159 HD
BRANCH   8  10
HETATM   10  C   UNL     1      23.459  45.824  49.606  1.00  0.00     0.028 A 
HETATM   11  C   UNL     1      22.763  46.675  48.743  1.00  0.00     0.032 A 
HETATM   12  C   UNL     1      23.177  47.999  48.530  1.00  0.00     0.039 A 
HETATM   13  C   UNL     1      24.289  48.505  49.199  1.00  0.00     0.068 A 
HETATM   14  C   UNL     1      24.974  47.677  50.086  1.00  0.00     0.039 A 
HETATM   15  C   UNL     1      24.553  46.361  50.299  1.00  0.00     0.032 A 
BRANCH  13  16
HETATM   16  O   UNL     1      24.797  49.769  49.086  1.00  0.00    -0.356 OA
HETATM   17  C   UNL     1      25.542  50.059  47.911  1.00  0.00     0.210 C 
ENDBRANCH  13  16
ENDBRANCH   8  10
ENDBRANCH   7   8
ENDBRANCH   6   7
ENDBRANCH   5   6
ENDBRANCH   1   5
BRANCH   2  18
HETATM   18  N   UNL     1      26.269  43.597  53.043  1.00  0.00    -0.184 NA
HETATM   19  C   UNL     1      26.755  44.790  52.929  1.00  0.00     0.152 C 
BRANCH  19  20
HETATM   20  C   UNL     1      27.578  45.317  53.998  1.00  0.00     0.011 A 
HETATM   21  C   UNL     1      28.742  44.725  54.585  1.00  0.00     0.004 A 
HETATM   22  C   UNL     1      29.195  45.594  55.582  1.00  0.00     0.043 A 
HETATM   23  C   UNL     1      29.462  43.531  54.366  1.00  0.00     0.014 A 
HETATM   24  C   UNL     1      30.321  45.331  56.369  1.00  0.00     0.030 A 
HETATM   25  N   UNL     1      28.340  46.672  55.599  1.00  0.00    -0.364 N 
HETATM   26  C   UNL     1      31.014  44.141  56.130  1.00  0.00     0.002 A 
HETATM   27  C   UNL     1      30.593  43.253  55.144  1.00  0.00     0.001 A 
HETATM   28  H   UNL     1      28.423  47.463  56.223  1.00  0.00     0.165 HD
HETATM   29  C   UNL     1      27.368  46.517  54.652  1.00  0.00     0.102 A 
ENDBRANCH  19  20
ENDBRANCH   2  18
TORSDOF 8
ENDMDL
MODEL 8
REMARK VINA RESULT:      -7.6      1.580      4.473
REMARK  8 active torsions:
REMARK  status: ('A' for Active; 'I' for Inactive)
REMARK    1  A    between atoms: O_2  and  C_3 
REMARK    2  A    between atoms: C_6  and  N_7 
REMARK    3  A    between atoms: N_7  and  C_8 
REMARK    4  A    between atoms: C_8  and  C_9 
REMARK    5  A    between atoms: C_9  and  C_10 
REMARK    6  A    between atoms: C_10  and  C_11 
REMARK       I    between atoms: C_11  and  N_12 
REMARK    7  A    between atoms: N_12  and  N_13 
REMARK    8  A    between atoms: C_14  and  C_15 
ROOT
HETATM    1  C   UNL     1      24.769  46.656  50.712  1.00  0.00     0.237 C 
HETATM    2  N   UNL     1      25.260  45.681  51.570  1.00  0.00    -0.247 N 
HETATM    3  O   UNL     1      24.966  47.862  50.829  1.00  0.00    -0.272 OA
HETATM    4  H   UNL     1      25.069  44.699  51.413  1.00  0.00     0.192 HD
ENDROOT
BRANCH   1   5
HETATM    5  C   UNL     1      23.941  46.067  49.584  1.00  0.00     0.106 C 
BRANCH   5   6
HETATM    6  C   UNL     1      23.480  44.649  49.917  1.00  0.00     0.029 C 
BRANCH   6   7
HETATM    7  C   UNL     1      23.259  43.801  48.667  1.00  0.00     0.120 C 
BRANCH   7   8
HETATM    8  N   UNL     1      24.553  43.361  48.161  1.00  0.00    -0.390 N 
HETATM    9  H   UNL     1      25.080  44.106  47.710  1.00  0.00     0.159 HD
BRANCH   8  10
HETATM   10  C   UNL     1      25.378  42.540  48.931  1.00  0.00     0.028 A 
HETATM   11  C   UNL     1      25.219  41.155  49.036  1.00  0.00     0.032 A 
HETATM   12  C   UNL     1      26.131  40.367  49.756  1.00  0.00     0.039 A 
HETATM   13  C   UNL     1      27.237  40.952  50.367  1.00  0.00     0.068 A 
HETATM   14  C   UNL     1      27.425  42.327  50.244  1.00  0.00     0.039 A 
HETATM   15  C   UNL     1      26.517  43.106  49.521  1.00  0.00     0.032 A 
BRANCH  13  16
HETATM   16  O   UNL     1      28.199  40.305  51.092  1.00  0.00    -0.356 OA
HETATM   17  C   UNL     1      28.621  40.928  52.298  1.00  0.00     0.210 C 
ENDBRANCH  13  16
ENDBRANCH   8  10
ENDBRANCH   7   8
ENDBRANCH   6   7
ENDBRANCH   5   6
ENDBRANCH   1   5
BRANCH   2  18
HETATM   18  N   UNL     1      25.998  46.064  52.652  1.00  0.00    -0.184 NA
HETATM   19  C   UNL     1      26.850  45.206  53.111  1.00  0.00     0.152 C 
BRANCH  19  20
HETATM   20  C   UNL     1      27.647  45.560  54.267  1.00  0.00     0.011 A 
HETATM   21  C   UNL     1      28.785  44.870  54.796  1.00  0.00     0.004 A 
HETATM   22  C   UNL     1      29.219  45.579  55.919  1.00  0.00     0.043 A 
HETATM   23  C   UNL     1      29.496  43.708  54.426  1.00  0.00     0.014 A 
HETATM   24  C   UNL     1      30.318  45.186  56.691  1.00  0.00     0.030 A 
HETATM   25  N   UNL     1      28.378  46.658  56.068  1.00  0.00    -0.364 N 
HETATM   26  C   UNL     1      31.002  44.031  56.302  1.00  0.00     0.002 A 
HETATM   27  C   UNL     1      30.600  43.301  55.187  1.00  0.00     0.001 A 
HETATM   28  H   UNL     1      28.453  47.349  56.802  1.00  0.00     0.165 HD
HETATM   29  C   UNL     1      27.433  46.657  55.082  1.00  0.00     0.102 A 
ENDBRANCH  19  20
ENDBRANCH   2  18
TORSDOF 8
ENDMDL
MODEL 9
REMARK VINA RESULT:      -7.5     12.139     13.493
REMARK  8 active torsions:
REMARK  status: ('A' for Active; 'I' for Inactive)
REMARK    1  A    between atoms: O_2  and  C_3 
REMARK    2  A    between atoms: C_6  and  N_7 
REMARK    3  A    between atoms: N_7  and  C_8 
REMARK    4  A    between atoms: C_8  and  C_9 
REMARK    5  A    between atoms: C_9  and  C_10 
REMARK    6  A    between atoms: C_10  and  C_11 
REMARK       I    between atoms: C_11  and  N_12 
REMARK    7  A    between atoms: N_12  and  N_13 
REMARK    8  A    between atoms: C_14  and  C_15 
ROOT
HETATM    1  C   UNL     1      27.723  47.117  40.555  1.00  0.00     0.237 C 
HETATM    2  N   UNL     1      28.397  47.880  41.500  1.00  0.00    -0.247 N 
HETATM    3  O   UNL     1      28.217  46.680  39.519  1.00  0.00    -0.272 OA
HETATM    4  H   UNL     1      27.933  48.203  42.341  1.00  0.00     0.192 HD
ENDROOT
BRANCH   1   5
HETATM    5  C   UNL     1      26.275  46.870  40.938  1.00  0.00     0.106 C 
BRANCH   5   6
HETATM    6  C   UNL     1      25.367  47.983  40.418  1.00  0.00     0.029 C 
BRANCH   6   7
HETATM    7  C   UNL     1      26.092  48.924  39.458  1.00  0.00     0.120 C 
BRANCH   7   8
HETATM    8  N   UNL     1      26.183  50.243  40.069  1.00  0.00    -0.390 N 
HETATM    9  H   UNL     1      25.665  50.315  40.943  1.00  0.00     0.159 HD
BRANCH   8  10
HETATM   10  C   UNL     1      27.404  50.916  40.136  1.00  0.00     0.028 A 
HETATM   11  C   UNL     1      28.289  51.031  39.061  1.00  0.00     0.032 A 
HETATM   12  C   UNL     1      29.464  51.794  39.159  1.00  0.00     0.039 A 
HETATM   13  C   UNL     1      29.762  52.478  40.335  1.00  0.00     0.068 A 
HETATM   14  C   UNL     1      28.872  52.398  41.404  1.00  0.00     0.039 A 
HETATM   15  C   UNL     1      27.701  51.641  41.298  1.00  0.00     0.032 A 
BRANCH  13  16
HETATM   16  O   UNL     1      30.864  53.254  40.564  1.00  0.00    -0.356 OA
HETATM   17  C   UNL     1      32.108  52.759  40.085  1.00  0.00     0.210 C 
ENDBRANCH  13  16
ENDBRANCH   8  10
ENDBRANCH   7   8
ENDBRANCH   6   7
ENDBRANCH   5   6
ENDBRANCH   1   5
BRANCH   2  18
HETATM   18  N   UNL     1      29.701  48.209  41.276  1.00  0.00    -0.184 NA
HETATM   19  C   UNL     1      30.276  48.958  42.160  1.00  0.00     0.152 C 
BRANCH  19  20
HETATM   20  C   UNL     1      31.656  49.348  41.959  1.00  0.00     0.011 A 
HETATM   21  C   UNL     1      32.424  50.288  42.719  1.00  0.00     0.004 A 
HETATM   22  C   UNL     1      33.700  50.339  42.151  1.00  0.00     0.043 A 
HETATM   23  C   UNL     1      32.160  51.103  43.840  1.00  0.00     0.014 A 
HETATM   24  C   UNL     1      34.720  51.162  42.643  1.00  0.00     0.030 A 
HETATM   25  N   UNL     1      33.708  49.464  41.090  1.00  0.00    -0.364 N 
HETATM   26  C   UNL     1      34.430  51.959  43.754  1.00  0.00     0.002 A 
HETATM   27  C   UNL     1      33.170  51.931  44.346  1.00  0.00     0.001 A 
HETATM   28  H   UNL     1      34.504  49.294  40.490  1.00  0.00     0.165 HD
HETATM   29  C   UNL     1      32.488  48.863  40.966  1.00  0.00     0.102 A 
ENDBRANCH  19  20
ENDBRANCH   2  18
TORSDOF 8
ENDMDL
MODEL 10
REMARK VINA RESULT:      -7.5      2.623      4.217
REMARK  8 active torsions:
REMARK  status: ('A' for Active; 'I' for Inactive)
REMARK    1  A    between atoms: O_2  and  C_3 
REMARK    2  A    between atoms: C_6  and  N_7 
REMARK    3  A    between atoms: N_7  and  C_8 
REMARK    4  A    between atoms: C_8  and  C_9 
REMARK    5  A    between atoms: C_9  and  C_10 
REMARK    6  A    between atoms: C_10  and  C_11 
REMARK       I    between atoms: C_11  and  N_12 
REMARK    7  A    between atoms: N_12  and  N_13 
REMARK    8  A    between atoms: C_14  and  C_15 
ROOT
HETATM    1  C   UNL     1      25.777  44.766  51.979  1.00  0.00     0.237 C 
HETATM    2  N   UNL     1      25.929  45.038  53.332  1.00  0.00    -0.247 N 
HETATM    3  O   UNL     1      26.473  43.988  51.334  1.00  0.00    -0.272 OA
HETATM    4  H   UNL     1      25.314  45.686  53.810  1.00  0.00     0.192 HD
ENDROOT
BRANCH   1   5
HETATM    5  C   UNL     1      24.635  45.551  51.358  1.00  0.00     0.106 C 
BRANCH   5   6
HETATM    6  C   UNL     1      25.053  46.988  51.051  1.00  0.00     0.029 C 
BRANCH   6   7
HETATM    7  C   UNL     1      25.230  47.234  49.553  1.00  0.00     0.120 C 
BRANCH   7   8
HETATM    8  N   UNL     1      25.086  48.660  49.291  1.00  0.00    -0.390 N 
HETATM    9  H   UNL     1      25.862  49.049  48.757  1.00  0.00     0.159 HD
BRANCH   8  10
HETATM   10  C   UNL     1      23.862  49.190  48.881  1.00  0.00     0.028 A 
HETATM   11  C   UNL     1      23.590  50.559  48.814  1.00  0.00     0.032 A 
HETATM   12  C   UNL     1      22.370  51.039  48.311  1.00  0.00     0.039 A 
HETATM   13  C   UNL     1      21.405  50.151  47.841  1.00  0.00     0.068 A 
HETATM   14  C   UNL     1      21.676  48.785  47.872  1.00  0.00     0.039 A 
HETATM   15  C   UNL     1      22.895  48.314  48.369  1.00  0.00     0.032 A 
BRANCH  13  16
HETATM   16  O   UNL     1      20.182  50.481  47.327  1.00  0.00    -0.356 OA
HETATM   17  C   UNL     1      19.364  49.408  46.877  1.00  0.00     0.210 C 
ENDBRANCH  13  16
ENDBRANCH   8  10
ENDBRANCH   7   8
ENDBRANCH   6   7
ENDBRANCH   5   6
ENDBRANCH   1   5
BRANCH   2  18
HETATM   18  N   UNL     1      26.938  44.428  54.020  1.00  0.00    -0.184 NA
HETATM   19  C   UNL     1      28.070  45.051  54.072  1.00  0.00     0.152 C 
BRANCH  19  20
HETATM   20  C   UNL     1      29.176  44.438  54.777  1.00  0.00     0.011 A 
HETATM   21  C   UNL     1      29.733  44.818  56.040  1.00  0.00     0.004 A 
HETATM   22  C   UNL     1      30.786  43.941  56.313  1.00  0.00     0.043 A 
HETATM   23  C   UNL     1      29.443  45.826  56.985  1.00  0.00     0.014 A 
HETATM   24  C   UNL     1      31.563  44.021  57.474  1.00  0.00     0.030 A 
HETATM   25  N   UNL     1      30.866  43.062  55.258  1.00  0.00    -0.364 N 
HETATM   26  C   UNL     1      31.254  45.028  58.392  1.00  0.00     0.002 A 
HETATM   27  C   UNL     1      30.210  45.918  58.154  1.00  0.00     0.001 A 
HETATM   28  H   UNL     1      31.540  42.312  55.183  1.00  0.00     0.165 HD
HETATM   29  C   UNL     1      29.904  43.350  54.332  1.00  0.00     0.102 A 
ENDBRANCH  19  20
ENDBRANCH   2  18
TORSDOF 8
ENDMDL
