MODEL 1
REMARK VINA RESULT:     -10.0      0.000      0.000
REMARK  7 active torsions:
REMARK  status: ('A' for Active; 'I' for Inactive)
REMARK    1  A    between atoms: N_1  and  C_5 
REMARK    2  A    between atoms: C_11  and  N_12 
REMARK       I    between atoms: N_12  and  C_13 
REMARK    3  A    between atoms: C_13  and  C_15 
REMARK    4  A    between atoms: C_19  and  C_20 
REMARK    5  A    between atoms: C_20  and  N_21 
REMARK       I    between atoms: N_21  and  C_22 
REMARK    6  A    between atoms: C_22  and  C_24 
REMARK    7  A    between atoms: C_27  and  C_30 
ROOT
HETATM    1  C   UNL     1      23.968  48.694  49.030  1.00  0.00     0.033 A 
HETATM    2  C   UNL     1      25.195  49.353  48.892  1.00  0.00     0.017 A 
HETATM    3  C   UNL     1      26.382  48.687  49.200  1.00  0.00     0.002 A 
HETATM    4  C   UNL     1      26.350  47.365  49.644  1.00  0.00     0.009 A 
HETATM    5  C   UNL     1      25.132  46.686  49.762  1.00  0.00    -0.040 A 
HETATM    6  C   UNL     1      23.942  47.357  49.443  1.00  0.00     0.026 A 
ENDROOT
BRANCH   1   7
HETATM    7  C   UNL     1      22.721  49.424  48.698  1.00  0.00     0.257 C 
HETATM    8  N   UNL     1      21.693  49.448  49.689  1.00  0.00    -0.303 N 
HETATM    9  H   UNL     1      21.885  49.135  50.628  1.00  0.00     0.171 HD
HETATM   10  O   UNL     1      22.562  49.986  47.630  1.00  0.00    -0.267 OA
BRANCH   8  11
HETATM   11  C   UNL     1      20.459  49.883  49.464  1.00  0.00     0.152 A 
HETATM   12  N   UNL     1      19.680  49.313  48.519  1.00  0.00    -0.339 N 
HETATM   13  C   UNL     1      18.449  49.919  48.378  1.00  0.00     0.024 A 
HETATM   14  H   UNL     1      20.012  48.506  47.994  1.00  0.00     0.168 HD
HETATM   15  C   UNL     1      17.475  49.462  47.356  1.00  0.00     0.060 C 
HETATM   16  C   UNL     1      18.246  50.969  49.231  1.00  0.00     0.011 A 
HETATM   17  C   UNL     1      16.070  50.045  47.640  1.00  0.00     0.039 C 
HETATM   18  C   UNL     1      16.052  51.512  48.132  1.00  0.00     0.188 C 
HETATM   19  C   UNL     1      16.981  51.760  49.349  1.00  0.00     0.081 C 
HETATM   20  S   UNL     1      19.618  51.226  50.205  1.00  0.00    -0.056 SA
BRANCH  18  21
HETATM   21  N   UNL     1      16.418  52.431  47.006  1.00  0.00    -0.075 N 
HETATM   22  H   UNL     1      16.653  51.906  46.148  1.00  0.00     0.274 HD
HETATM   23  H   UNL     1      15.616  53.027  46.741  1.00  0.00     0.274 HD
HETATM   24  H   UNL     1      17.202  53.067  47.204  1.00  0.00     0.274 HD
ENDBRANCH  18  21
ENDBRANCH   8  11
ENDBRANCH   1   7
BRANCH   5  25
HETATM   25  C   UNL     1      25.076  45.275  50.292  1.00  0.00     0.161 C 
BRANCH  25  26
HETATM   26  N   UNL     1      25.998  45.090  51.388  1.00  0.00    -0.353 N 
HETATM   27  C   UNL     1      26.949  44.090  51.408  1.00  0.00     0.251 C 
HETATM   28  O   UNL     1      27.068  43.243  50.526  1.00  0.00    -0.268 OA
HETATM   29  H   UNL     1      26.065  45.843  52.059  1.00  0.00     0.163 HD
BRANCH  27  30
HETATM   30  C   UNL     1      27.868  44.111  52.582  1.00  0.00     0.032 A 
HETATM   31  C   UNL     1      29.028  43.327  52.623  1.00  0.00     0.018 A 
HETATM   32  C   UNL     1      29.852  43.340  53.757  1.00  0.00     0.015 A 
HETATM   33  C   UNL     1      29.536  44.139  54.864  1.00  0.00    -0.005 A 
HETATM   34  C   UNL     1      28.387  44.945  54.798  1.00  0.00     0.015 A 
HETATM   35  C   UNL     1      27.560  44.935  53.667  1.00  0.00     0.018 A 
BRANCH  33  36
HETATM   36  C   UNL     1      30.362  44.165  56.069  1.00  0.00     0.091 A 
HETATM   37  C   UNL     1      30.371  45.182  57.009  1.00  0.00     0.099 A 
HETATM   38  S   UNL     1      31.517  44.760  58.218  1.00  0.00    -0.008 SA
HETATM   39  N   UNL     1      31.920  43.324  57.465  1.00  0.00    -0.037 NA
HETATM   40  N   UNL     1      31.249  43.126  56.343  1.00  0.00    -0.169 NA
ENDBRANCH  33  36
ENDBRANCH  27  30
ENDBRANCH  25  26
ENDBRANCH   5  25
TORSDOF 7
ENDMDL
MODEL 2
REMARK VINA RESULT:     -10.0      3.095     12.795
REMARK  7 active torsions:
REMARK  status: ('A' for Active; 'I' for Inactive)
REMARK    1  A    between atoms: N_1  and  C_5 
REMARK    2  A    between atoms: C_11  and  N_12 
REMARK       I    between atoms: N_12  and  C_13 
REMARK    3  A    between atoms: C_13  and  C_15 
REMARK    4  A    between atoms: C_19  and  C_20 
REMARK    5  A    between atoms: C_20  and  N_21 
REMARK       I    between atoms: N_21  and  C_22 
REMARK    6  A    between atoms: C_22  and  C_24 
REMARK    7  A    between atoms: C_27  and  C_30 
ROOT
HETATM    1  C   UNL     1      24.406  48.456  49.301  1.00  0.00     0.033 A 
HETATM    2  C   UNL     1      24.851  49.628  48.678  1.00  0.00     0.017 A 
HETATM    3  C   UNL     1      23.961  50.405  47.937  1.00  0.00     0.002 A 
HETATM    4  C   UNL     1      22.626  50.018  47.815  1.00  0.00     0.009 A 
HETATM    5  C   UNL     1      22.161  48.863  48.453  1.00  0.00    -0.040 A 
HETATM    6  C   UNL     1      23.059  48.090  49.205  1.00  0.00     0.026 A 
ENDROOT
BRANCH   1   7
HETATM    7  C   UNL     1      25.372  47.648  50.082  1.00  0.00     0.257 C 
HETATM    8  N   UNL     1      24.994  46.308  50.405  1.00  0.00    -0.303 N 
HETATM    9  H   UNL     1      24.189  45.888  49.967  1.00  0.00     0.171 HD
HETATM   10  O   UNL     1      26.447  48.089  50.442  1.00  0.00    -0.267 OA
BRANCH   8  11
HETATM   11  C   UNL     1      25.658  45.538  51.260  1.00  0.00     0.152 A 
HETATM   12  N   UNL     1      26.860  45.014  50.937  1.00  0.00    -0.339 N 
HETATM   13  C   UNL     1      27.387  44.197  51.915  1.00  0.00     0.024 A 
HETATM   14  H   UNL     1      27.301  45.240  50.046  1.00  0.00     0.168 HD
HETATM   15  C   UNL     1      28.678  43.492  51.721  1.00  0.00     0.060 C 
HETATM   16  C   UNL     1      26.601  44.087  53.028  1.00  0.00     0.011 A 
HETATM   17  C   UNL     1      29.214  42.950  53.067  1.00  0.00     0.039 C 
HETATM   18  C   UNL     1      28.140  42.362  54.014  1.00  0.00     0.188 C 
HETATM   19  C   UNL     1      26.955  43.328  54.269  1.00  0.00     0.081 C 
HETATM   20  S   UNL     1      25.170  44.990  52.847  1.00  0.00    -0.056 SA
BRANCH  18  21
HETATM   21  N   UNL     1      27.638  41.059  53.467  1.00  0.00    -0.075 N 
HETATM   22  H   UNL     1      27.385  41.139  52.469  1.00  0.00     0.274 HD
HETATM   23  H   UNL     1      28.378  40.337  53.497  1.00  0.00     0.274 HD
HETATM   24  H   UNL     1      26.827  40.667  53.962  1.00  0.00     0.274 HD
ENDBRANCH  18  21
ENDBRANCH   8  11
ENDBRANCH   1   7
BRANCH   5  25
HETATM   25  C   UNL     1      20.735  48.403  48.286  1.00  0.00     0.161 C 
BRANCH  25  26
HETATM   26  N   UNL     1      19.802  49.445  48.644  1.00  0.00    -0.353 N 
HETATM   27  C   UNL     1      18.599  49.631  47.994  1.00  0.00     0.251 C 
HETATM   28  O   UNL     1      18.233  48.965  47.029  1.00  0.00    -0.268 OA
HETATM   29  H   UNL     1      19.961  49.916  49.525  1.00  0.00     0.163 HD
BRANCH  27  30
HETATM   30  C   UNL     1      17.729  50.702  48.562  1.00  0.00     0.032 A 
HETATM   31  C   UNL     1      18.261  51.776  49.286  1.00  0.00     0.018 A 
HETATM   32  C   UNL     1      17.414  52.747  49.840  1.00  0.00     0.015 A 
HETATM   33  C   UNL     1      16.025  52.664  49.673  1.00  0.00    -0.005 A 
HETATM   34  C   UNL     1      15.506  51.599  48.918  1.00  0.00     0.015 A 
HETATM   35  C   UNL     1      16.349  50.627  48.363  1.00  0.00     0.018 A 
BRANCH  33  36
HETATM   36  C   UNL     1      15.111  53.648  50.250  1.00  0.00     0.091 A 
HETATM   37  C   UNL     1      15.284  55.022  50.202  1.00  0.00     0.099 A 
HETATM   38  S   UNL     1      13.963  55.739  51.034  1.00  0.00    -0.008 SA
HETATM   39  N   UNL     1      13.270  54.262  51.397  1.00  0.00    -0.037 NA
HETATM   40  N   UNL     1      13.969  53.239  50.935  1.00  0.00    -0.169 NA
ENDBRANCH  33  36
ENDBRANCH  27  30
ENDBRANCH  25  26
ENDBRANCH   5  25
TORSDOF 7
ENDMDL
MODEL 3
REMARK VINA RESULT:      -9.6      6.450     10.698
REMARK  7 active torsions:
REMARK  status: ('A' for Active; 'I' for Inactive)
REMARK    1  A    between atoms: N_1  and  C_5 
REMARK    2  A    between atoms: C_11  and  N_12 
REMARK       I    between atoms: N_12  and  C_13 
REMARK    3  A    between atoms: C_13  and  C_15 
REMARK    4  A    between atoms: C_19  and  C_20 
REMARK    5  A    between atoms: C_20  and  N_21 
REMARK       I    between atoms: N_21  and  C_22 
REMARK    6  A    between atoms: C_22  and  C_24 
REMARK    7  A    between atoms: C_27  and  C_30 
ROOT
HETATM    1  C   UNL     1      14.716  53.593  48.359  1.00  0.00     0.033 A 
HETATM    2  C   UNL     1      14.536  53.871  46.999  1.00  0.00     0.017 A 
HETATM    3  C   UNL     1      14.849  52.905  46.043  1.00  0.00     0.002 A 
HETATM    4  C   UNL     1      15.340  51.660  46.439  1.00  0.00     0.009 A 
HETATM    5  C   UNL     1      15.501  51.360  47.796  1.00  0.00    -0.040 A 
HETATM    6  C   UNL     1      15.176  52.332  48.753  1.00  0.00     0.026 A 
ENDROOT
BRANCH   1   7
HETATM    7  C   UNL     1      14.377  54.637  49.355  1.00  0.00     0.257 C 
HETATM    8  N   UNL     1      15.305  55.712  49.519  1.00  0.00    -0.303 N 
HETATM    9  H   UNL     1      16.058  55.837  48.860  1.00  0.00     0.171 HD
HETATM   10  O   UNL     1      13.356  54.599  50.015  1.00  0.00    -0.267 OA
BRANCH   8  11
HETATM   11  C   UNL     1      15.239  56.602  50.502  1.00  0.00     0.152 A 
HETATM   12  N   UNL     1      15.391  56.230  51.791  1.00  0.00    -0.339 N 
HETATM   13  C   UNL     1      15.241  57.268  52.687  1.00  0.00     0.024 A 
HETATM   14  H   UNL     1      15.606  55.263  52.028  1.00  0.00     0.168 HD
HETATM   15  C   UNL     1      15.325  57.043  54.151  1.00  0.00     0.060 C 
HETATM   16  C   UNL     1      14.985  58.475  52.100  1.00  0.00     0.011 A 
HETATM   17  C   UNL     1      15.488  58.385  54.903  1.00  0.00     0.039 C 
HETATM   18  C   UNL     1      14.651  59.560  54.342  1.00  0.00     0.188 C 
HETATM   19  C   UNL     1      14.850  59.780  52.820  1.00  0.00     0.081 C 
HETATM   20  S   UNL     1      14.899  58.315  50.407  1.00  0.00    -0.056 SA
BRANCH  18  21
HETATM   21  N   UNL     1      13.199  59.342  54.648  1.00  0.00    -0.075 N 
HETATM   22  H   UNL     1      12.628  59.336  53.788  1.00  0.00     0.274 HD
HETATM   23  H   UNL     1      13.048  58.413  55.074  1.00  0.00     0.274 HD
HETATM   24  H   UNL     1      12.785  60.029  55.290  1.00  0.00     0.274 HD
ENDBRANCH  18  21
ENDBRANCH   8  11
ENDBRANCH   1   7
BRANCH   5  25
HETATM   25  C   UNL     1      16.081  50.039  48.237  1.00  0.00     0.161 C 
BRANCH  25  26
HETATM   26  N   UNL     1      17.525  50.072  48.228  1.00  0.00    -0.353 N 
HETATM   27  C   UNL     1      18.280  50.169  49.379  1.00  0.00     0.251 C 
HETATM   28  O   UNL     1      17.800  50.283  50.504  1.00  0.00    -0.268 OA
HETATM   29  H   UNL     1      17.981  49.816  47.362  1.00  0.00     0.163 HD
BRANCH  27  30
HETATM   30  C   UNL     1      19.757  50.099  49.177  1.00  0.00     0.032 A 
HETATM   31  C   UNL     1      20.513  51.239  48.878  1.00  0.00     0.018 A 
HETATM   32  C   UNL     1      21.894  51.135  48.657  1.00  0.00     0.015 A 
HETATM   33  C   UNL     1      22.541  49.894  48.737  1.00  0.00    -0.005 A 
HETATM   34  C   UNL     1      21.776  48.764  49.070  1.00  0.00     0.015 A 
HETATM   35  C   UNL     1      20.396  48.863  49.291  1.00  0.00     0.018 A 
BRANCH  33  36
HETATM   36  C   UNL     1      23.975  49.745  48.497  1.00  0.00     0.091 A 
HETATM   37  C   UNL     1      24.847  49.022  49.294  1.00  0.00     0.099 A 
HETATM   38  S   UNL     1      26.416  49.169  48.610  1.00  0.00    -0.008 SA
HETATM   39  N   UNL     1      25.880  50.138  47.358  1.00  0.00    -0.037 NA
HETATM   40  N   UNL     1      24.580  50.373  47.410  1.00  0.00    -0.169 NA
ENDBRANCH  33  36
ENDBRANCH  27  30
ENDBRANCH  25  26
ENDBRANCH   5  25
TORSDOF 7
ENDMDL
MODEL 4
REMARK VINA RESULT:      -9.4      5.034     11.287
REMARK  7 active torsions:
REMARK  status: ('A' for Active; 'I' for Inactive)
REMARK    1  A    between atoms: N_1  and  C_5 
REMARK    2  A    between atoms: C_11  and  N_12 
REMARK       I    between atoms: N_12  and  C_13 
REMARK    3  A    between atoms: C_13  and  C_15 
REMARK    4  A    between atoms: C_19  and  C_20 
REMARK    5  A    between atoms: C_20  and  N_21 
REMARK       I    between atoms: N_21  and  C_22 
REMARK    6  A    between atoms: C_22  and  C_24 
REMARK    7  A    between atoms: C_27  and  C_30 
ROOT
HETATM    1  C   UNL     1      28.285  44.287  54.084  1.00  0.00     0.033 A 
HETATM    2  C   UNL     1      29.217  44.612  55.077  1.00  0.00     0.017 A 
HETATM    3  C   UNL     1      29.138  45.842  55.731  1.00  0.00     0.002 A 
HETATM    4  C   UNL     1      28.131  46.750  55.399  1.00  0.00     0.009 A 
HETATM    5  C   UNL     1      27.178  46.428  54.427  1.00  0.00    -0.040 A 
HETATM    6  C   UNL     1      27.257  45.186  53.778  1.00  0.00     0.026 A 
ENDROOT
BRANCH   1   7
HETATM    7  C   UNL     1      28.391  42.975  53.402  1.00  0.00     0.257 C 
HETATM    8  N   UNL     1      27.998  42.916  52.030  1.00  0.00    -0.303 N 
HETATM    9  H   UNL     1      27.829  43.766  51.513  1.00  0.00     0.171 HD
HETATM   10  O   UNL     1      28.795  41.979  53.971  1.00  0.00    -0.267 OA
BRANCH   8  11
HETATM   11  C   UNL     1      27.848  41.785  51.352  1.00  0.00     0.152 A 
HETATM   12  N   UNL     1      28.794  40.821  51.386  1.00  0.00    -0.339 N 
HETATM   13  C   UNL     1      28.505  39.736  50.585  1.00  0.00     0.024 A 
HETATM   14  H   UNL     1      29.620  40.928  51.972  1.00  0.00     0.168 HD
HETATM   15  C   UNL     1      29.450  38.598  50.455  1.00  0.00     0.060 C 
HETATM   16  C   UNL     1      27.313  39.835  49.923  1.00  0.00     0.011 A 
HETATM   17  C   UNL     1      28.751  37.378  49.810  1.00  0.00     0.039 C 
HETATM   18  C   UNL     1      27.771  37.711  48.660  1.00  0.00     0.188 C 
HETATM   19  C   UNL     1      26.715  38.780  49.047  1.00  0.00     0.081 C 
HETATM   20  S   UNL     1      26.549  41.314  50.279  1.00  0.00    -0.056 SA
BRANCH  18  21
HETATM   21  N   UNL     1      28.537  38.156  47.451  1.00  0.00    -0.075 N 
HETATM   22  H   UNL     1      28.904  37.351  46.917  1.00  0.00     0.274 HD
HETATM   23  H   UNL     1      27.921  38.656  46.788  1.00  0.00     0.274 HD
HETATM   24  H   UNL     1      29.327  38.784  47.646  1.00  0.00     0.274 HD
ENDBRANCH  18  21
ENDBRANCH   8  11
ENDBRANCH   1   7
BRANCH   5  25
HETATM   25  C   UNL     1      26.117  47.419  54.020  1.00  0.00     0.161 C 
BRANCH  25  26
HETATM   26  N   UNL     1      25.299  46.901  52.948  1.00  0.00    -0.353 N 
HETATM   27  C   UNL     1      25.560  47.151  51.617  1.00  0.00     0.251 C 
HETATM   28  O   UNL     1      26.476  47.869  51.223  1.00  0.00    -0.268 OA
HETATM   29  H   UNL     1      24.639  46.174  53.190  1.00  0.00     0.163 HD
BRANCH  27  30
HETATM   30  C   UNL     1      24.658  46.458  50.652  1.00  0.00     0.032 A 
HETATM   31  C   UNL     1      23.968  47.160  49.655  1.00  0.00     0.018 A 
HETATM   32  C   UNL     1      23.098  46.486  48.787  1.00  0.00     0.015 A 
HETATM   33  C   UNL     1      22.907  45.102  48.895  1.00  0.00    -0.005 A 
HETATM   34  C   UNL     1      23.629  44.405  49.878  1.00  0.00     0.015 A 
HETATM   35  C   UNL     1      24.500  45.074  50.748  1.00  0.00     0.018 A 
BRANCH  33  36
HETATM   36  C   UNL     1      21.995  44.370  48.019  1.00  0.00     0.091 A 
HETATM   37  C   UNL     1      20.960  44.936  47.292  1.00  0.00     0.099 A 
HETATM   38  S   UNL     1      20.172  43.668  46.442  1.00  0.00    -0.008 SA
HETATM   39  N   UNL     1      21.193  42.496  47.055  1.00  0.00    -0.037 NA
HETATM   40  N   UNL     1      22.107  42.988  47.874  1.00  0.00    -0.169 NA
ENDBRANCH  33  36
ENDBRANCH  27  30
ENDBRANCH  25  26
ENDBRANCH   5  25
TORSDOF 7
ENDMDL
MODEL 5
REMARK VINA RESULT:      -9.4      3.076      4.662
REMARK  7 active torsions:
REMARK  status: ('A' for Active; 'I' for Inactive)
REMARK    1  A    between atoms: N_1  and  C_5 
REMARK    2  A    between atoms: C_11  and  N_12 
REMARK       I    between atoms: N_12  and  C_13 
REMARK    3  A    between atoms: C_13  and  C_15 
REMARK    4  A    between atoms: C_19  and  C_20 
REMARK    5  A    between atoms: C_20  and  N_21 
REMARK       I    between atoms: N_21  and  C_22 
REMARK    6  A    between atoms: C_22  and  C_24 
REMARK    7  A    between atoms: C_27  and  C_30 
ROOT
HETATM    1  C   UNL     1      24.244  42.938  48.906  1.00  0.00     0.033 A 
HETATM    2  C   UNL     1      24.078  42.490  47.590  1.00  0.00     0.017 A 
HETATM    3  C   UNL     1      24.577  41.243  47.210  1.00  0.00     0.002 A 
HETATM    4  C   UNL     1      25.239  40.440  48.140  1.00  0.00     0.009 A 
HETATM    5  C   UNL     1      25.388  40.864  49.464  1.00  0.00    -0.040 A 
HETATM    6  C   UNL     1      24.878  42.115  49.843  1.00  0.00     0.026 A 
ENDROOT
BRANCH   1   7
HETATM    7  C   UNL     1      23.707  44.267  49.283  1.00  0.00     0.257 C 
HETATM    8  N   UNL     1      22.860  44.924  48.338  1.00  0.00    -0.303 N 
HETATM    9  H   UNL     1      22.510  44.423  47.536  1.00  0.00     0.171 HD
HETATM   10  O   UNL     1      23.964  44.793  50.350  1.00  0.00    -0.267 OA
BRANCH   8  11
HETATM   11  C   UNL     1      22.472  46.189  48.447  1.00  0.00     0.152 A 
HETATM   12  N   UNL     1      23.372  47.182  48.622  1.00  0.00    -0.339 N 
HETATM   13  C   UNL     1      22.797  48.427  48.769  1.00  0.00     0.024 A 
HETATM   14  H   UNL     1      24.370  46.980  48.626  1.00  0.00     0.168 HD
HETATM   15  C   UNL     1      23.624  49.634  49.019  1.00  0.00     0.060 C 
HETATM   16  C   UNL     1      21.432  48.421  48.694  1.00  0.00     0.011 A 
HETATM   17  C   UNL     1      22.798  50.921  48.785  1.00  0.00     0.039 C 
HETATM   18  C   UNL     1      21.333  50.863  49.281  1.00  0.00     0.188 C 
HETATM   19  C   UNL     1      20.555  49.633  48.747  1.00  0.00     0.081 C 
HETATM   20  S   UNL     1      20.848  46.839  48.465  1.00  0.00    -0.056 SA
BRANCH  18  21
HETATM   21  N   UNL     1      21.302  50.884  50.780  1.00  0.00    -0.075 N 
HETATM   22  H   UNL     1      21.960  51.581  51.163  1.00  0.00     0.274 HD
HETATM   23  H   UNL     1      20.372  51.179  51.125  1.00  0.00     0.274 HD
HETATM   24  H   UNL     1      21.508  49.983  51.230  1.00  0.00     0.274 HD
ENDBRANCH  18  21
ENDBRANCH   8  11
ENDBRANCH   1   7
BRANCH   5  25
HETATM   25  C   UNL     1      26.148  40.032  50.467  1.00  0.00     0.161 C 
BRANCH  25  26
HETATM   26  N   UNL     1      26.731  40.857  51.499  1.00  0.00    -0.353 N 
HETATM   27  C   UNL     1      28.084  41.113  51.581  1.00  0.00     0.251 C 
HETATM   28  O   UNL     1      28.919  40.630  50.819  1.00  0.00    -0.268 OA
HETATM   29  H   UNL     1      26.092  41.414  52.051  1.00  0.00     0.163 HD
BRANCH  27  30
HETATM   30  C   UNL     1      28.488  42.058  52.662  1.00  0.00     0.032 A 
HETATM   31  C   UNL     1      29.834  42.330  52.937  1.00  0.00     0.018 A 
HETATM   32  C   UNL     1      30.183  43.194  53.985  1.00  0.00     0.015 A 
HETATM   33  C   UNL     1      29.194  43.805  54.769  1.00  0.00    -0.005 A 
HETATM   34  C   UNL     1      27.848  43.548  54.462  1.00  0.00     0.015 A 
HETATM   35  C   UNL     1      27.495  42.686  53.416  1.00  0.00     0.018 A 
BRANCH  33  36
HETATM   36  C   UNL     1      29.521  44.697  55.879  1.00  0.00     0.091 A 
HETATM   37  C   UNL     1      30.677  44.632  56.641  1.00  0.00     0.099 A 
HETATM   38  S   UNL     1      30.584  45.871  57.828  1.00  0.00    -0.008 SA
HETATM   39  N   UNL     1      29.090  46.397  57.295  1.00  0.00    -0.037 NA
HETATM   40  N   UNL     1      28.635  45.699  56.269  1.00  0.00    -0.169 NA
ENDBRANCH  33  36
ENDBRANCH  27  30
ENDBRANCH  25  26
ENDBRANCH   5  25
TORSDOF 7
ENDMDL
MODEL 6
REMARK VINA RESULT:      -9.2      1.795      2.261
REMARK  7 active torsions:
REMARK  status: ('A' for Active; 'I' for Inactive)
REMARK    1  A    between atoms: N_1  and  C_5 
REMARK    2  A    between atoms: C_11  and  N_12 
REMARK       I    between atoms: N_12  and  C_13 
REMARK    3  A    between atoms: C_13  and  C_15 
REMARK    4  A    between atoms: C_19  and  C_20 
REMARK    5  A    between atoms: C_20  and  N_21 
REMARK       I    between atoms: N_21  and  C_22 
REMARK    6  A    between atoms: C_22  and  C_24 
REMARK    7  A    between atoms: C_27  and  C_30 
ROOT
HETATM    1  C   UNL     1      22.868  49.594  48.692  1.00  0.00     0.033 A 
HETATM    2  C   UNL     1      24.063  50.283  48.453  1.00  0.00     0.017 A 
HETATM    3  C   UNL     1      25.287  49.670  48.725  1.00  0.00     0.002 A 
HETATM    4  C   UNL     1      25.323  48.371  49.233  1.00  0.00     0.009 A 
HETATM    5  C   UNL     1      24.137  47.662  49.452  1.00  0.00    -0.040 A 
HETATM    6  C   UNL     1      22.910  48.280  49.169  1.00  0.00     0.026 A 
ENDROOT
BRANCH   1   7
HETATM    7  C   UNL     1      21.581  50.268  48.396  1.00  0.00     0.257 C 
HETATM    8  N   UNL     1      20.456  49.434  48.113  1.00  0.00    -0.303 N 
HETATM    9  H   UNL     1      20.503  48.441  48.283  1.00  0.00     0.171 HD
HETATM   10  O   UNL     1      21.468  51.479  48.392  1.00  0.00    -0.267 OA
BRANCH   8  11
HETATM   11  C   UNL     1      19.301  49.887  47.639  1.00  0.00     0.152 A 
HETATM   12  N   UNL     1      19.225  50.453  46.415  1.00  0.00    -0.339 N 
HETATM   13  C   UNL     1      17.965  50.917  46.099  1.00  0.00     0.024 A 
HETATM   14  H   UNL     1      20.046  50.500  45.814  1.00  0.00     0.168 HD
HETATM   15  C   UNL     1      17.697  51.613  44.816  1.00  0.00     0.060 C 
HETATM   16  C   UNL     1      17.033  50.701  47.076  1.00  0.00     0.011 A 
HETATM   17  C   UNL     1      16.175  51.702  44.549  1.00  0.00     0.039 C 
HETATM   18  C   UNL     1      15.304  51.999  45.793  1.00  0.00     0.188 C 
HETATM   19  C   UNL     1      15.577  51.032  46.975  1.00  0.00     0.081 C 
HETATM   20  S   UNL     1      17.738  49.935  48.422  1.00  0.00    -0.056 SA
BRANCH  18  21
HETATM   21  N   UNL     1      15.507  53.419  46.229  1.00  0.00    -0.075 N 
HETATM   22  H   UNL     1      15.931  53.989  45.479  1.00  0.00     0.274 HD
HETATM   23  H   UNL     1      14.601  53.875  46.430  1.00  0.00     0.274 HD
HETATM   24  H   UNL     1      16.086  53.535  47.071  1.00  0.00     0.274 HD
ENDBRANCH  18  21
ENDBRANCH   8  11
ENDBRANCH   1   7
BRANCH   5  25
HETATM   25  C   UNL     1      24.158  46.278  50.052  1.00  0.00     0.161 C 
BRANCH  25  26
HETATM   26  N   UNL     1      25.024  46.219  51.205  1.00  0.00    -0.353 N 
HETATM   27  C   UNL     1      25.041  45.150  52.077  1.00  0.00     0.251 C 
HETATM   28  O   UNL     1      24.293  44.179  51.983  1.00  0.00    -0.268 OA
HETATM   29  H   UNL     1      25.773  46.897  51.247  1.00  0.00     0.163 HD
BRANCH  27  30
HETATM   30  C   UNL     1      26.064  45.228  53.160  1.00  0.00     0.032 A 
HETATM   31  C   UNL     1      26.480  46.455  53.692  1.00  0.00     0.018 A 
HETATM   32  C   UNL     1      27.472  46.498  54.682  1.00  0.00     0.015 A 
HETATM   33  C   UNL     1      28.059  45.318  55.160  1.00  0.00    -0.005 A 
HETATM   34  C   UNL     1      27.610  44.093  54.641  1.00  0.00     0.015 A 
HETATM   35  C   UNL     1      26.619  44.045  53.652  1.00  0.00     0.018 A 
BRANCH  33  36
HETATM   36  C   UNL     1      29.107  45.326  56.179  1.00  0.00     0.091 A 
HETATM   37  C   UNL     1      29.107  46.116  57.317  1.00  0.00     0.099 A 
HETATM   38  S   UNL     1      30.554  45.781  58.179  1.00  0.00    -0.008 SA
HETATM   39  N   UNL     1      31.077  44.664  57.051  1.00  0.00    -0.037 NA
HETATM   40  N   UNL     1      30.233  44.517  56.045  1.00  0.00    -0.169 NA
ENDBRANCH  33  36
ENDBRANCH  27  30
ENDBRANCH  25  26
ENDBRANCH   5  25
TORSDOF 7
ENDMDL
MODEL 7
REMARK VINA RESULT:      -9.1      4.379      7.771
REMARK  7 active torsions:
REMARK  status: ('A' for Active; 'I' for Inactive)
REMARK    1  A    between atoms: N_1  and  C_5 
REMARK    2  A    between atoms: C_11  and  N_12 
REMARK       I    between atoms: N_12  and  C_13 
REMARK    3  A    between atoms: C_13  and  C_15 
REMARK    4  A    between atoms: C_19  and  C_20 
REMARK    5  A    between atoms: C_20  and  N_21 
REMARK       I    between atoms: N_21  and  C_22 
REMARK    6  A    between atoms: C_22  and  C_24 
REMARK    7  A    between atoms: C_27  and  C_30 
ROOT
HETATM    1  C   UNL     1      27.640  45.397  54.109  1.00  0.00     0.033 A 
HETATM    2  C   UNL     1      28.001  46.114  55.256  1.00  0.00     0.017 A 
HETATM    3  C   UNL     1      29.113  45.724  56.001  1.00  0.00     0.002 A 
HETATM    4  C   UNL     1      29.871  44.620  55.605  1.00  0.00     0.009 A 
HETATM    5  C   UNL     1      29.537  43.910  54.446  1.00  0.00    -0.040 A 
HETATM    6  C   UNL     1      28.422  44.313  53.696  1.00  0.00     0.026 A 
ENDROOT
BRANCH   1   7
HETATM    7  C   UNL     1      26.452  45.832  53.335  1.00  0.00     0.257 C 
HETATM    8  N   UNL     1      26.265  45.253  52.043  1.00  0.00    -0.303 N 
HETATM    9  H   UNL     1      26.819  44.460  51.756  1.00  0.00     0.171 HD
HETATM   10  O   UNL     1      25.658  46.646  53.767  1.00  0.00    -0.267 OA
BRANCH   8  11
HETATM   11  C   UNL     1      25.371  45.686  51.161  1.00  0.00     0.152 A 
HETATM   12  N   UNL     1      25.273  46.998  50.855  1.00  0.00    -0.339 N 
HETATM   13  C   UNL     1      24.261  47.282  49.963  1.00  0.00     0.024 A 
HETATM   14  H   UNL     1      25.918  47.673  51.263  1.00  0.00     0.168 HD
HETATM   15  C   UNL     1      23.968  48.676  49.545  1.00  0.00     0.060 C 
HETATM   16  C   UNL     1      23.562  46.183  49.548  1.00  0.00     0.011 A 
HETATM   17  C   UNL     1      23.058  48.692  48.295  1.00  0.00     0.039 C 
HETATM   18  C   UNL     1      21.938  47.624  48.280  1.00  0.00     0.188 C 
HETATM   19  C   UNL     1      22.463  46.186  48.532  1.00  0.00     0.081 C 
HETATM   20  S   UNL     1      24.153  44.775  50.298  1.00  0.00    -0.056 SA
BRANCH  18  21
HETATM   21  N   UNL     1      20.886  47.974  49.289  1.00  0.00    -0.075 N 
HETATM   22  H   UNL     1      21.286  48.068  50.237  1.00  0.00     0.274 HD
HETATM   23  H   UNL     1      20.471  48.899  49.082  1.00  0.00     0.274 HD
HETATM   24  H   UNL     1      20.104  47.310  49.348  1.00  0.00     0.274 HD
ENDBRANCH  18  21
ENDBRANCH   8  11
ENDBRANCH   1   7
BRANCH   5  25
HETATM   25  C   UNL     1      30.312  42.684  54.035  1.00  0.00     0.161 C 
BRANCH  25  26
HETATM   26  N   UNL     1      29.837  42.161  52.776  1.00  0.00    -0.353 N 
HETATM   27  C   UNL     1      28.812  41.242  52.683  1.00  0.00     0.251 C 
HETATM   28  O   UNL     1      28.244  40.751  53.656  1.00  0.00    -0.268 OA
HETATM   29  H   UNL     1      30.142  42.641  51.940  1.00  0.00     0.163 HD
BRANCH  27  30
HETATM   30  C   UNL     1      28.401  40.886  51.294  1.00  0.00     0.032 A 
HETATM   31  C   UNL     1      28.770  39.670  50.706  1.00  0.00     0.018 A 
HETATM   32  C   UNL     1      28.400  39.380  49.385  1.00  0.00     0.015 A 
HETATM   33  C   UNL     1      27.652  40.296  48.633  1.00  0.00    -0.005 A 
HETATM   34  C   UNL     1      27.261  41.499  49.246  1.00  0.00     0.015 A 
HETATM   35  C   UNL     1      27.628  41.792  50.565  1.00  0.00     0.018 A 
BRANCH  33  36
HETATM   36  C   UNL     1      27.263  40.036  47.249  1.00  0.00     0.091 A 
HETATM   37  C   UNL     1      26.136  40.548  46.627  1.00  0.00     0.099 A 
HETATM   38  S   UNL     1      26.109  39.937  45.021  1.00  0.00    -0.008 SA
HETATM   39  N   UNL     1      27.521  39.068  45.230  1.00  0.00    -0.037 NA
HETATM   40  N   UNL     1      28.029  39.197  46.443  1.00  0.00    -0.169 NA
ENDBRANCH  33  36
ENDBRANCH  27  30
ENDBRANCH  25  26
ENDBRANCH   5  25
TORSDOF 7
ENDMDL
MODEL 8
REMARK VINA RESULT:      -9.0      3.843      5.013
REMARK  7 active torsions:
REMARK  status: ('A' for Active; 'I' for Inactive)
REMARK    1  A    between atoms: N_1  and  C_5 
REMARK    2  A    between atoms: C_11  and  N_12 
REMARK       I    between atoms: N_12  and  C_13 
REMARK    3  A    between atoms: C_13  and  C_15 
REMARK    4  A    between atoms: C_19  and  C_20 
REMARK    5  A    between atoms: C_20  and  N_21 
REMARK       I    between atoms: N_21  and  C_22 
REMARK    6  A    between atoms: C_22  and  C_24 
REMARK    7  A    between atoms: C_27  and  C_30 
ROOT
HETATM    1  C   UNL     1      24.768  49.204  48.875  1.00  0.00     0.033 A 
HETATM    2  C   UNL     1      25.909  49.768  48.292  1.00  0.00     0.017 A 
HETATM    3  C   UNL     1      27.177  49.329  48.674  1.00  0.00     0.002 A 
HETATM    4  C   UNL     1      27.312  48.326  49.635  1.00  0.00     0.009 A 
HETATM    5  C   UNL     1      26.180  47.736  50.207  1.00  0.00    -0.040 A 
HETATM    6  C   UNL     1      24.907  48.175  49.813  1.00  0.00     0.026 A 
ENDROOT
BRANCH   1   7
HETATM    7  C   UNL     1      23.432  49.689  48.454  1.00  0.00     0.257 C 
HETATM    8  N   UNL     1      22.414  49.753  49.453  1.00  0.00    -0.303 N 
HETATM    9  H   UNL     1      22.650  49.642  50.428  1.00  0.00     0.171 HD
HETATM   10  O   UNL     1      23.195  50.024  47.309  1.00  0.00    -0.267 OA
BRANCH   8  11
HETATM   11  C   UNL     1      21.131  49.972  49.189  1.00  0.00     0.152 A 
HETATM   12  N   UNL     1      20.719  51.144  48.657  1.00  0.00    -0.339 N 
HETATM   13  C   UNL     1      19.352  51.226  48.495  1.00  0.00     0.024 A 
HETATM   14  H   UNL     1      21.395  51.864  48.406  1.00  0.00     0.168 HD
HETATM   15  C   UNL     1      18.709  52.456  47.970  1.00  0.00     0.060 C 
HETATM   16  C   UNL     1      18.678  50.103  48.888  1.00  0.00     0.011 A 
HETATM   17  C   UNL     1      17.248  52.172  47.548  1.00  0.00     0.039 C 
HETATM   18  C   UNL     1      16.464  51.222  48.485  1.00  0.00     0.188 C 
HETATM   19  C   UNL     1      17.203  49.886  48.758  1.00  0.00     0.081 C 
HETATM   20  S   UNL     1      19.756  48.935  49.494  1.00  0.00    -0.056 SA
BRANCH  18  21
HETATM   21  N   UNL     1      16.159  51.919  49.777  1.00  0.00    -0.075 N 
HETATM   22  H   UNL     1      15.143  51.943  49.964  1.00  0.00     0.274 HD
HETATM   23  H   UNL     1      16.564  51.404  50.577  1.00  0.00     0.274 HD
HETATM   24  H   UNL     1      16.509  52.883  49.842  1.00  0.00     0.274 HD
ENDBRANCH  18  21
ENDBRANCH   8  11
ENDBRANCH   1   7
BRANCH   5  25
HETATM   25  C   UNL     1      26.310  46.689  51.286  1.00  0.00     0.161 C 
BRANCH  25  26
HETATM   26  N   UNL     1      26.574  45.386  50.723  1.00  0.00    -0.353 N 
HETATM   27  C   UNL     1      27.128  44.353  51.451  1.00  0.00     0.251 C 
HETATM   28  O   UNL     1      27.489  44.457  52.621  1.00  0.00    -0.268 OA
HETATM   29  H   UNL     1      26.153  45.183  49.827  1.00  0.00     0.163 HD
BRANCH  27  30
HETATM   30  C   UNL     1      27.244  43.055  50.725  1.00  0.00     0.032 A 
HETATM   31  C   UNL     1      26.785  42.903  49.410  1.00  0.00     0.018 A 
HETATM   32  C   UNL     1      26.874  41.660  48.768  1.00  0.00     0.015 A 
HETATM   33  C   UNL     1      27.428  40.552  49.424  1.00  0.00    -0.005 A 
HETATM   34  C   UNL     1      27.914  40.726  50.731  1.00  0.00     0.015 A 
HETATM   35  C   UNL     1      27.827  41.966  51.377  1.00  0.00     0.018 A 
BRANCH  33  36
HETATM   36  C   UNL     1      27.522  39.238  48.792  1.00  0.00     0.091 A 
HETATM   37  C   UNL     1      27.866  39.012  47.469  1.00  0.00     0.099 A 
HETATM   38  S   UNL     1      27.814  37.316  47.204  1.00  0.00    -0.008 SA
HETATM   39  N   UNL     1      27.358  36.990  48.778  1.00  0.00    -0.037 NA
HETATM   40  N   UNL     1      27.233  38.082  49.513  1.00  0.00    -0.169 NA
ENDBRANCH  33  36
ENDBRANCH  27  30
ENDBRANCH  25  26
ENDBRANCH   5  25
TORSDOF 7
ENDMDL
MODEL 9
REMARK VINA RESULT:      -8.8      4.389     12.981
REMARK  7 active torsions:
REMARK  status: ('A' for Active; 'I' for Inactive)
REMARK    1  A    between atoms: N_1  and  C_5 
REMARK    2  A    between atoms: C_11  and  N_12 
REMARK       I    between atoms: N_12  and  C_13 
REMARK    3  A    between atoms: C_13  and  C_15 
REMARK    4  A    between atoms: C_19  and  C_20 
REMARK    5  A    between atoms: C_20  and  N_21 
REMARK       I    between atoms: N_21  and  C_22 
REMARK    6  A    between atoms: C_22  and  C_24 
REMARK    7  A    between atoms: C_27  and  C_30 
ROOT
HETATM    1  C   UNL     1      23.677  43.440  48.728  1.00  0.00     0.033 A 
HETATM    2  C   UNL     1      22.527  43.278  47.946  1.00  0.00     0.017 A 
HETATM    3  C   UNL     1      21.733  44.383  47.637  1.00  0.00     0.002 A 
HETATM    4  C   UNL     1      22.083  45.651  48.104  1.00  0.00     0.009 A 
HETATM    5  C   UNL     1      23.243  45.831  48.864  1.00  0.00    -0.040 A 
HETATM    6  C   UNL     1      24.042  44.718  49.165  1.00  0.00     0.026 A 
ENDROOT
BRANCH   1   7
HETATM    7  C   UNL     1      24.502  42.250  49.043  1.00  0.00     0.257 C 
HETATM    8  N   UNL     1      25.749  42.475  49.704  1.00  0.00    -0.303 N 
HETATM    9  H   UNL     1      25.964  43.382  50.090  1.00  0.00     0.171 HD
HETATM   10  O   UNL     1      24.149  41.121  48.761  1.00  0.00    -0.267 OA
BRANCH   8  11
HETATM   11  C   UNL     1      26.678  41.540  49.869  1.00  0.00     0.152 A 
HETATM   12  N   UNL     1      27.005  40.698  48.864  1.00  0.00    -0.339 N 
HETATM   13  C   UNL     1      27.947  39.756  49.219  1.00  0.00     0.024 A 
HETATM   14  H   UNL     1      26.576  40.797  47.946  1.00  0.00     0.168 HD
HETATM   15  C   UNL     1      28.397  38.714  48.263  1.00  0.00     0.060 C 
HETATM   16  C   UNL     1      28.381  39.863  50.511  1.00  0.00     0.011 A 
HETATM   17  C   UNL     1      29.689  38.029  48.766  1.00  0.00     0.039 C 
HETATM   18  C   UNL     1      29.742  37.762  50.290  1.00  0.00     0.188 C 
HETATM   19  C   UNL     1      29.448  39.024  51.142  1.00  0.00     0.081 C 
HETATM   20  S   UNL     1      27.585  41.139  51.309  1.00  0.00    -0.056 SA
BRANCH  18  21
HETATM   21  N   UNL     1      28.788  36.662  50.648  1.00  0.00    -0.075 N 
HETATM   22  H   UNL     1      29.230  35.733  50.555  1.00  0.00     0.274 HD
HETATM   23  H   UNL     1      28.509  36.726  51.642  1.00  0.00     0.274 HD
HETATM   24  H   UNL     1      27.919  36.648  50.101  1.00  0.00     0.274 HD
ENDBRANCH  18  21
ENDBRANCH   8  11
ENDBRANCH   1   7
BRANCH   5  25
HETATM   25  C   UNL     1      23.606  47.185  49.421  1.00  0.00     0.161 C 
BRANCH  25  26
HETATM   26  N   UNL     1      22.485  48.094  49.363  1.00  0.00    -0.353 N 
HETATM   27  C   UNL     1      22.357  49.066  48.393  1.00  0.00     0.251 C 
HETATM   28  O   UNL     1      23.200  49.281  47.524  1.00  0.00    -0.268 OA
HETATM   29  H   UNL     1      21.685  47.866  49.938  1.00  0.00     0.163 HD
BRANCH  27  30
HETATM   30  C   UNL     1      21.089  49.850  48.443  1.00  0.00     0.032 A 
HETATM   31  C   UNL     1      21.086  51.231  48.681  1.00  0.00     0.018 A 
HETATM   32  C   UNL     1      19.875  51.933  48.760  1.00  0.00     0.015 A 
HETATM   33  C   UNL     1      18.650  51.272  48.595  1.00  0.00    -0.005 A 
HETATM   34  C   UNL     1      18.669  49.893  48.325  1.00  0.00     0.015 A 
HETATM   35  C   UNL     1      19.876  49.187  48.246  1.00  0.00     0.018 A 
BRANCH  33  36
HETATM   36  C   UNL     1      17.370  51.969  48.688  1.00  0.00     0.091 A 
HETATM   37  C   UNL     1      16.940  52.707  49.779  1.00  0.00     0.099 A 
HETATM   38  S   UNL     1      15.371  53.305  49.413  1.00  0.00    -0.008 SA
HETATM   39  N   UNL     1      15.348  52.586  47.905  1.00  0.00    -0.037 NA
HETATM   40  N   UNL     1      16.452  51.908  47.641  1.00  0.00    -0.169 NA
ENDBRANCH  33  36
ENDBRANCH  27  30
ENDBRANCH  25  26
ENDBRANCH   5  25
TORSDOF 7
ENDMDL
MODEL 10
REMARK VINA RESULT:      -8.6      5.755      8.842
REMARK  7 active torsions:
REMARK  status: ('A' for Active; 'I' for Inactive)
REMARK    1  A    between atoms: N_1  and  C_5 
REMARK    2  A    between atoms: C_11  and  N_12 
REMARK       I    between atoms: N_12  and  C_13 
REMARK    3  A    between atoms: C_13  and  C_15 
REMARK    4  A    between atoms: C_19  and  C_20 
REMARK    5  A    between atoms: C_20  and  N_21 
REMARK       I    between atoms: N_21  and  C_22 
REMARK    6  A    between atoms: C_22  and  C_24 
REMARK    7  A    between atoms: C_27  and  C_30 
ROOT
HETATM    1  C   UNL     1      26.809  43.325  52.370  1.00  0.00     0.033 A 
HETATM    2  C   UNL     1      27.539  43.816  53.459  1.00  0.00     0.017 A 
HETATM    3  C   UNL     1      28.646  43.111  53.930  1.00  0.00     0.002 A 
HETATM    4  C   UNL     1      29.031  41.917  53.317  1.00  0.00     0.009 A 
HETATM    5  C   UNL     1      28.326  41.429  52.212  1.00  0.00    -0.040 A 
HETATM    6  C   UNL     1      27.218  42.146  51.737  1.00  0.00     0.026 A 
ENDROOT
BRANCH   1   7
HETATM    7  C   UNL     1      25.635  44.092  51.889  1.00  0.00     0.257 C 
HETATM    8  N   UNL     1      25.511  44.284  50.479  1.00  0.00    -0.303 N 
HETATM    9  H   UNL     1      26.099  43.768  49.842  1.00  0.00     0.171 HD
HETATM   10  O   UNL     1      24.801  44.547  52.649  1.00  0.00    -0.267 OA
BRANCH   8  11
HETATM   11  C   UNL     1      24.634  45.110  49.919  1.00  0.00     0.152 A 
HETATM   12  N   UNL     1      24.791  46.449  49.996  1.00  0.00    -0.339 N 
HETATM   13  C   UNL     1      23.766  47.159  49.409  1.00  0.00     0.024 A 
HETATM   14  H   UNL     1      25.613  46.848  50.447  1.00  0.00     0.168 HD
HETATM   15  C   UNL     1      23.739  48.643  49.436  1.00  0.00     0.060 C 
HETATM   16  C   UNL     1      22.797  46.375  48.847  1.00  0.00     0.011 A 
HETATM   17  C   UNL     1      22.710  49.191  48.419  1.00  0.00     0.039 C 
HETATM   18  C   UNL     1      21.389  48.390  48.322  1.00  0.00     0.188 C 
HETATM   19  C   UNL     1      21.611  46.873  48.083  1.00  0.00     0.081 C 
HETATM   20  S   UNL     1      23.150  44.726  49.077  1.00  0.00    -0.056 SA
BRANCH  18  21
HETATM   21  N   UNL     1      20.570  48.604  49.559  1.00  0.00    -0.075 N 
HETATM   22  H   UNL     1      20.907  49.417  50.100  1.00  0.00     0.274 HD
HETATM   23  H   UNL     1      19.591  48.833  49.317  1.00  0.00     0.274 HD
HETATM   24  H   UNL     1      20.533  47.800  50.198  1.00  0.00     0.274 HD
ENDBRANCH  18  21
ENDBRANCH   8  11
ENDBRANCH   1   7
BRANCH   5  25
HETATM   25  C   UNL     1      28.695  40.113  51.573  1.00  0.00     0.161 C 
BRANCH  25  26
HETATM   26  N   UNL     1      28.719  40.218  50.133  1.00  0.00    -0.353 N 
HETATM   27  C   UNL     1      28.219  39.238  49.302  1.00  0.00     0.251 C 
HETATM   28  O   UNL     1      27.754  38.173  49.702  1.00  0.00    -0.268 OA
HETATM   29  H   UNL     1      28.931  41.128  49.747  1.00  0.00     0.163 HD
BRANCH  27  30
HETATM   30  C   UNL     1      28.250  39.562  47.846  1.00  0.00     0.032 A 
HETATM   31  C   UNL     1      28.320  40.884  47.388  1.00  0.00     0.018 A 
HETATM   32  C   UNL     1      28.310  41.159  46.013  1.00  0.00     0.015 A 
HETATM   33  C   UNL     1      28.237  40.120  45.075  1.00  0.00    -0.005 A 
HETATM   34  C   UNL     1      28.200  38.797  45.547  1.00  0.00     0.015 A 
HETATM   35  C   UNL     1      28.210  38.518  46.920  1.00  0.00     0.018 A 
BRANCH  33  36
HETATM   36  C   UNL     1      28.207  40.370  43.635  1.00  0.00     0.091 A 
HETATM   37  C   UNL     1      27.289  39.829  42.750  1.00  0.00     0.099 A 
HETATM   38  S   UNL     1      27.684  40.402  41.180  1.00  0.00    -0.008 SA
HETATM   39  N   UNL     1      28.987  41.291  41.731  1.00  0.00    -0.037 NA
HETATM   40  N   UNL     1      29.162  41.190  43.038  1.00  0.00    -0.169 NA
ENDBRANCH  33  36
ENDBRANCH  27  30
ENDBRANCH  25  26
ENDBRANCH   5  25
TORSDOF 7
ENDMDL
