MODEL 1
REMARK VINA RESULT:      -8.8      0.000      0.000
REMARK  3 active torsions:
REMARK  status: ('A' for Active; 'I' for Inactive)
REMARK    1  A    between atoms: C_5  and  N_6 
REMARK       I    between atoms: N_6  and  C_7 
REMARK    2  A    between atoms: C_7  and  C_8 
REMARK    3  A    between atoms: C_11  and  N_12 
ROOT
HETATM    1  C   UNL     1      27.517  49.770  48.851  1.00  0.00     0.001 A 
HETATM    2  C   UNL     1      27.380  48.615  49.622  1.00  0.00     0.008 A 
HETATM    3  C   UNL     1      26.143  47.985  49.660  1.00  0.00    -0.043 A 
HETATM    4  C   UNL     1      25.052  48.501  48.959  1.00  0.00    -0.028 A 
HETATM    5  C   UNL     1      23.827  47.656  49.129  1.00  0.00     0.125 C 
HETATM    6  C   UNL     1      24.263  46.621  50.202  1.00  0.00     0.049 C 
HETATM    7  C   UNL     1      25.791  46.743  50.415  1.00  0.00     0.053 C 
HETATM    8  C   UNL     1      24.039  45.191  49.736  1.00  0.00     0.239 C 
HETATM    9  N   UNL     1      25.318  44.833  49.045  1.00  0.00    -0.074 N 
HETATM   10  H   UNL     1      25.434  43.813  48.969  1.00  0.00     0.277 HD
HETATM   11  H   UNL     1      25.319  45.203  48.084  1.00  0.00     0.277 HD
HETATM   12  C   UNL     1      26.411  45.471  49.843  1.00  0.00     0.242 C 
HETATM   13  C   UNL     1      25.188  49.641  48.176  1.00  0.00     0.010 A 
HETATM   14  C   UNL     1      26.429  50.278  48.130  1.00  0.00     0.001 A 
ENDROOT
BRANCH   5  15
HETATM   15  N   UNL     1      22.672  48.420  49.541  1.00  0.00    -0.348 N 
HETATM   16  C   UNL     1      21.747  48.824  48.599  1.00  0.00     0.252 C 
HETATM   17  O   UNL     1      21.806  48.429  47.437  1.00  0.00    -0.268 OA
HETATM   18  H   UNL     1      22.717  48.912  50.425  1.00  0.00     0.163 HD
BRANCH  16  19
HETATM   19  C   UNL     1      20.690  49.781  49.033  1.00  0.00     0.032 A 
HETATM   20  C   UNL     1      20.648  51.110  48.597  1.00  0.00     0.019 A 
HETATM   21  C   UNL     1      19.612  51.952  49.021  1.00  0.00     0.024 A 
HETATM   22  C   UNL     1      18.643  51.504  49.921  1.00  0.00     0.005 A 
HETATM   23  C   UNL     1      18.671  50.167  50.322  1.00  0.00     0.024 A 
HETATM   24  C   UNL     1      19.698  49.316  49.903  1.00  0.00     0.019 A 
BRANCH  22  25
HETATM   25  N   UNL     1      17.540  52.306  50.226  1.00  0.00    -0.303 NA
HETATM   26  H   UNL     1      16.641  51.852  50.101  1.00  0.00     0.124 HD
HETATM   27  H   UNL     1      17.563  53.229  49.804  1.00  0.00     0.124 HD
ENDBRANCH  22  25
ENDBRANCH  16  19
ENDBRANCH   5  15
TORSDOF 3
ENDMDL
MODEL 2
REMARK VINA RESULT:      -7.9      5.312      7.808
REMARK  3 active torsions:
REMARK  status: ('A' for Active; 'I' for Inactive)
REMARK    1  A    between atoms: C_5  and  N_6 
REMARK       I    between atoms: N_6  and  C_7 
REMARK    2  A    between atoms: C_7  and  C_8 
REMARK    3  A    between atoms: C_11  and  N_12 
ROOT
HETATM    1  C   UNL     1      30.294  42.268  54.229  1.00  0.00     0.001 A 
HETATM    2  C   UNL     1      30.608  43.486  54.834  1.00  0.00     0.008 A 
HETATM    3  C   UNL     1      29.607  44.439  54.965  1.00  0.00    -0.043 A 
HETATM    4  C   UNL     1      28.317  44.197  54.489  1.00  0.00    -0.028 A 
HETATM    5  C   UNL     1      27.399  45.352  54.750  1.00  0.00     0.125 C 
HETATM    6  C   UNL     1      28.357  46.443  55.302  1.00  0.00     0.049 C 
HETATM    7  C   UNL     1      29.733  45.795  55.584  1.00  0.00     0.053 C 
HETATM    8  C   UNL     1      27.889  46.983  56.644  1.00  0.00     0.239 C 
HETATM    9  N   UNL     1      28.539  46.078  57.643  1.00  0.00    -0.074 N 
HETATM   10  H   UNL     1      28.579  46.511  58.576  1.00  0.00     0.277 HD
HETATM   11  H   UNL     1      27.996  45.209  57.744  1.00  0.00     0.277 HD
HETATM   12  C   UNL     1      29.900  45.775  57.101  1.00  0.00     0.242 C 
HETATM   13  C   UNL     1      27.996  42.980  53.903  1.00  0.00     0.010 A 
HETATM   14  C   UNL     1      28.996  42.015  53.770  1.00  0.00     0.001 A 
ENDROOT
BRANCH   5  15
HETATM   15  N   UNL     1      26.695  45.787  53.566  1.00  0.00    -0.348 N 
HETATM   16  C   UNL     1      25.474  45.225  53.249  1.00  0.00     0.252 C 
HETATM   17  O   UNL     1      24.902  44.465  54.026  1.00  0.00    -0.268 OA
HETATM   18  H   UNL     1      27.229  46.241  52.835  1.00  0.00     0.163 HD
BRANCH  16  19
HETATM   19  C   UNL     1      24.888  45.549  51.918  1.00  0.00     0.032 A 
HETATM   20  C   UNL     1      24.222  44.601  51.133  1.00  0.00     0.019 A 
HETATM   21  C   UNL     1      23.669  44.976  49.902  1.00  0.00     0.024 A 
HETATM   22  C   UNL     1      23.819  46.275  49.412  1.00  0.00     0.005 A 
HETATM   23  C   UNL     1      24.451  47.224  50.218  1.00  0.00     0.024 A 
HETATM   24  C   UNL     1      25.005  46.862  51.449  1.00  0.00     0.019 A 
BRANCH  22  25
HETATM   25  N   UNL     1      23.146  46.673  48.254  1.00  0.00    -0.303 NA
HETATM   26  H   UNL     1      23.213  46.018  47.481  1.00  0.00     0.124 HD
HETATM   27  H   UNL     1      23.339  47.626  47.962  1.00  0.00     0.124 HD
ENDBRANCH  22  25
ENDBRANCH  16  19
ENDBRANCH   5  15
TORSDOF 3
ENDMDL
MODEL 3
REMARK VINA RESULT:      -7.9      5.871      9.684
REMARK  3 active torsions:
REMARK  status: ('A' for Active; 'I' for Inactive)
REMARK    1  A    between atoms: C_5  and  N_6 
REMARK       I    between atoms: N_6  and  C_7 
REMARK    2  A    between atoms: C_7  and  C_8 
REMARK    3  A    between atoms: C_11  and  N_12 
ROOT
HETATM    1  C   UNL     1      25.828  46.900  49.992  1.00  0.00     0.001 A 
HETATM    2  C   UNL     1      26.411  45.697  49.592  1.00  0.00     0.008 A 
HETATM    3  C   UNL     1      26.659  44.727  50.554  1.00  0.00    -0.043 A 
HETATM    4  C   UNL     1      26.349  44.951  51.896  1.00  0.00    -0.028 A 
HETATM    5  C   UNL     1      26.684  43.768  52.753  1.00  0.00     0.125 C 
HETATM    6  C   UNL     1      27.431  42.825  51.770  1.00  0.00     0.049 C 
HETATM    7  C   UNL     1      27.267  43.378  50.334  1.00  0.00     0.053 C 
HETATM    8  C   UNL     1      26.812  41.437  51.734  1.00  0.00     0.239 C 
HETATM    9  N   UNL     1      25.772  41.533  50.662  1.00  0.00    -0.074 N 
HETATM   10  H   UNL     1      25.506  40.604  50.309  1.00  0.00     0.277 HD
HETATM   11  H   UNL     1      24.914  41.965  51.035  1.00  0.00     0.277 HD
HETATM   12  C   UNL     1      26.360  42.400  49.593  1.00  0.00     0.242 C 
HETATM   13  C   UNL     1      25.751  46.139  52.296  1.00  0.00     0.010 A 
HETATM   14  C   UNL     1      25.496  47.118  51.335  1.00  0.00     0.001 A 
ENDROOT
BRANCH   5  15
HETATM   15  N   UNL     1      27.492  44.118  53.898  1.00  0.00    -0.348 N 
HETATM   16  C   UNL     1      28.864  43.969  53.840  1.00  0.00     0.252 C 
HETATM   17  O   UNL     1      29.430  43.679  52.789  1.00  0.00    -0.268 OA
HETATM   18  H   UNL     1      27.042  44.157  54.805  1.00  0.00     0.163 HD
BRANCH  16  19
HETATM   19  C   UNL     1      29.633  44.140  55.106  1.00  0.00     0.032 A 
HETATM   20  C   UNL     1      30.604  43.228  55.531  1.00  0.00     0.019 A 
HETATM   21  C   UNL     1      31.310  43.462  56.718  1.00  0.00     0.024 A 
HETATM   22  C   UNL     1      31.024  44.569  57.520  1.00  0.00     0.005 A 
HETATM   23  C   UNL     1      30.081  45.494  57.069  1.00  0.00     0.024 A 
HETATM   24  C   UNL     1      29.371  45.273  55.885  1.00  0.00     0.019 A 
BRANCH  22  25
HETATM   25  N   UNL     1      31.828  44.865  58.624  1.00  0.00    -0.303 NA
HETATM   26  H   UNL     1      32.031  44.072  59.224  1.00  0.00     0.124 HD
HETATM   27  H   UNL     1      31.529  45.677  59.155  1.00  0.00     0.124 HD
ENDBRANCH  22  25
ENDBRANCH  16  19
ENDBRANCH   5  15
TORSDOF 3
ENDMDL
MODEL 4
REMARK VINA RESULT:      -7.9      3.760      6.701
REMARK  3 active torsions:
REMARK  status: ('A' for Active; 'I' for Inactive)
REMARK    1  A    between atoms: C_5  and  N_6 
REMARK       I    between atoms: N_6  and  C_7 
REMARK    2  A    between atoms: C_7  and  C_8 
REMARK    3  A    between atoms: C_11  and  N_12 
ROOT
HETATM    1  C   UNL     1      26.817  40.211  49.934  1.00  0.00     0.001 A 
HETATM    2  C   UNL     1      27.855  40.636  50.764  1.00  0.00     0.008 A 
HETATM    3  C   UNL     1      27.780  41.906  51.322  1.00  0.00    -0.043 A 
HETATM    4  C   UNL     1      26.702  42.749  51.049  1.00  0.00    -0.028 A 
HETATM    5  C   UNL     1      26.820  44.059  51.766  1.00  0.00     0.125 C 
HETATM    6  C   UNL     1      28.239  43.987  52.393  1.00  0.00     0.049 C 
HETATM    7  C   UNL     1      28.777  42.545  52.236  1.00  0.00     0.053 C 
HETATM    8  C   UNL     1      28.211  44.240  53.892  1.00  0.00     0.239 C 
HETATM    9  N   UNL     1      28.013  42.879  54.484  1.00  0.00    -0.074 N 
HETATM   10  H   UNL     1      28.297  42.852  55.473  1.00  0.00     0.277 HD
HETATM   11  H   UNL     1      27.017  42.620  54.455  1.00  0.00     0.277 HD
HETATM   12  C   UNL     1      28.814  41.941  53.637  1.00  0.00     0.242 C 
HETATM   13  C   UNL     1      25.658  42.322  50.237  1.00  0.00     0.010 A 
HETATM   14  C   UNL     1      25.724  41.047  49.675  1.00  0.00     0.001 A 
ENDROOT
BRANCH   5  15
HETATM   15  N   UNL     1      26.665  45.194  50.887  1.00  0.00    -0.348 N 
HETATM   16  C   UNL     1      26.062  46.345  51.355  1.00  0.00     0.252 C 
HETATM   17  O   UNL     1      25.779  46.479  52.543  1.00  0.00    -0.268 OA
HETATM   18  H   UNL     1      26.701  45.032  49.888  1.00  0.00     0.163 HD
BRANCH  16  19
HETATM   19  C   UNL     1      25.735  47.408  50.362  1.00  0.00     0.032 A 
HETATM   20  C   UNL     1      26.713  48.196  49.747  1.00  0.00     0.019 A 
HETATM   21  C   UNL     1      26.341  49.161  48.802  1.00  0.00     0.024 A 
HETATM   22  C   UNL     1      24.997  49.391  48.499  1.00  0.00     0.005 A 
HETATM   23  C   UNL     1      24.030  48.575  49.088  1.00  0.00     0.024 A 
HETATM   24  C   UNL     1      24.389  47.607  50.032  1.00  0.00     0.019 A 
BRANCH  22  25
HETATM   25  N   UNL     1      24.648  50.253  47.456  1.00  0.00    -0.303 NA
HETATM   26  H   UNL     1      24.052  49.838  46.747  1.00  0.00     0.124 HD
HETATM   27  H   UNL     1      25.429  50.758  47.049  1.00  0.00     0.124 HD
ENDBRANCH  22  25
ENDBRANCH  16  19
ENDBRANCH   5  15
TORSDOF 3
ENDMDL
MODEL 5
REMARK VINA RESULT:      -7.8      2.343      6.906
REMARK  3 active torsions:
REMARK  status: ('A' for Active; 'I' for Inactive)
REMARK    1  A    between atoms: C_5  and  N_6 
REMARK       I    between atoms: N_6  and  C_7 
REMARK    2  A    between atoms: C_7  and  C_8 
REMARK    3  A    between atoms: C_11  and  N_12 
ROOT
HETATM    1  C   UNL     1      17.819  52.007  48.740  1.00  0.00     0.001 A 
HETATM    2  C   UNL     1      17.663  50.854  47.970  1.00  0.00     0.008 A 
HETATM    3  C   UNL     1      18.615  49.849  48.080  1.00  0.00    -0.043 A 
HETATM    4  C   UNL     1      19.715  49.991  48.927  1.00  0.00    -0.028 A 
HETATM    5  C   UNL     1      20.602  48.783  48.900  1.00  0.00     0.125 C 
HETATM    6  C   UNL     1      19.989  47.926  47.758  1.00  0.00     0.049 C 
HETATM    7  C   UNL     1      18.630  48.542  47.352  1.00  0.00     0.053 C 
HETATM    8  C   UNL     1      19.664  46.514  48.220  1.00  0.00     0.239 C 
HETATM    9  N   UNL     1      18.261  46.617  48.731  1.00  0.00    -0.074 N 
HETATM   10  H   UNL     1      17.804  45.695  48.770  1.00  0.00     0.277 HD
HETATM   11  H   UNL     1      18.258  46.989  49.692  1.00  0.00     0.277 HD
HETATM   12  C   UNL     1      17.554  47.562  47.811  1.00  0.00     0.242 C 
HETATM   13  C   UNL     1      19.865  51.129  49.709  1.00  0.00     0.010 A 
HETATM   14  C   UNL     1      18.911  52.143  49.607  1.00  0.00     0.001 A 
ENDROOT
BRANCH   5  15
HETATM   15  N   UNL     1      21.987  49.111  48.657  1.00  0.00    -0.348 N 
HETATM   16  C   UNL     1      22.974  48.200  48.981  1.00  0.00     0.252 C 
HETATM   17  O   UNL     1      22.694  47.059  49.340  1.00  0.00    -0.268 OA
HETATM   18  H   UNL     1      22.236  50.088  48.562  1.00  0.00     0.163 HD
BRANCH  16  19
HETATM   19  C   UNL     1      24.390  48.659  48.910  1.00  0.00     0.032 A 
HETATM   20  C   UNL     1      24.792  49.761  48.148  1.00  0.00     0.019 A 
HETATM   21  C   UNL     1      26.135  50.157  48.146  1.00  0.00     0.024 A 
HETATM   22  C   UNL     1      27.099  49.435  48.852  1.00  0.00     0.005 A 
HETATM   23  C   UNL     1      26.685  48.360  49.640  1.00  0.00     0.024 A 
HETATM   24  C   UNL     1      25.346  47.956  49.652  1.00  0.00     0.019 A 
BRANCH  22  25
HETATM   25  N   UNL     1      28.406  49.920  48.956  1.00  0.00    -0.303 NA
HETATM   26  H   UNL     1      28.596  50.443  49.805  1.00  0.00     0.124 HD
HETATM   27  H   UNL     1      28.741  50.403  48.129  1.00  0.00     0.124 HD
ENDBRANCH  22  25
ENDBRANCH  16  19
ENDBRANCH   5  15
TORSDOF 3
ENDMDL
MODEL 6
REMARK VINA RESULT:      -7.7     10.074     13.441
REMARK  3 active torsions:
REMARK  status: ('A' for Active; 'I' for Inactive)
REMARK    1  A    between atoms: C_5  and  N_6 
REMARK       I    between atoms: N_6  and  C_7 
REMARK    2  A    between atoms: C_7  and  C_8 
REMARK    3  A    between atoms: C_11  and  N_12 
ROOT
HETATM    1  C   UNL     1      28.762  53.325  38.930  1.00  0.00     0.001 A 
HETATM    2  C   UNL     1      28.544  51.946  38.931  1.00  0.00     0.008 A 
HETATM    3  C   UNL     1      29.197  51.172  39.881  1.00  0.00    -0.043 A 
HETATM    4  C   UNL     1      30.067  51.752  40.806  1.00  0.00    -0.028 A 
HETATM    5  C   UNL     1      30.646  50.735  41.743  1.00  0.00     0.125 C 
HETATM    6  C   UNL     1      30.150  49.389  41.147  1.00  0.00     0.049 C 
HETATM    7  C   UNL     1      29.097  49.690  40.055  1.00  0.00     0.053 C 
HETATM    8  C   UNL     1      29.422  48.545  42.181  1.00  0.00     0.239 C 
HETATM    9  N   UNL     1      27.995  48.983  42.063  1.00  0.00    -0.074 N 
HETATM   10  H   UNL     1      27.351  48.284  42.458  1.00  0.00     0.277 HD
HETATM   11  H   UNL     1      27.845  49.855  42.591  1.00  0.00     0.277 HD
HETATM   12  C   UNL     1      27.755  49.217  40.605  1.00  0.00     0.242 C 
HETATM   13  C   UNL     1      30.272  53.126  40.821  1.00  0.00     0.010 A 
HETATM   14  C   UNL     1      29.617  53.911  39.871  1.00  0.00     0.001 A 
ENDROOT
BRANCH   5  15
HETATM   15  N   UNL     1      32.087  50.804  41.822  1.00  0.00    -0.348 N 
HETATM   16  C   UNL     1      32.698  50.978  43.048  1.00  0.00     0.252 C 
HETATM   17  O   UNL     1      32.054  50.935  44.093  1.00  0.00    -0.268 OA
HETATM   18  H   UNL     1      32.599  51.042  40.982  1.00  0.00     0.163 HD
BRANCH  16  19
HETATM   19  C   UNL     1      34.163  51.252  43.059  1.00  0.00     0.032 A 
HETATM   20  C   UNL     1      35.052  50.652  42.162  1.00  0.00     0.019 A 
HETATM   21  C   UNL     1      36.415  50.973  42.207  1.00  0.00     0.024 A 
HETATM   22  C   UNL     1      36.916  51.847  43.173  1.00  0.00     0.005 A 
HETATM   23  C   UNL     1      36.017  52.472  44.040  1.00  0.00     0.024 A 
HETATM   24  C   UNL     1      34.655  52.160  44.003  1.00  0.00     0.019 A 
BRANCH  22  25
HETATM   25  N   UNL     1      38.248  52.267  43.120  1.00  0.00    -0.303 NA
HETATM   26  H   UNL     1      38.887  51.594  42.708  1.00  0.00     0.124 HD
HETATM   27  H   UNL     1      38.604  52.645  43.992  1.00  0.00     0.124 HD
ENDBRANCH  22  25
ENDBRANCH  16  19
ENDBRANCH   5  15
TORSDOF 3
ENDMDL
MODEL 7
REMARK VINA RESULT:      -7.7      1.846      2.640
REMARK  3 active torsions:
REMARK  status: ('A' for Active; 'I' for Inactive)
REMARK    1  A    between atoms: C_5  and  N_6 
REMARK       I    between atoms: N_6  and  C_7 
REMARK    2  A    between atoms: C_7  and  C_8 
REMARK    3  A    between atoms: C_11  and  N_12 
ROOT
HETATM    1  C   UNL     1      25.898  45.859  51.856  1.00  0.00     0.001 A 
HETATM    2  C   UNL     1      25.205  44.791  51.285  1.00  0.00     0.008 A 
HETATM    3  C   UNL     1      24.268  45.060  50.297  1.00  0.00    -0.043 A 
HETATM    4  C   UNL     1      24.008  46.370  49.890  1.00  0.00    -0.028 A 
HETATM    5  C   UNL     1      22.977  46.425  48.805  1.00  0.00     0.125 C 
HETATM    6  C   UNL     1      22.485  44.955  48.715  1.00  0.00     0.049 C 
HETATM    7  C   UNL     1      23.428  44.066  49.560  1.00  0.00     0.053 C 
HETATM    8  C   UNL     1      22.583  44.408  47.300  1.00  0.00     0.239 C 
HETATM    9  N   UNL     1      23.960  43.824  47.235  1.00  0.00    -0.074 N 
HETATM   10  H   UNL     1      24.047  43.144  46.467  1.00  0.00     0.277 HD
HETATM   11  H   UNL     1      24.653  44.564  47.055  1.00  0.00     0.277 HD
HETATM   12  C   UNL     1      24.208  43.202  48.573  1.00  0.00     0.242 C 
HETATM   13  C   UNL     1      24.709  47.435  50.442  1.00  0.00     0.010 A 
HETATM   14  C   UNL     1      25.655  47.172  51.435  1.00  0.00     0.001 A 
ENDROOT
BRANCH   5  15
HETATM   15  N   UNL     1      21.904  47.347  49.099  1.00  0.00    -0.348 N 
HETATM   16  C   UNL     1      21.844  48.560  48.442  1.00  0.00     0.252 C 
HETATM   17  O   UNL     1      22.601  48.819  47.510  1.00  0.00    -0.268 OA
HETATM   18  H   UNL     1      21.413  47.241  49.978  1.00  0.00     0.163 HD
BRANCH  16  19
HETATM   19  C   UNL     1      20.849  49.560  48.924  1.00  0.00     0.032 A 
HETATM   20  C   UNL     1      20.877  50.904  48.538  1.00  0.00     0.019 A 
HETATM   21  C   UNL     1      19.896  51.787  49.007  1.00  0.00     0.024 A 
HETATM   22  C   UNL     1      18.913  51.361  49.903  1.00  0.00     0.005 A 
HETATM   23  C   UNL     1      18.869  50.010  50.253  1.00  0.00     0.024 A 
HETATM   24  C   UNL     1      19.841  49.119  49.790  1.00  0.00     0.019 A 
BRANCH  22  25
HETATM   25  N   UNL     1      17.861  52.212  50.251  1.00  0.00    -0.303 NA
HETATM   26  H   UNL     1      17.316  52.553  49.466  1.00  0.00     0.124 HD
HETATM   27  H   UNL     1      18.120  52.960  50.887  1.00  0.00     0.124 HD
ENDBRANCH  22  25
ENDBRANCH  16  19
ENDBRANCH   5  15
TORSDOF 3
ENDMDL
MODEL 8
REMARK VINA RESULT:      -7.6      2.437      6.781
REMARK  3 active torsions:
REMARK  status: ('A' for Active; 'I' for Inactive)
REMARK    1  A    between atoms: C_5  and  N_6 
REMARK       I    between atoms: N_6  and  C_7 
REMARK    2  A    between atoms: C_7  and  C_8 
REMARK    3  A    between atoms: C_11  and  N_12 
ROOT
HETATM    1  C   UNL     1      27.249  49.937  48.593  1.00  0.00     0.001 A 
HETATM    2  C   UNL     1      25.979  50.254  48.109  1.00  0.00     0.008 A 
HETATM    3  C   UNL     1      24.912  49.438  48.462  1.00  0.00    -0.043 A 
HETATM    4  C   UNL     1      25.103  48.315  49.268  1.00  0.00    -0.028 A 
HETATM    5  C   UNL     1      23.817  47.592  49.534  1.00  0.00     0.125 C 
HETATM    6  C   UNL     1      22.806  48.329  48.615  1.00  0.00     0.049 C 
HETATM    7  C   UNL     1      23.482  49.604  48.058  1.00  0.00     0.053 C 
HETATM    8  C   UNL     1      21.594  48.826  49.387  1.00  0.00     0.239 C 
HETATM    9  N   UNL     1      21.993  50.195  49.841  1.00  0.00    -0.074 N 
HETATM   10  H   UNL     1      21.173  50.766  50.087  1.00  0.00     0.277 HD
HETATM   11  H   UNL     1      22.575  50.134  50.689  1.00  0.00     0.277 HD
HETATM   12  C   UNL     1      22.782  50.789  48.717  1.00  0.00     0.242 C 
HETATM   13  C   UNL     1      26.362  48.006  49.767  1.00  0.00     0.010 A 
HETATM   14  C   UNL     1      27.439  48.823  49.419  1.00  0.00     0.001 A 
ENDROOT
BRANCH   5  15
HETATM   15  N   UNL     1      23.898  46.180  49.242  1.00  0.00    -0.348 N 
HETATM   16  C   UNL     1      24.267  45.294  50.235  1.00  0.00     0.252 C 
HETATM   17  O   UNL     1      24.391  45.660  51.401  1.00  0.00    -0.268 OA
HETATM   18  H   UNL     1      23.999  45.899  48.274  1.00  0.00     0.163 HD
BRANCH  16  19
HETATM   19  C   UNL     1      24.539  43.884  49.839  1.00  0.00     0.032 A 
HETATM   20  C   UNL     1      24.230  43.380  48.571  1.00  0.00     0.019 A 
HETATM   21  C   UNL     1      24.537  42.050  48.253  1.00  0.00     0.024 A 
HETATM   22  C   UNL     1      25.102  41.195  49.201  1.00  0.00     0.005 A 
HETATM   23  C   UNL     1      25.443  41.716  50.451  1.00  0.00     0.024 A 
HETATM   24  C   UNL     1      25.143  43.041  50.780  1.00  0.00     0.019 A 
BRANCH  22  25
HETATM   25  N   UNL     1      25.531  39.918  48.831  1.00  0.00    -0.303 NA
HETATM   26  H   UNL     1      26.153  39.472  49.498  1.00  0.00     0.124 HD
HETATM   27  H   UNL     1      25.883  39.853  47.881  1.00  0.00     0.124 HD
ENDBRANCH  22  25
ENDBRANCH  16  19
ENDBRANCH   5  15
TORSDOF 3
ENDMDL
MODEL 9
REMARK VINA RESULT:      -7.4     21.238     22.876
REMARK  3 active torsions:
REMARK  status: ('A' for Active; 'I' for Inactive)
REMARK    1  A    between atoms: C_5  and  N_6 
REMARK       I    between atoms: N_6  and  C_7 
REMARK    2  A    between atoms: C_7  and  C_8 
REMARK    3  A    between atoms: C_11  and  N_12 
ROOT
HETATM    1  C   UNL     1      39.562  49.092  64.581  1.00  0.00     0.001 A 
HETATM    2  C   UNL     1      38.179  48.953  64.700  1.00  0.00     0.008 A 
HETATM    3  C   UNL     1      37.663  47.708  65.033  1.00  0.00    -0.043 A 
HETATM    4  C   UNL     1      38.503  46.611  65.230  1.00  0.00    -0.028 A 
HETATM    5  C   UNL     1      37.736  45.377  65.595  1.00  0.00     0.125 C 
HETATM    6  C   UNL     1      36.258  45.819  65.417  1.00  0.00     0.049 C 
HETATM    7  C   UNL     1      36.221  47.352  65.213  1.00  0.00     0.053 C 
HETATM    8  C   UNL     1      35.434  45.564  66.669  1.00  0.00     0.239 C 
HETATM    9  N   UNL     1      35.588  46.823  67.464  1.00  0.00    -0.074 N 
HETATM   10  H   UNL     1      34.839  46.923  68.164  1.00  0.00     0.277 HD
HETATM   11  H   UNL     1      36.478  46.811  67.982  1.00  0.00     0.277 HD
HETATM   12  C   UNL     1      35.587  47.941  66.470  1.00  0.00     0.242 C 
HETATM   13  C   UNL     1      39.882  46.748  65.131  1.00  0.00     0.010 A 
HETATM   14  C   UNL     1      40.409  47.997  64.799  1.00  0.00     0.001 A 
ENDROOT
BRANCH   5  15
HETATM   15  N   UNL     1      38.073  44.242  64.767  1.00  0.00    -0.348 N 
HETATM   16  C   UNL     1      37.774  42.965  65.200  1.00  0.00     0.252 C 
HETATM   17  O   UNL     1      37.100  42.776  66.209  1.00  0.00    -0.268 OA
HETATM   18  H   UNL     1      38.788  44.364  64.060  1.00  0.00     0.163 HD
BRANCH  16  19
HETATM   19  C   UNL     1      38.325  41.822  64.418  1.00  0.00     0.032 A 
HETATM   20  C   UNL     1      38.676  41.928  63.068  1.00  0.00     0.019 A 
HETATM   21  C   UNL     1      39.214  40.822  62.397  1.00  0.00     0.024 A 
HETATM   22  C   UNL     1      39.358  39.591  63.039  1.00  0.00     0.005 A 
HETATM   23  C   UNL     1      39.042  39.504  64.396  1.00  0.00     0.024 A 
HETATM   24  C   UNL     1      38.506  40.601  65.077  1.00  0.00     0.019 A 
BRANCH  22  25
HETATM   25  N   UNL     1      40.024  38.539  62.404  1.00  0.00    -0.303 NA
HETATM   26  H   UNL     1      39.899  37.633  62.845  1.00  0.00     0.124 HD
HETATM   27  H   UNL     1      40.998  38.727  62.190  1.00  0.00     0.124 HD
ENDBRANCH  22  25
ENDBRANCH  16  19
ENDBRANCH   5  15
TORSDOF 3
ENDMDL
MODEL 10
REMARK VINA RESULT:      -7.4      2.189      3.534
REMARK  3 active torsions:
REMARK  status: ('A' for Active; 'I' for Inactive)
REMARK    1  A    between atoms: C_5  and  N_6 
REMARK       I    between atoms: N_6  and  C_7 
REMARK    2  A    between atoms: C_7  and  C_8 
REMARK    3  A    between atoms: C_11  and  N_12 
ROOT
HETATM    1  C   UNL     1      25.749  45.682  54.154  1.00  0.00     0.001 A 
HETATM    2  C   UNL     1      25.342  44.569  53.416  1.00  0.00     0.008 A 
HETATM    3  C   UNL     1      24.988  44.749  52.086  1.00  0.00    -0.043 A 
HETATM    4  C   UNL     1      25.019  46.014  51.498  1.00  0.00    -0.028 A 
HETATM    5  C   UNL     1      24.614  45.972  50.056  1.00  0.00     0.125 C 
HETATM    6  C   UNL     1      24.140  44.505  49.869  1.00  0.00     0.049 C 
HETATM    7  C   UNL     1      24.533  43.694  51.127  1.00  0.00     0.053 C 
HETATM    8  C   UNL     1      24.854  43.819  48.715  1.00  0.00     0.239 C 
HETATM    9  N   UNL     1      26.069  43.218  49.350  1.00  0.00    -0.074 N 
HETATM   10  H   UNL     1      26.465  42.465  48.770  1.00  0.00     0.277 HD
HETATM   11  H   UNL     1      26.807  43.930  49.453  1.00  0.00     0.277 HD
HETATM   12  C   UNL     1      25.633  42.729  50.695  1.00  0.00     0.242 C 
HETATM   13  C   UNL     1      25.441  47.121  52.223  1.00  0.00     0.010 A 
HETATM   14  C   UNL     1      25.802  46.949  53.560  1.00  0.00     0.001 A 
ENDROOT
BRANCH   5  15
HETATM   15  N   UNL     1      23.580  46.928  49.737  1.00  0.00    -0.348 N 
HETATM   16  C   UNL     1      23.923  48.163  49.222  1.00  0.00     0.252 C 
HETATM   17  O   UNL     1      25.080  48.418  48.896  1.00  0.00    -0.268 OA
HETATM   18  H   UNL     1      22.675  46.817  50.178  1.00  0.00     0.163 HD
BRANCH  16  19
HETATM   19  C   UNL     1      22.848  49.188  49.106  1.00  0.00     0.032 A 
HETATM   20  C   UNL     1      23.115  50.555  48.974  1.00  0.00     0.019 A 
HETATM   21  C   UNL     1      22.058  51.465  48.842  1.00  0.00     0.024 A 
HETATM   22  C   UNL     1      20.730  51.037  48.895  1.00  0.00     0.005 A 
HETATM   23  C   UNL     1      20.472  49.669  48.988  1.00  0.00     0.024 A 
HETATM   24  C   UNL     1      21.519  48.751  49.119  1.00  0.00     0.019 A 
BRANCH  22  25
HETATM   25  N   UNL     1      19.692  51.931  48.623  1.00  0.00    -0.303 NA
HETATM   26  H   UNL     1      19.098  52.145  49.419  1.00  0.00     0.124 HD
HETATM   27  H   UNL     1      19.150  51.706  47.794  1.00  0.00     0.124 HD
ENDBRANCH  22  25
ENDBRANCH  16  19
ENDBRANCH   5  15
TORSDOF 3
ENDMDL
