MODEL 1
REMARK VINA RESULT:     -10.5      0.000      0.000
REMARK  3 active torsions:
REMARK  status: ('A' for Active; 'I' for Inactive)
REMARK    1  A    between atoms: C_8  and  C_9 
REMARK    2  A    between atoms: C_14  and  C_15 
REMARK    3  A    between atoms: C_17  and  O_18 
ROOT
HETATM    1  C   UNL     1      25.879  47.456  50.580  1.00  0.00     0.143 A 
HETATM    2  N   UNL     1      25.595  47.661  51.846  1.00  0.00    -0.223 NA
HETATM    3  C   UNL     1      25.991  46.529  52.544  1.00  0.00     0.149 A 
HETATM    4  C   UNL     1      26.555  45.620  51.660  1.00  0.00     0.046 A 
HETATM    5  C   UNL     1      27.133  44.251  51.775  1.00  0.00     0.070 C 
HETATM    6  C   UNL     1      27.089  43.579  53.159  1.00  0.00     0.042 C 
HETATM    7  C   UNL     1      25.807  43.899  53.944  1.00  0.00     0.132 C 
HETATM    8  N   UNL     1      25.807  45.194  54.586  1.00  0.00    -0.355 N 
HETATM    9  C   UNL     1      25.798  46.431  53.995  1.00  0.00     0.272 C 
HETATM   10  O   UNL     1      25.626  47.414  54.714  1.00  0.00    -0.266 OA
HETATM   11  N   UNL     1      26.491  46.245  50.432  1.00  0.00    -0.341 N 
HETATM   12  H   UNL     1      26.814  45.862  49.557  1.00  0.00     0.167 HD
HETATM   13  H   UNL     1      25.669  45.244  55.588  1.00  0.00     0.162 HD
ENDROOT
BRANCH   1  14
HETATM   14  C   UNL     1      25.552  48.413  49.488  1.00  0.00     0.059 A 
HETATM   15  C   UNL     1      24.315  48.685  48.935  1.00  0.00     0.040 A 
HETATM   16  C   UNL     1      22.947  48.176  49.173  1.00  0.00     0.071 C 
HETATM   17  N   UNL     1      24.557  49.642  47.983  1.00  0.00    -0.281 N 
HETATM   18  H   UNL     1      23.889  50.092  47.365  1.00  0.00     0.189 HD
HETATM   19  N   UNL     1      25.840  50.006  47.882  1.00  0.00    -0.179 NA
HETATM   20  C   UNL     1      26.464  49.257  48.801  1.00  0.00     0.067 A 
HETATM   21  C   UNL     1      27.931  49.384  48.996  1.00  0.00     0.073 C 
ENDBRANCH   1  14
BRANCH   6  22
HETATM   22  C   UNL     1      28.344  43.720  54.015  1.00  0.00    -0.049 A 
HETATM   23  C   UNL     1      28.486  44.865  54.827  1.00  0.00     0.044 A 
HETATM   24  C   UNL     1      29.622  45.056  55.617  1.00  0.00     0.068 A 
HETATM   25  C   UNL     1      30.630  44.093  55.600  1.00  0.00     0.037 A 
HETATM   26  C   UNL     1      30.511  42.958  54.798  1.00  0.00     0.003 A 
HETATM   27  C   UNL     1      29.377  42.773  54.008  1.00  0.00     0.007 A 
BRANCH  24  28
HETATM   28  O   UNL     1      29.863  46.124  56.438  1.00  0.00    -0.356 OA
HETATM   29  C   UNL     1      30.069  45.845  57.816  1.00  0.00     0.210 C 
ENDBRANCH  24  28
ENDBRANCH   6  22
TORSDOF 3
ENDMDL
MODEL 2
REMARK VINA RESULT:     -10.1      2.355      3.252
REMARK  3 active torsions:
REMARK  status: ('A' for Active; 'I' for Inactive)
REMARK    1  A    between atoms: C_8  and  C_9 
REMARK    2  A    between atoms: C_14  and  C_15 
REMARK    3  A    between atoms: C_17  and  O_18 
ROOT
HETATM    1  C   UNL     1      24.784  44.981  50.832  1.00  0.00     0.143 A 
HETATM    2  N   UNL     1      24.378  44.683  52.044  1.00  0.00    -0.223 NA
HETATM    3  C   UNL     1      25.486  44.244  52.753  1.00  0.00     0.149 A 
HETATM    4  C   UNL     1      26.606  44.304  51.935  1.00  0.00     0.046 A 
HETATM    5  C   UNL     1      28.049  43.961  52.089  1.00  0.00     0.070 C 
HETATM    6  C   UNL     1      28.487  43.332  53.423  1.00  0.00     0.042 C 
HETATM    7  C   UNL     1      27.442  42.371  54.010  1.00  0.00     0.132 C 
HETATM    8  N   UNL     1      26.346  43.022  54.691  1.00  0.00    -0.355 N 
HETATM    9  C   UNL     1      25.368  43.817  54.152  1.00  0.00     0.272 C 
HETATM   10  O   UNL     1      24.423  44.139  54.871  1.00  0.00    -0.266 OA
HETATM   11  N   UNL     1      26.134  44.796  50.737  1.00  0.00    -0.341 N 
HETATM   12  H   UNL     1      26.685  44.964  49.909  1.00  0.00     0.167 HD
HETATM   13  H   UNL     1      26.165  42.792  55.660  1.00  0.00     0.162 HD
ENDROOT
BRANCH   1  14
HETATM   14  C   UNL     1      23.883  45.433  49.738  1.00  0.00     0.059 A 
HETATM   15  C   UNL     1      23.657  46.724  49.297  1.00  0.00     0.040 A 
HETATM   16  C   UNL     1      24.163  48.053  49.705  1.00  0.00     0.071 C 
HETATM   17  N   UNL     1      22.760  46.595  48.269  1.00  0.00    -0.281 N 
HETATM   18  H   UNL     1      22.355  47.329  47.697  1.00  0.00     0.189 HD
HETATM   19  N   UNL     1      22.395  45.334  48.012  1.00  0.00    -0.179 NA
HETATM   20  C   UNL     1      23.077  44.609  48.909  1.00  0.00     0.067 A 
HETATM   21  C   UNL     1      22.936  43.130  48.936  1.00  0.00     0.073 C 
ENDBRANCH   1  14
BRANCH   6  22
HETATM   22  C   UNL     1      29.042  44.294  54.470  1.00  0.00    -0.049 A 
HETATM   23  C   UNL     1      30.037  43.831  55.357  1.00  0.00     0.044 A 
HETATM   24  C   UNL     1      30.568  44.662  56.346  1.00  0.00     0.068 A 
HETATM   25  C   UNL     1      30.103  45.972  56.454  1.00  0.00     0.037 A 
HETATM   26  C   UNL     1      29.115  46.445  55.592  1.00  0.00     0.003 A 
HETATM   27  C   UNL     1      28.584  45.611  54.607  1.00  0.00     0.007 A 
BRANCH  24  28
HETATM   28  O   UNL     1      31.531  44.318  57.255  1.00  0.00    -0.356 OA
HETATM   29  C   UNL     1      32.027  42.987  57.198  1.00  0.00     0.210 C 
ENDBRANCH  24  28
ENDBRANCH   6  22
TORSDOF 3
ENDMDL
MODEL 3
REMARK VINA RESULT:      -9.8      4.294      6.737
REMARK  3 active torsions:
REMARK  status: ('A' for Active; 'I' for Inactive)
REMARK    1  A    between atoms: C_8  and  C_9 
REMARK    2  A    between atoms: C_14  and  C_15 
REMARK    3  A    between atoms: C_17  and  O_18 
ROOT
HETATM    1  C   UNL     1      28.152  40.565  50.499  1.00  0.00     0.143 A 
HETATM    2  N   UNL     1      27.961  41.797  50.086  1.00  0.00    -0.223 NA
HETATM    3  C   UNL     1      27.624  42.555  51.198  1.00  0.00     0.149 A 
HETATM    4  C   UNL     1      27.637  41.745  52.325  1.00  0.00     0.046 A 
HETATM    5  C   UNL     1      27.351  41.944  53.775  1.00  0.00     0.070 C 
HETATM    6  C   UNL     1      26.866  43.336  54.215  1.00  0.00     0.042 C 
HETATM    7  C   UNL     1      25.936  44.004  53.189  1.00  0.00     0.132 C 
HETATM    8  N   UNL     1      26.619  44.609  52.068  1.00  0.00    -0.355 N 
HETATM    9  C   UNL     1      27.330  43.987  51.075  1.00  0.00     0.272 C 
HETATM   10  O   UNL     1      27.693  44.663  50.113  1.00  0.00    -0.266 OA
HETATM   11  N   UNL     1      27.997  40.500  51.854  1.00  0.00    -0.341 N 
HETATM   12  H   UNL     1      28.100  39.666  52.410  1.00  0.00     0.167 HD
HETATM   13  H   UNL     1      26.478  45.594  51.882  1.00  0.00     0.162 HD
ENDROOT
BRANCH   1  14
HETATM   14  C   UNL     1      28.471  39.424  49.598  1.00  0.00     0.059 A 
HETATM   15  C   UNL     1      29.271  38.328  49.861  1.00  0.00     0.040 A 
HETATM   16  C   UNL     1      30.068  37.893  51.029  1.00  0.00     0.071 C 
HETATM   17  N   UNL     1      29.225  37.574  48.717  1.00  0.00    -0.281 N 
HETATM   18  H   UNL     1      29.690  36.692  48.531  1.00  0.00     0.189 HD
HETATM   19  N   UNL     1      28.463  38.091  47.747  1.00  0.00    -0.179 NA
HETATM   20  C   UNL     1      27.994  39.231  48.275  1.00  0.00     0.067 A 
HETATM   21  C   UNL     1      27.086  40.101  47.484  1.00  0.00     0.073 C 
ENDBRANCH   1  14
BRANCH   6  22
HETATM   22  C   UNL     1      27.939  44.290  54.731  1.00  0.00    -0.049 A 
HETATM   23  C   UNL     1      29.197  43.763  55.093  1.00  0.00     0.044 A 
HETATM   24  C   UNL     1      30.211  44.586  55.589  1.00  0.00     0.068 A 
HETATM   25  C   UNL     1      29.970  45.952  55.726  1.00  0.00     0.037 A 
HETATM   26  C   UNL     1      28.731  46.490  55.381  1.00  0.00     0.003 A 
HETATM   27  C   UNL     1      27.719  45.665  54.889  1.00  0.00     0.007 A 
BRANCH  24  28
HETATM   28  O   UNL     1      31.462  44.183  55.969  1.00  0.00    -0.356 OA
HETATM   29  C   UNL     1      31.548  43.319  57.094  1.00  0.00     0.210 C 
ENDBRANCH  24  28
ENDBRANCH   6  22
TORSDOF 3
ENDMDL
MODEL 4
REMARK VINA RESULT:      -9.6      2.232      2.833
REMARK  3 active torsions:
REMARK  status: ('A' for Active; 'I' for Inactive)
REMARK    1  A    between atoms: C_8  and  C_9 
REMARK    2  A    between atoms: C_14  and  C_15 
REMARK    3  A    between atoms: C_17  and  O_18 
ROOT
HETATM    1  C   UNL     1      24.915  44.939  50.873  1.00  0.00     0.143 A 
HETATM    2  N   UNL     1      24.523  44.625  52.086  1.00  0.00    -0.223 NA
HETATM    3  C   UNL     1      25.621  44.096  52.749  1.00  0.00     0.149 A 
HETATM    4  C   UNL     1      26.720  44.116  51.901  1.00  0.00     0.046 A 
HETATM    5  C   UNL     1      28.143  43.682  52.002  1.00  0.00     0.070 C 
HETATM    6  C   UNL     1      28.577  42.982  53.303  1.00  0.00     0.042 C 
HETATM    7  C   UNL     1      27.491  42.067  53.887  1.00  0.00     0.132 C 
HETATM    8  N   UNL     1      26.455  42.759  54.620  1.00  0.00    -0.355 N 
HETATM    9  C   UNL     1      25.514  43.630  54.136  1.00  0.00     0.272 C 
HETATM   10  O   UNL     1      24.609  43.983  54.891  1.00  0.00    -0.266 OA
HETATM   11  N   UNL     1      26.248  44.676  50.733  1.00  0.00    -0.341 N 
HETATM   12  H   UNL     1      26.786  44.838  49.897  1.00  0.00     0.167 HD
HETATM   13  H   UNL     1      26.286  42.507  55.586  1.00  0.00     0.162 HD
ENDROOT
BRANCH   1  14
HETATM   14  C   UNL     1      24.014  45.481  49.820  1.00  0.00     0.059 A 
HETATM   15  C   UNL     1      23.089  44.797  49.054  1.00  0.00     0.040 A 
HETATM   16  C   UNL     1      22.669  43.381  48.970  1.00  0.00     0.071 C 
HETATM   17  N   UNL     1      22.518  45.752  48.253  1.00  0.00    -0.281 N 
HETATM   18  H   UNL     1      21.793  45.629  47.553  1.00  0.00     0.189 HD
HETATM   19  N   UNL     1      22.996  46.987  48.442  1.00  0.00    -0.179 NA
HETATM   20  C   UNL     1      23.918  46.835  49.403  1.00  0.00     0.067 A 
HETATM   21  C   UNL     1      24.680  48.010  49.898  1.00  0.00     0.073 C 
ENDBRANCH   1  14
BRANCH   6  22
HETATM   22  C   UNL     1      29.218  43.873  54.363  1.00  0.00    -0.049 A 
HETATM   23  C   UNL     1      28.619  45.116  54.657  1.00  0.00     0.044 A 
HETATM   24  C   UNL     1      29.171  45.980  55.605  1.00  0.00     0.068 A 
HETATM   25  C   UNL     1      30.335  45.601  56.272  1.00  0.00     0.037 A 
HETATM   26  C   UNL     1      30.947  44.380  55.989  1.00  0.00     0.003 A 
HETATM   27  C   UNL     1      30.394  43.521  55.039  1.00  0.00     0.007 A 
BRANCH  24  28
HETATM   28  O   UNL     1      28.676  47.203  55.966  1.00  0.00    -0.356 OA
HETATM   29  C   UNL     1      27.314  47.466  55.656  1.00  0.00     0.210 C 
ENDBRANCH  24  28
ENDBRANCH   6  22
TORSDOF 3
ENDMDL
MODEL 5
REMARK VINA RESULT:      -9.5      3.819      5.896
REMARK  3 active torsions:
REMARK  status: ('A' for Active; 'I' for Inactive)
REMARK    1  A    between atoms: C_8  and  C_9 
REMARK    2  A    between atoms: C_14  and  C_15 
REMARK    3  A    between atoms: C_17  and  O_18 
ROOT
HETATM    1  C   UNL     1      26.154  41.958  49.827  1.00  0.00     0.143 A 
HETATM    2  N   UNL     1      26.660  43.076  49.359  1.00  0.00    -0.223 NA
HETATM    3  C   UNL     1      26.412  44.066  50.299  1.00  0.00     0.149 A 
HETATM    4  C   UNL     1      25.749  43.509  51.385  1.00  0.00     0.046 A 
HETATM    5  C   UNL     1      25.200  44.028  52.670  1.00  0.00     0.070 C 
HETATM    6  C   UNL     1      25.296  45.544  52.918  1.00  0.00     0.042 C 
HETATM    7  C   UNL     1      25.088  46.378  51.644  1.00  0.00     0.132 C 
HETATM    8  N   UNL     1      26.247  46.458  50.784  1.00  0.00    -0.355 N 
HETATM    9  C   UNL     1      26.842  45.449  50.072  1.00  0.00     0.272 C 
HETATM   10  O   UNL     1      27.718  45.752  49.262  1.00  0.00    -0.266 OA
HETATM   11  N   UNL     1      25.622  42.174  51.066  1.00  0.00    -0.341 N 
HETATM   12  H   UNL     1      25.182  41.469  51.638  1.00  0.00     0.167 HD
HETATM   13  H   UNL     1      26.622  47.369  50.550  1.00  0.00     0.162 HD
ENDROOT
BRANCH   1  14
HETATM   14  C   UNL     1      26.156  40.668  49.086  1.00  0.00     0.059 A 
HETATM   15  C   UNL     1      25.234  40.213  48.162  1.00  0.00     0.040 A 
HETATM   16  C   UNL     1      23.984  40.768  47.599  1.00  0.00     0.071 C 
HETATM   17  N   UNL     1      25.701  38.985  47.772  1.00  0.00    -0.281 N 
HETATM   18  H   UNL     1      25.288  38.344  47.102  1.00  0.00     0.189 HD
HETATM   19  N   UNL     1      26.842  38.616  48.364  1.00  0.00    -0.179 NA
HETATM   20  C   UNL     1      27.133  39.642  49.176  1.00  0.00     0.067 A 
HETATM   21  C   UNL     1      28.358  39.604  50.015  1.00  0.00     0.073 C 
ENDBRANCH   1  14
BRANCH   6  22
HETATM   22  C   UNL     1      26.497  46.018  53.730  1.00  0.00    -0.049 A 
HETATM   23  C   UNL     1      27.486  45.078  54.090  1.00  0.00     0.044 A 
HETATM   24  C   UNL     1      28.598  45.451  54.849  1.00  0.00     0.068 A 
HETATM   25  C   UNL     1      28.728  46.778  55.255  1.00  0.00     0.037 A 
HETATM   26  C   UNL     1      27.757  47.720  54.917  1.00  0.00     0.003 A 
HETATM   27  C   UNL     1      26.647  47.343  54.161  1.00  0.00     0.007 A 
BRANCH  24  28
HETATM   28  O   UNL     1      29.612  44.626  55.252  1.00  0.00    -0.356 OA
HETATM   29  C   UNL     1      30.446  45.094  56.304  1.00  0.00     0.210 C 
ENDBRANCH  24  28
ENDBRANCH   6  22
TORSDOF 3
ENDMDL
MODEL 6
REMARK VINA RESULT:      -9.3     12.329     14.111
REMARK  3 active torsions:
REMARK  status: ('A' for Active; 'I' for Inactive)
REMARK    1  A    between atoms: C_8  and  C_9 
REMARK    2  A    between atoms: C_14  and  C_15 
REMARK    3  A    between atoms: C_17  and  O_18 
ROOT
HETATM    1  C   UNL     1      26.040  49.940  38.500  1.00  0.00     0.143 A 
HETATM    2  N   UNL     1      27.095  50.374  37.849  1.00  0.00    -0.223 NA
HETATM    3  C   UNL     1      27.884  51.065  38.757  1.00  0.00     0.149 A 
HETATM    4  C   UNL     1      27.285  51.021  40.008  1.00  0.00     0.046 A 
HETATM    5  C   UNL     1      27.606  51.573  41.355  1.00  0.00     0.070 C 
HETATM    6  C   UNL     1      28.857  52.462  41.474  1.00  0.00     0.042 C 
HETATM    7  C   UNL     1      29.079  53.358  40.246  1.00  0.00     0.132 C 
HETATM    8  N   UNL     1      29.679  52.687  39.116  1.00  0.00    -0.355 N 
HETATM    9  C   UNL     1      29.142  51.692  38.340  1.00  0.00     0.272 C 
HETATM   10  O   UNL     1      29.744  51.369  37.316  1.00  0.00    -0.266 OA
HETATM   11  N   UNL     1      26.135  50.285  39.818  1.00  0.00    -0.341 N 
HETATM   12  H   UNL     1      25.454  50.059  40.526  1.00  0.00     0.167 HD
HETATM   13  H   UNL     1      30.548  53.045  38.737  1.00  0.00     0.162 HD
ENDROOT
BRANCH   1  14
HETATM   14  C   UNL     1      24.915  49.201  37.866  1.00  0.00     0.059 A 
HETATM   15  C   UNL     1      23.559  49.438  37.995  1.00  0.00     0.040 A 
HETATM   16  C   UNL     1      22.755  50.421  38.753  1.00  0.00     0.071 C 
HETATM   17  N   UNL     1      22.958  48.495  37.203  1.00  0.00    -0.281 N 
HETATM   18  H   UNL     1      21.966  48.353  37.043  1.00  0.00     0.189 HD
HETATM   19  N   UNL     1      23.811  47.677  36.577  1.00  0.00    -0.179 NA
HETATM   20  C   UNL     1      25.019  48.099  36.977  1.00  0.00     0.067 A 
HETATM   21  C   UNL     1      26.247  47.427  36.480  1.00  0.00     0.073 C 
ENDBRANCH   1  14
BRANCH   6  22
HETATM   22  C   UNL     1      30.138  51.765  41.922  1.00  0.00    -0.049 A 
HETATM   23  C   UNL     1      30.232  50.364  41.781  1.00  0.00     0.044 A 
HETATM   24  C   UNL     1      31.373  49.670  42.191  1.00  0.00     0.068 A 
HETATM   25  C   UNL     1      32.435  50.380  42.748  1.00  0.00     0.037 A 
HETATM   26  C   UNL     1      32.358  51.764  42.905  1.00  0.00     0.003 A 
HETATM   27  C   UNL     1      31.215  52.453  42.497  1.00  0.00     0.007 A 
BRANCH  24  28
HETATM   28  O   UNL     1      31.571  48.320  42.101  1.00  0.00    -0.356 OA
HETATM   29  C   UNL     1      32.701  47.880  41.359  1.00  0.00     0.210 C 
ENDBRANCH  24  28
ENDBRANCH   6  22
TORSDOF 3
ENDMDL
MODEL 7
REMARK VINA RESULT:      -9.3     12.322     14.166
REMARK  3 active torsions:
REMARK  status: ('A' for Active; 'I' for Inactive)
REMARK    1  A    between atoms: C_8  and  C_9 
REMARK    2  A    between atoms: C_14  and  C_15 
REMARK    3  A    between atoms: C_17  and  O_18 
ROOT
HETATM    1  C   UNL     1      26.052  49.898  38.438  1.00  0.00     0.143 A 
HETATM    2  N   UNL     1      27.112  50.345  37.805  1.00  0.00    -0.223 NA
HETATM    3  C   UNL     1      27.877  51.045  38.727  1.00  0.00     0.149 A 
HETATM    4  C   UNL     1      27.258  50.993  39.968  1.00  0.00     0.046 A 
HETATM    5  C   UNL     1      27.551  51.547  41.321  1.00  0.00     0.070 C 
HETATM    6  C   UNL     1      28.788  52.451  41.462  1.00  0.00     0.042 C 
HETATM    7  C   UNL     1      29.020  53.351  40.238  1.00  0.00     0.132 C 
HETATM    8  N   UNL     1      29.647  52.688  39.118  1.00  0.00    -0.355 N 
HETATM    9  C   UNL     1      29.135  51.688  38.332  1.00  0.00     0.272 C 
HETATM   10  O   UNL     1      29.757  51.373  37.318  1.00  0.00    -0.266 OA
HETATM   11  N   UNL     1      26.121  50.243  39.758  1.00  0.00    -0.341 N 
HETATM   12  H   UNL     1      25.430  50.008  40.455  1.00  0.00     0.167 HD
HETATM   13  H   UNL     1      30.517  53.057  38.754  1.00  0.00     0.162 HD
ENDROOT
BRANCH   1  14
HETATM   14  C   UNL     1      24.946  49.147  37.785  1.00  0.00     0.059 A 
HETATM   15  C   UNL     1      25.039  48.071  36.922  1.00  0.00     0.040 A 
HETATM   16  C   UNL     1      26.169  47.312  36.344  1.00  0.00     0.071 C 
HETATM   17  N   UNL     1      23.742  47.745  36.622  1.00  0.00    -0.281 N 
HETATM   18  H   UNL     1      23.408  47.004  36.014  1.00  0.00     0.189 HD
HETATM   19  N   UNL     1      22.828  48.517  37.220  1.00  0.00    -0.179 NA
HETATM   20  C   UNL     1      23.555  49.385  37.938  1.00  0.00     0.067 A 
HETATM   21  C   UNL     1      22.880  50.421  38.761  1.00  0.00     0.073 C 
ENDBRANCH   1  14
BRANCH   6  22
HETATM   22  C   UNL     1      30.070  51.768  41.930  1.00  0.00    -0.049 A 
HETATM   23  C   UNL     1      30.188  50.370  41.779  1.00  0.00     0.044 A 
HETATM   24  C   UNL     1      31.330  49.690  42.206  1.00  0.00     0.068 A 
HETATM   25  C   UNL     1      32.370  50.410  42.792  1.00  0.00     0.037 A 
HETATM   26  C   UNL     1      32.269  51.791  42.958  1.00  0.00     0.003 A 
HETATM   27  C   UNL     1      31.125  52.467  42.532  1.00  0.00     0.007 A 
BRANCH  24  28
HETATM   28  O   UNL     1      31.549  48.343  42.109  1.00  0.00    -0.356 OA
HETATM   29  C   UNL     1      32.687  47.926  41.365  1.00  0.00     0.210 C 
ENDBRANCH  24  28
ENDBRANCH   6  22
TORSDOF 3
ENDMDL
MODEL 8
REMARK VINA RESULT:      -9.1      2.030      2.963
REMARK  3 active torsions:
REMARK  status: ('A' for Active; 'I' for Inactive)
REMARK    1  A    between atoms: C_8  and  C_9 
REMARK    2  A    between atoms: C_14  and  C_15 
REMARK    3  A    between atoms: C_17  and  O_18 
ROOT
HETATM    1  C   UNL     1      25.216  47.538  50.293  1.00  0.00     0.143 A 
HETATM    2  N   UNL     1      25.786  47.851  51.433  1.00  0.00    -0.223 NA
HETATM    3  C   UNL     1      25.891  46.684  52.175  1.00  0.00     0.149 A 
HETATM    4  C   UNL     1      25.382  45.625  51.436  1.00  0.00     0.046 A 
HETATM    5  C   UNL     1      25.191  44.165  51.671  1.00  0.00     0.070 C 
HETATM    6  C   UNL     1      25.572  43.617  53.058  1.00  0.00     0.042 C 
HETATM    7  C   UNL     1      25.245  44.589  54.201  1.00  0.00     0.132 C 
HETATM    8  N   UNL     1      26.205  45.656  54.373  1.00  0.00    -0.355 N 
HETATM    9  C   UNL     1      26.479  46.693  53.519  1.00  0.00     0.272 C 
HETATM   10  O   UNL     1      27.210  47.597  53.923  1.00  0.00    -0.266 OA
HETATM   11  N   UNL     1      24.986  46.192  50.244  1.00  0.00    -0.341 N 
HETATM   12  H   UNL     1      24.564  45.705  49.469  1.00  0.00     0.167 HD
HETATM   13  H   UNL     1      26.664  45.763  55.269  1.00  0.00     0.162 HD
ENDROOT
BRANCH   1  14
HETATM   14  C   UNL     1      24.867  48.525  49.236  1.00  0.00     0.059 A 
HETATM   15  C   UNL     1      23.620  48.803  48.706  1.00  0.00     0.040 A 
HETATM   16  C   UNL     1      22.260  48.271  48.944  1.00  0.00     0.071 C 
HETATM   17  N   UNL     1      23.840  49.792  47.784  1.00  0.00    -0.281 N 
HETATM   18  H   UNL     1      23.160  50.255  47.189  1.00  0.00     0.189 HD
HETATM   19  N   UNL     1      25.118  50.173  47.679  1.00  0.00    -0.179 NA
HETATM   20  C   UNL     1      25.761  49.401  48.567  1.00  0.00     0.067 A 
HETATM   21  C   UNL     1      27.229  49.538  48.748  1.00  0.00     0.073 C 
ENDBRANCH   1  14
BRANCH   6  22
HETATM   22  C   UNL     1      26.972  43.022  53.185  1.00  0.00    -0.049 A 
HETATM   23  C   UNL     1      27.330  41.946  52.345  1.00  0.00     0.044 A 
HETATM   24  C   UNL     1      28.591  41.351  52.430  1.00  0.00     0.068 A 
HETATM   25  C   UNL     1      29.508  41.833  53.362  1.00  0.00     0.037 A 
HETATM   26  C   UNL     1      29.169  42.890  54.207  1.00  0.00     0.003 A 
HETATM   27  C   UNL     1      27.908  43.480  54.121  1.00  0.00     0.007 A 
BRANCH  24  28
HETATM   28  O   UNL     1      29.042  40.307  51.669  1.00  0.00    -0.356 OA
HETATM   29  C   UNL     1      28.321  40.017  50.479  1.00  0.00     0.210 C 
ENDBRANCH  24  28
ENDBRANCH   6  22
TORSDOF 3
ENDMDL
MODEL 9
REMARK VINA RESULT:      -9.0      2.906      4.469
REMARK  3 active torsions:
REMARK  status: ('A' for Active; 'I' for Inactive)
REMARK    1  A    between atoms: C_8  and  C_9 
REMARK    2  A    between atoms: C_14  and  C_15 
REMARK    3  A    between atoms: C_17  and  O_18 
ROOT
HETATM    1  C   UNL     1      22.698  47.823  49.124  1.00  0.00     0.143 A 
HETATM    2  N   UNL     1      22.779  46.539  48.864  1.00  0.00    -0.223 NA
HETATM    3  C   UNL     1      23.936  46.068  49.468  1.00  0.00     0.149 A 
HETATM    4  C   UNL     1      24.560  47.112  50.136  1.00  0.00     0.046 A 
HETATM    5  C   UNL     1      25.810  47.261  50.935  1.00  0.00     0.070 C 
HETATM    6  C   UNL     1      26.720  46.026  51.058  1.00  0.00     0.042 C 
HETATM    7  C   UNL     1      26.769  45.182  49.775  1.00  0.00     0.132 C 
HETATM    8  N   UNL     1      25.632  44.310  49.589  1.00  0.00    -0.355 N 
HETATM    9  C   UNL     1      24.328  44.659  49.354  1.00  0.00     0.272 C 
HETATM   10  O   UNL     1      23.535  43.767  49.052  1.00  0.00    -0.266 OA
HETATM   11  N   UNL     1      23.742  48.201  49.920  1.00  0.00    -0.341 N 
HETATM   12  H   UNL     1      23.899  49.135  50.265  1.00  0.00     0.167 HD
HETATM   13  H   UNL     1      25.789  43.315  49.486  1.00  0.00     0.162 HD
ENDROOT
BRANCH   1  14
HETATM   14  C   UNL     1      21.628  48.715  48.601  1.00  0.00     0.059 A 
HETATM   15  C   UNL     1      20.260  48.524  48.651  1.00  0.00     0.040 A 
HETATM   16  C   UNL     1      19.389  47.453  49.182  1.00  0.00     0.071 C 
HETATM   17  N   UNL     1      19.726  49.633  48.047  1.00  0.00    -0.281 N 
HETATM   18  H   UNL     1      18.747  49.852  47.895  1.00  0.00     0.189 HD
HETATM   19  N   UNL     1      20.634  50.517  47.619  1.00  0.00    -0.179 NA
HETATM   20  C   UNL     1      21.809  49.964  47.952  1.00  0.00     0.067 A 
HETATM   21  C   UNL     1      23.079  50.666  47.638  1.00  0.00     0.073 C 
ENDBRANCH   1  14
BRANCH   6  22
HETATM   22  C   UNL     1      26.528  45.171  52.307  1.00  0.00    -0.049 A 
HETATM   23  C   UNL     1      27.519  44.222  52.639  1.00  0.00     0.044 A 
HETATM   24  C   UNL     1      27.387  43.400  53.760  1.00  0.00     0.068 A 
HETATM   25  C   UNL     1      26.255  43.524  54.564  1.00  0.00     0.037 A 
HETATM   26  C   UNL     1      25.261  44.450  54.248  1.00  0.00     0.003 A 
HETATM   27  C   UNL     1      25.395  45.268  53.125  1.00  0.00     0.007 A 
BRANCH  24  28
HETATM   28  O   UNL     1      28.282  42.450  54.172  1.00  0.00    -0.356 OA
HETATM   29  C   UNL     1      28.330  41.241  53.426  1.00  0.00     0.210 C 
ENDBRANCH  24  28
ENDBRANCH   6  22
TORSDOF 3
ENDMDL
MODEL 10
REMARK VINA RESULT:      -8.8      5.434     10.838
REMARK  3 active torsions:
REMARK  status: ('A' for Active; 'I' for Inactive)
REMARK    1  A    between atoms: C_8  and  C_9 
REMARK    2  A    between atoms: C_14  and  C_15 
REMARK    3  A    between atoms: C_17  and  O_18 
ROOT
HETATM    1  C   UNL     1      23.461  48.748  49.301  1.00  0.00     0.143 A 
HETATM    2  N   UNL     1      22.460  47.906  49.187  1.00  0.00    -0.223 NA
HETATM    3  C   UNL     1      21.291  48.651  49.207  1.00  0.00     0.149 A 
HETATM    4  C   UNL     1      21.608  49.998  49.313  1.00  0.00     0.046 A 
HETATM    5  C   UNL     1      20.829  51.265  49.405  1.00  0.00     0.070 C 
HETATM    6  C   UNL     1      19.295  51.149  49.454  1.00  0.00     0.042 C 
HETATM    7  C   UNL     1      18.807  49.932  50.255  1.00  0.00     0.132 C 
HETATM    8  N   UNL     1      18.867  48.679  49.536  1.00  0.00    -0.355 N 
HETATM    9  C   UNL     1      19.979  48.001  49.111  1.00  0.00     0.272 C 
HETATM   10  O   UNL     1      19.828  46.864  48.666  1.00  0.00    -0.266 OA
HETATM   11  N   UNL     1      22.986  50.028  49.347  1.00  0.00    -0.341 N 
HETATM   12  H   UNL     1      23.557  50.855  49.425  1.00  0.00     0.167 HD
HETATM   13  H   UNL     1      18.018  48.139  49.421  1.00  0.00     0.162 HD
ENDROOT
BRANCH   1  14
HETATM   14  C   UNL     1      24.890  48.340  49.384  1.00  0.00     0.059 A 
HETATM   15  C   UNL     1      25.436  47.287  50.094  1.00  0.00     0.040 A 
HETATM   16  C   UNL     1      24.876  46.247  50.984  1.00  0.00     0.071 C 
HETATM   17  N   UNL     1      26.779  47.339  49.825  1.00  0.00    -0.281 N 
HETATM   18  H   UNL     1      27.509  46.724  50.170  1.00  0.00     0.189 HD
HETATM   19  N   UNL     1      27.138  48.331  49.003  1.00  0.00    -0.179 NA
HETATM   20  C   UNL     1      25.986  48.956  48.725  1.00  0.00     0.067 A 
HETATM   21  C   UNL     1      25.976  50.133  47.819  1.00  0.00     0.073 C 
ENDBRANCH   1  14
BRANCH   6  22
HETATM   22  C   UNL     1      18.567  51.295  48.121  1.00  0.00    -0.049 A 
HETATM   23  C   UNL     1      17.302  51.922  48.104  1.00  0.00     0.044 A 
HETATM   24  C   UNL     1      16.583  52.067  46.916  1.00  0.00     0.068 A 
HETATM   25  C   UNL     1      17.128  51.583  45.728  1.00  0.00     0.037 A 
HETATM   26  C   UNL     1      18.373  50.953  45.726  1.00  0.00     0.003 A 
HETATM   27  C   UNL     1      19.087  50.807  46.915  1.00  0.00     0.007 A 
BRANCH  24  28
HETATM   28  O   UNL     1      15.354  52.655  46.784  1.00  0.00    -0.356 OA
HETATM   29  C   UNL     1      15.052  53.244  45.526  1.00  0.00     0.210 C 
ENDBRANCH  24  28
ENDBRANCH   6  22
TORSDOF 3
ENDMDL
