MODEL 1
REMARK VINA RESULT:      -9.6      0.000      0.000
REMARK  6 active torsions:
REMARK  status: ('A' for Active; 'I' for Inactive)
REMARK    1  A    between atoms: C_4  and  C_5 
REMARK    2  A    between atoms: C_5  and  N_6 
REMARK    3  A    between atoms: C_7  and  N_8 
REMARK    4  A    between atoms: N_8  and  N_9 
REMARK       I    between atoms: N_9  and  C_10 
REMARK    5  A    between atoms: C_10  and  C_11 
REMARK    6  A    between atoms: C_19  and  C_20 
ROOT
HETATM    1  N   UNL     1      25.126  42.893  49.399  1.00  0.00    -0.168 NA
HETATM    2  C   UNL     1      24.361  43.575  50.333  1.00  0.00     0.250 C 
HETATM    3  O   UNL     1      23.317  43.070  50.742  1.00  0.00    -0.272 OA
HETATM    4  H   UNL     1      24.652  42.044  49.092  1.00  0.00     0.156 HD
ENDROOT
BRANCH   2   5
HETATM    5  C   UNL     1      24.742  44.960  50.735  1.00  0.00     0.042 A 
HETATM    6  C   UNL     1      25.069  45.238  52.088  1.00  0.00     0.008 A 
HETATM    7  C   UNL     1      25.448  46.563  52.379  1.00  0.00     0.068 A 
HETATM    8  C   UNL     1      25.037  44.301  53.156  1.00  0.00     0.015 A 
HETATM    9  C   UNL     1      25.793  46.901  53.681  1.00  0.00     0.032 A 
HETATM   10  N   UNL     1      25.486  47.534  51.455  1.00  0.00    -0.248 NA
HETATM   11  C   UNL     1      25.771  45.968  54.720  1.00  0.00     0.002 A 
HETATM   12  C   UNL     1      25.388  44.664  54.456  1.00  0.00     0.001 A 
HETATM   13  C   UNL     1      25.149  47.254  50.177  1.00  0.00     0.069 A 
HETATM   14  C   UNL     1      24.809  45.972  49.777  1.00  0.00     0.050 A 
BRANCH  13  15
HETATM   15  C   UNL     1      25.158  48.403  49.255  1.00  0.00    -0.005 A 
HETATM   16  C   UNL     1      26.366  48.992  48.854  1.00  0.00     0.033 A 
HETATM   17  C   UNL     1      26.340  50.081  47.999  1.00  0.00     0.117 A 
HETATM   18  N   UNL     1      25.207  50.630  47.516  1.00  0.00    -0.273 NA
HETATM   19  C   UNL     1      24.049  50.072  47.924  1.00  0.00     0.117 A 
HETATM   20  C   UNL     1      23.975  48.977  48.772  1.00  0.00     0.033 A 
ENDBRANCH  13  15
ENDBRANCH   2   5
BRANCH   1  21
HETATM   21  N   UNL     1      26.499  42.685  49.641  1.00  0.00    -0.291 N 
HETATM   22  H   UNL     1      27.097  43.440  49.329  1.00  0.00     0.183 HD
BRANCH  21  23
HETATM   23  C   UNL     1      26.943  41.792  50.583  1.00  0.00     0.182 C 
HETATM   24  N   UNL     1      27.809  42.268  51.519  1.00  0.00    -0.362 N 
HETATM   25  H   UNL     1      28.110  41.558  52.179  1.00  0.00     0.162 HD
HETATM   26  S   UNL     1      26.574  40.163  50.635  1.00  0.00    -0.040 SA
BRANCH  24  27
HETATM   27  C   UNL     1      28.261  43.622  51.796  1.00  0.00     0.160 C 
BRANCH  27  28
HETATM   28  C   UNL     1      29.013  43.693  53.098  1.00  0.00    -0.041 A 
HETATM   29  C   UNL     1      28.727  44.700  54.032  1.00  0.00     0.009 A 
HETATM   30  C   UNL     1      29.417  44.760  55.244  1.00  0.00     0.001 A 
HETATM   31  C   UNL     1      30.407  43.822  55.530  1.00  0.00     0.000 A 
HETATM   32  C   UNL     1      30.707  42.822  54.608  1.00  0.00     0.001 A 
HETATM   33  C   UNL     1      30.013  42.756  53.398  1.00  0.00     0.009 A 
ENDBRANCH  27  28
ENDBRANCH  24  27
ENDBRANCH  21  23
ENDBRANCH   1  21
TORSDOF 6
ENDMDL
MODEL 2
REMARK VINA RESULT:      -9.2      3.068      6.186
REMARK  6 active torsions:
REMARK  status: ('A' for Active; 'I' for Inactive)
REMARK    1  A    between atoms: C_4  and  C_5 
REMARK    2  A    between atoms: C_5  and  N_6 
REMARK    3  A    between atoms: C_7  and  N_8 
REMARK    4  A    between atoms: N_8  and  N_9 
REMARK       I    between atoms: N_9  and  C_10 
REMARK    5  A    between atoms: C_10  and  C_11 
REMARK    6  A    between atoms: C_19  and  C_20 
ROOT
HETATM    1  N   UNL     1      25.479  47.501  52.707  1.00  0.00    -0.168 NA
HETATM    2  C   UNL     1      26.025  47.179  51.475  1.00  0.00     0.250 C 
HETATM    3  O   UNL     1      26.542  48.062  50.795  1.00  0.00    -0.272 OA
HETATM    4  H   UNL     1      25.504  48.508  52.864  1.00  0.00     0.156 HD
ENDROOT
BRANCH   2   5
HETATM    5  C   UNL     1      25.870  45.798  50.934  1.00  0.00     0.042 A 
HETATM    6  C   UNL     1      24.838  45.516  50.000  1.00  0.00     0.008 A 
HETATM    7  C   UNL     1      24.777  44.196  49.515  1.00  0.00     0.068 A 
HETATM    8  C   UNL     1      23.871  46.446  49.531  1.00  0.00     0.015 A 
HETATM    9  C   UNL     1      23.800  43.855  48.589  1.00  0.00     0.032 A 
HETATM   10  N   UNL     1      25.621  43.230  49.909  1.00  0.00    -0.248 NA
HETATM   11  C   UNL     1      22.864  44.781  48.125  1.00  0.00     0.002 A 
HETATM   12  C   UNL     1      22.898  46.081  48.601  1.00  0.00     0.001 A 
HETATM   13  C   UNL     1      26.582  43.512  50.817  1.00  0.00     0.069 A 
HETATM   14  C   UNL     1      26.757  44.792  51.319  1.00  0.00     0.050 A 
BRANCH  13  15
HETATM   15  C   UNL     1      27.413  42.369  51.234  1.00  0.00    -0.005 A 
HETATM   16  C   UNL     1      27.676  41.313  50.350  1.00  0.00     0.033 A 
HETATM   17  C   UNL     1      28.447  40.246  50.779  1.00  0.00     0.117 A 
HETATM   18  N   UNL     1      28.971  40.147  52.018  1.00  0.00    -0.273 NA
HETATM   19  C   UNL     1      28.694  41.156  52.868  1.00  0.00     0.117 A 
HETATM   20  C   UNL     1      27.938  42.268  52.529  1.00  0.00     0.033 A 
ENDBRANCH  13  15
ENDBRANCH   2   5
BRANCH   1  21
HETATM   21  N   UNL     1      25.857  46.770  53.851  1.00  0.00    -0.291 N 
HETATM   22  H   UNL     1      25.816  45.765  53.737  1.00  0.00     0.183 HD
BRANCH  21  23
HETATM   23  C   UNL     1      26.619  47.324  54.848  1.00  0.00     0.182 C 
HETATM   24  N   UNL     1      27.737  46.641  55.216  1.00  0.00    -0.362 N 
HETATM   25  H   UNL     1      28.252  47.095  55.965  1.00  0.00     0.162 HD
HETATM   26  S   UNL     1      26.256  48.717  55.695  1.00  0.00    -0.040 SA
BRANCH  24  27
HETATM   27  C   UNL     1      28.368  45.465  54.638  1.00  0.00     0.160 C 
BRANCH  27  28
HETATM   28  C   UNL     1      29.433  44.912  55.546  1.00  0.00    -0.041 A 
HETATM   29  C   UNL     1      30.120  43.737  55.206  1.00  0.00     0.009 A 
HETATM   30  C   UNL     1      31.115  43.230  56.043  1.00  0.00     0.001 A 
HETATM   31  C   UNL     1      31.428  43.884  57.232  1.00  0.00     0.000 A 
HETATM   32  C   UNL     1      30.747  45.047  57.587  1.00  0.00     0.001 A 
HETATM   33  C   UNL     1      29.756  45.560  56.748  1.00  0.00     0.009 A 
ENDBRANCH  27  28
ENDBRANCH  24  27
ENDBRANCH  21  23
ENDBRANCH   1  21
TORSDOF 6
ENDMDL
MODEL 3
REMARK VINA RESULT:      -9.1      4.134      8.584
REMARK  6 active torsions:
REMARK  status: ('A' for Active; 'I' for Inactive)
REMARK    1  A    between atoms: C_4  and  C_5 
REMARK    2  A    between atoms: C_5  and  N_6 
REMARK    3  A    between atoms: C_7  and  N_8 
REMARK    4  A    between atoms: N_8  and  N_9 
REMARK       I    between atoms: N_9  and  C_10 
REMARK    5  A    between atoms: C_10  and  C_11 
REMARK    6  A    between atoms: C_19  and  C_20 
ROOT
HETATM    1  N   UNL     1      21.080  44.632  48.713  1.00  0.00    -0.168 NA
HETATM    2  C   UNL     1      22.191  45.237  48.145  1.00  0.00     0.250 C 
HETATM    3  O   UNL     1      22.554  44.898  47.020  1.00  0.00    -0.272 OA
HETATM    4  H   UNL     1      20.735  43.879  48.120  1.00  0.00     0.156 HD
ENDROOT
BRANCH   2   5
HETATM    5  C   UNL     1      23.005  46.195  48.948  1.00  0.00     0.042 A 
HETATM    6  C   UNL     1      22.906  47.589  48.697  1.00  0.00     0.008 A 
HETATM    7  C   UNL     1      23.684  48.429  49.518  1.00  0.00     0.068 A 
HETATM    8  C   UNL     1      22.101  48.194  47.694  1.00  0.00     0.015 A 
HETATM    9  C   UNL     1      23.624  49.804  49.336  1.00  0.00     0.032 A 
HETATM   10  N   UNL     1      24.498  47.965  50.478  1.00  0.00    -0.248 NA
HETATM   11  C   UNL     1      22.819  50.387  48.356  1.00  0.00     0.002 A 
HETATM   12  C   UNL     1      22.058  49.578  47.529  1.00  0.00     0.001 A 
HETATM   13  C   UNL     1      24.597  46.633  50.685  1.00  0.00     0.069 A 
HETATM   14  C   UNL     1      23.837  45.725  49.964  1.00  0.00     0.050 A 
BRANCH  13  15
HETATM   15  C   UNL     1      25.568  46.223  51.714  1.00  0.00    -0.005 A 
HETATM   16  C   UNL     1      26.253  45.004  51.610  1.00  0.00     0.033 A 
HETATM   17  C   UNL     1      27.148  44.641  52.603  1.00  0.00     0.117 A 
HETATM   18  N   UNL     1      27.410  45.395  53.690  1.00  0.00    -0.273 NA
HETATM   19  C   UNL     1      26.730  46.555  53.794  1.00  0.00     0.117 A 
HETATM   20  C   UNL     1      25.820  47.005  52.849  1.00  0.00     0.033 A 
ENDBRANCH  13  15
ENDBRANCH   2   5
BRANCH   1  21
HETATM   21  N   UNL     1      20.040  45.431  49.230  1.00  0.00    -0.291 N 
HETATM   22  H   UNL     1      20.252  45.870  50.117  1.00  0.00     0.183 HD
BRANCH  21  23
HETATM   23  C   UNL     1      19.040  45.925  48.432  1.00  0.00     0.182 C 
HETATM   24  N   UNL     1      18.452  47.085  48.833  1.00  0.00    -0.362 N 
HETATM   25  H   UNL     1      17.713  47.393  48.210  1.00  0.00     0.162 HD
HETATM   26  S   UNL     1      18.434  45.192  47.058  1.00  0.00    -0.040 SA
BRANCH  24  27
HETATM   27  C   UNL     1      18.789  47.998  49.914  1.00  0.00     0.160 C 
BRANCH  27  28
HETATM   28  C   UNL     1      18.939  49.409  49.411  1.00  0.00    -0.041 A 
HETATM   29  C   UNL     1      18.501  49.757  48.125  1.00  0.00     0.009 A 
HETATM   30  C   UNL     1      18.630  51.068  47.662  1.00  0.00     0.001 A 
HETATM   31  C   UNL     1      19.208  52.041  48.475  1.00  0.00     0.000 A 
HETATM   32  C   UNL     1      19.656  51.706  49.751  1.00  0.00     0.001 A 
HETATM   33  C   UNL     1      19.521  50.398  50.219  1.00  0.00     0.009 A 
ENDBRANCH  27  28
ENDBRANCH  24  27
ENDBRANCH  21  23
ENDBRANCH   1  21
TORSDOF 6
ENDMDL
MODEL 4
REMARK VINA RESULT:      -9.1      2.585      7.872
REMARK  6 active torsions:
REMARK  status: ('A' for Active; 'I' for Inactive)
REMARK    1  A    between atoms: C_4  and  C_5 
REMARK    2  A    between atoms: C_5  and  N_6 
REMARK    3  A    between atoms: C_7  and  N_8 
REMARK    4  A    between atoms: N_8  and  N_9 
REMARK       I    between atoms: N_9  and  C_10 
REMARK    5  A    between atoms: C_10  and  C_11 
REMARK    6  A    between atoms: C_19  and  C_20 
ROOT
HETATM    1  N   UNL     1      26.311  47.479  52.232  1.00  0.00    -0.168 NA
HETATM    2  C   UNL     1      26.145  46.547  53.245  1.00  0.00     0.250 C 
HETATM    3  O   UNL     1      25.414  46.815  54.196  1.00  0.00    -0.272 OA
HETATM    4  H   UNL     1      25.841  48.353  52.462  1.00  0.00     0.156 HD
ENDROOT
BRANCH   2   5
HETATM    5  C   UNL     1      26.947  45.290  53.236  1.00  0.00     0.042 A 
HETATM    6  C   UNL     1      28.042  45.144  54.128  1.00  0.00     0.008 A 
HETATM    7  C   UNL     1      28.729  43.915  54.077  1.00  0.00     0.068 A 
HETATM    8  C   UNL     1      28.496  46.127  55.048  1.00  0.00     0.015 A 
HETATM    9  C   UNL     1      29.802  43.701  54.932  1.00  0.00     0.032 A 
HETATM   10  N   UNL     1      28.405  42.928  53.229  1.00  0.00    -0.248 NA
HETATM   11  C   UNL     1      30.230  44.669  55.842  1.00  0.00     0.002 A 
HETATM   12  C   UNL     1      29.576  45.888  55.898  1.00  0.00     0.001 A 
HETATM   13  C   UNL     1      27.374  43.096  52.371  1.00  0.00     0.069 A 
HETATM   14  C   UNL     1      26.603  44.247  52.375  1.00  0.00     0.050 A 
BRANCH  13  15
HETATM   15  C   UNL     1      27.142  41.982  51.436  1.00  0.00    -0.005 A 
HETATM   16  C   UNL     1      28.156  41.053  51.161  1.00  0.00     0.033 A 
HETATM   17  C   UNL     1      27.910  40.026  50.265  1.00  0.00     0.117 A 
HETATM   18  N   UNL     1      26.738  39.855  49.620  1.00  0.00    -0.273 NA
HETATM   19  C   UNL     1      25.776  40.765  49.873  1.00  0.00     0.117 A 
HETATM   20  C   UNL     1      25.926  41.823  50.758  1.00  0.00     0.033 A 
ENDBRANCH  13  15
ENDBRANCH   2   5
BRANCH   1  21
HETATM   21  N   UNL     1      26.108  47.094  50.891  1.00  0.00    -0.291 N 
HETATM   22  H   UNL     1      25.624  46.212  50.778  1.00  0.00     0.183 HD
BRANCH  21  23
HETATM   23  C   UNL     1      26.146  48.001  49.863  1.00  0.00     0.182 C 
HETATM   24  N   UNL     1      24.962  48.297  49.261  1.00  0.00    -0.362 N 
HETATM   25  H   UNL     1      25.058  48.963  48.501  1.00  0.00     0.162 HD
HETATM   26  S   UNL     1      27.524  48.712  49.238  1.00  0.00    -0.040 SA
BRANCH  24  27
HETATM   27  C   UNL     1      23.600  47.921  49.606  1.00  0.00     0.160 C 
BRANCH  27  28
HETATM   28  C   UNL     1      22.610  48.947  49.122  1.00  0.00    -0.041 A 
HETATM   29  C   UNL     1      22.956  50.306  49.079  1.00  0.00     0.009 A 
HETATM   30  C   UNL     1      22.042  51.256  48.620  1.00  0.00     0.001 A 
HETATM   31  C   UNL     1      20.770  50.861  48.210  1.00  0.00     0.000 A 
HETATM   32  C   UNL     1      20.412  49.515  48.255  1.00  0.00     0.001 A 
HETATM   33  C   UNL     1      21.326  48.562  48.707  1.00  0.00     0.009 A 
ENDBRANCH  27  28
ENDBRANCH  24  27
ENDBRANCH  21  23
ENDBRANCH   1  21
TORSDOF 6
ENDMDL
MODEL 5
REMARK VINA RESULT:      -8.9      1.912      3.390
REMARK  6 active torsions:
REMARK  status: ('A' for Active; 'I' for Inactive)
REMARK    1  A    between atoms: C_4  and  C_5 
REMARK    2  A    between atoms: C_5  and  N_6 
REMARK    3  A    between atoms: C_7  and  N_8 
REMARK    4  A    between atoms: N_8  and  N_9 
REMARK       I    between atoms: N_9  and  C_10 
REMARK    5  A    between atoms: C_10  and  C_11 
REMARK    6  A    between atoms: C_19  and  C_20 
ROOT
HETATM    1  N   UNL     1      26.169  43.086  52.847  1.00  0.00    -0.168 NA
HETATM    2  C   UNL     1      25.313  44.170  52.730  1.00  0.00     0.250 C 
HETATM    3  O   UNL     1      24.686  44.552  53.716  1.00  0.00    -0.272 OA
HETATM    4  H   UNL     1      26.103  42.668  53.773  1.00  0.00     0.156 HD
ENDROOT
BRANCH   2   5
HETATM    5  C   UNL     1      25.065  44.778  51.391  1.00  0.00     0.042 A 
HETATM    6  C   UNL     1      24.288  44.079  50.430  1.00  0.00     0.008 A 
HETATM    7  C   UNL     1      24.075  44.735  49.202  1.00  0.00     0.068 A 
HETATM    8  C   UNL     1      23.725  42.786  50.605  1.00  0.00     0.015 A 
HETATM    9  C   UNL     1      23.314  44.113  48.222  1.00  0.00     0.032 A 
HETATM   10  N   UNL     1      24.582  45.944  48.919  1.00  0.00    -0.248 NA
HETATM   11  C   UNL     1      22.754  42.848  48.410  1.00  0.00     0.002 A 
HETATM   12  C   UNL     1      22.964  42.180  49.605  1.00  0.00     0.001 A 
HETATM   13  C   UNL     1      25.339  46.583  49.839  1.00  0.00     0.069 A 
HETATM   14  C   UNL     1      25.567  46.046  51.095  1.00  0.00     0.050 A 
BRANCH  13  15
HETATM   15  C   UNL     1      25.903  47.874  49.406  1.00  0.00    -0.005 A 
HETATM   16  C   UNL     1      25.082  48.869  48.859  1.00  0.00     0.033 A 
HETATM   17  C   UNL     1      25.647  50.065  48.447  1.00  0.00     0.117 A 
HETATM   18  N   UNL     1      26.964  50.343  48.534  1.00  0.00    -0.273 NA
HETATM   19  C   UNL     1      27.749  49.372  49.041  1.00  0.00     0.117 A 
HETATM   20  C   UNL     1      27.275  48.146  49.485  1.00  0.00     0.033 A 
ENDBRANCH  13  15
ENDBRANCH   2   5
BRANCH   1  21
HETATM   21  N   UNL     1      27.503  43.200  52.403  1.00  0.00    -0.291 N 
HETATM   22  H   UNL     1      27.708  44.062  51.913  1.00  0.00     0.183 HD
BRANCH  21  23
HETATM   23  C   UNL     1      28.516  42.455  52.950  1.00  0.00     0.182 C 
HETATM   24  N   UNL     1      29.327  43.085  53.843  1.00  0.00    -0.362 N 
HETATM   25  H   UNL     1      30.063  42.486  54.203  1.00  0.00     0.162 HD
HETATM   26  S   UNL     1      28.885  40.872  52.560  1.00  0.00    -0.040 SA
BRANCH  24  27
HETATM   27  C   UNL     1      29.233  44.405  54.447  1.00  0.00     0.160 C 
BRANCH  27  28
HETATM   28  C   UNL     1      30.007  44.474  55.736  1.00  0.00    -0.041 A 
HETATM   29  C   UNL     1      29.814  45.539  56.627  1.00  0.00     0.009 A 
HETATM   30  C   UNL     1      30.525  45.598  57.828  1.00  0.00     0.001 A 
HETATM   31  C   UNL     1      31.443  44.600  58.145  1.00  0.00     0.000 A 
HETATM   32  C   UNL     1      31.652  43.541  57.264  1.00  0.00     0.001 A 
HETATM   33  C   UNL     1      30.937  43.476  56.066  1.00  0.00     0.009 A 
ENDBRANCH  27  28
ENDBRANCH  24  27
ENDBRANCH  21  23
ENDBRANCH   1  21
TORSDOF 6
ENDMDL
MODEL 6
REMARK VINA RESULT:      -8.7      2.195      7.833
REMARK  6 active torsions:
REMARK  status: ('A' for Active; 'I' for Inactive)
REMARK    1  A    between atoms: C_4  and  C_5 
REMARK    2  A    between atoms: C_5  and  N_6 
REMARK    3  A    between atoms: C_7  and  N_8 
REMARK    4  A    between atoms: N_8  and  N_9 
REMARK       I    between atoms: N_9  and  C_10 
REMARK    5  A    between atoms: C_10  and  C_11 
REMARK    6  A    between atoms: C_19  and  C_20 
ROOT
HETATM    1  N   UNL     1      25.635  45.818  52.626  1.00  0.00    -0.168 NA
HETATM    2  C   UNL     1      25.741  44.640  53.349  1.00  0.00     0.250 C 
HETATM    3  O   UNL     1      24.924  44.400  54.235  1.00  0.00    -0.272 OA
HETATM    4  H   UNL     1      24.894  46.408  53.002  1.00  0.00     0.156 HD
ENDROOT
BRANCH   2   5
HETATM    5  C   UNL     1      26.912  43.741  53.133  1.00  0.00     0.042 A 
HETATM    6  C   UNL     1      28.079  43.897  53.927  1.00  0.00     0.008 A 
HETATM    7  C   UNL     1      29.128  42.990  53.681  1.00  0.00     0.068 A 
HETATM    8  C   UNL     1      28.272  44.888  54.927  1.00  0.00     0.015 A 
HETATM    9  C   UNL     1      30.293  43.079  54.430  1.00  0.00     0.032 A 
HETATM   10  N   UNL     1      29.065  42.034  52.742  1.00  0.00    -0.248 NA
HETATM   11  C   UNL     1      30.466  44.048  55.420  1.00  0.00     0.002 A 
HETATM   12  C   UNL     1      29.452  44.958  55.667  1.00  0.00     0.001 A 
HETATM   13  C   UNL     1      27.954  41.916  51.981  1.00  0.00     0.069 A 
HETATM   14  C   UNL     1      26.848  42.727  52.176  1.00  0.00     0.050 A 
BRANCH  13  15
HETATM   15  C   UNL     1      28.012  40.880  50.935  1.00  0.00    -0.005 A 
HETATM   16  C   UNL     1      28.857  39.770  51.071  1.00  0.00     0.033 A 
HETATM   17  C   UNL     1      28.899  38.822  50.061  1.00  0.00     0.117 A 
HETATM   18  N   UNL     1      28.170  38.897  48.929  1.00  0.00    -0.273 NA
HETATM   19  C   UNL     1      27.377  39.979  48.797  1.00  0.00     0.117 A 
HETATM   20  C   UNL     1      27.263  40.976  49.755  1.00  0.00     0.033 A 
ENDBRANCH  13  15
ENDBRANCH   2   5
BRANCH   1  21
HETATM   21  N   UNL     1      25.625  45.773  51.217  1.00  0.00    -0.291 N 
HETATM   22  H   UNL     1      26.525  45.574  50.799  1.00  0.00     0.183 HD
BRANCH  21  23
HETATM   23  C   UNL     1      24.470  45.571  50.506  1.00  0.00     0.182 C 
HETATM   24  N   UNL     1      23.927  46.659  49.895  1.00  0.00    -0.362 N 
HETATM   25  H   UNL     1      23.069  46.448  49.396  1.00  0.00     0.162 HD
HETATM   26  S   UNL     1      23.634  44.128  50.390  1.00  0.00    -0.040 SA
BRANCH  24  27
HETATM   27  C   UNL     1      24.435  48.013  49.737  1.00  0.00     0.160 C 
BRANCH  27  28
HETATM   28  C   UNL     1      23.399  48.919  49.128  1.00  0.00    -0.041 A 
HETATM   29  C   UNL     1      22.098  48.451  48.886  1.00  0.00     0.009 A 
HETATM   30  C   UNL     1      21.133  49.294  48.330  1.00  0.00     0.001 A 
HETATM   31  C   UNL     1      21.461  50.608  48.000  1.00  0.00     0.000 A 
HETATM   32  C   UNL     1      22.751  51.081  48.227  1.00  0.00     0.001 A 
HETATM   33  C   UNL     1      23.716  50.243  48.789  1.00  0.00     0.009 A 
ENDBRANCH  27  28
ENDBRANCH  24  27
ENDBRANCH  21  23
ENDBRANCH   1  21
TORSDOF 6
ENDMDL
MODEL 7
REMARK VINA RESULT:      -8.6     11.206     13.396
REMARK  6 active torsions:
REMARK  status: ('A' for Active; 'I' for Inactive)
REMARK    1  A    between atoms: C_4  and  C_5 
REMARK    2  A    between atoms: C_5  and  N_6 
REMARK    3  A    between atoms: C_7  and  N_8 
REMARK    4  A    between atoms: N_8  and  N_9 
REMARK       I    between atoms: N_9  and  C_10 
REMARK    5  A    between atoms: C_10  and  C_11 
REMARK    6  A    between atoms: C_19  and  C_20 
ROOT
HETATM    1  N   UNL     1      24.954  48.073  40.536  1.00  0.00    -0.168 NA
HETATM    2  C   UNL     1      25.706  46.989  40.963  1.00  0.00     0.250 C 
HETATM    3  O   UNL     1      25.197  46.161  41.715  1.00  0.00    -0.272 OA
HETATM    4  H   UNL     1      24.045  48.088  40.995  1.00  0.00     0.156 HD
ENDROOT
BRANCH   2   5
HETATM    5  C   UNL     1      27.153  46.906  40.612  1.00  0.00     0.042 A 
HETATM    6  C   UNL     1      27.629  45.821  39.829  1.00  0.00     0.008 A 
HETATM    7  C   UNL     1      29.002  45.832  39.515  1.00  0.00     0.068 A 
HETATM    8  C   UNL     1      26.842  44.738  39.352  1.00  0.00     0.015 A 
HETATM    9  C   UNL     1      29.530  44.807  38.742  1.00  0.00     0.032 A 
HETATM   10  N   UNL     1      29.842  46.789  39.935  1.00  0.00    -0.248 NA
HETATM   11  C   UNL     1      28.745  43.755  38.267  1.00  0.00     0.002 A 
HETATM   12  C   UNL     1      27.395  43.719  38.577  1.00  0.00     0.001 A 
HETATM   13  C   UNL     1      29.374  47.801  40.700  1.00  0.00     0.069 A 
HETATM   14  C   UNL     1      28.032  47.909  41.023  1.00  0.00     0.050 A 
BRANCH  13  15
HETATM   15  C   UNL     1      30.389  48.762  41.165  1.00  0.00    -0.005 A 
HETATM   16  C   UNL     1      30.770  48.807  42.513  1.00  0.00     0.033 A 
HETATM   17  C   UNL     1      31.715  49.734  42.921  1.00  0.00     0.117 A 
HETATM   18  N   UNL     1      32.305  50.620  42.093  1.00  0.00    -0.273 NA
HETATM   19  C   UNL     1      31.916  50.585  40.803  1.00  0.00     0.117 A 
HETATM   20  C   UNL     1      30.983  49.690  40.300  1.00  0.00     0.033 A 
ENDBRANCH  13  15
ENDBRANCH   2   5
BRANCH   1  21
HETATM   21  N   UNL     1      24.867  48.361  39.159  1.00  0.00    -0.291 N 
HETATM   22  H   UNL     1      24.804  47.544  38.564  1.00  0.00     0.183 HD
BRANCH  21  23
HETATM   23  C   UNL     1      24.458  49.587  38.698  1.00  0.00     0.182 C 
HETATM   24  N   UNL     1      25.434  50.455  38.318  1.00  0.00    -0.362 N 
HETATM   25  H   UNL     1      25.071  51.348  37.999  1.00  0.00     0.162 HD
HETATM   26  S   UNL     1      22.879  50.131  38.638  1.00  0.00    -0.040 SA
BRANCH  24  27
HETATM   27  C   UNL     1      26.870  50.270  38.175  1.00  0.00     0.160 C 
BRANCH  27  28
HETATM   28  C   UNL     1      27.635  51.227  39.047  1.00  0.00    -0.041 A 
HETATM   29  C   UNL     1      27.495  51.187  40.443  1.00  0.00     0.009 A 
HETATM   30  C   UNL     1      28.213  52.068  41.254  1.00  0.00     0.001 A 
HETATM   31  C   UNL     1      29.069  53.005  40.679  1.00  0.00     0.000 A 
HETATM   32  C   UNL     1      29.211  53.062  39.294  1.00  0.00     0.001 A 
HETATM   33  C   UNL     1      28.499  52.177  38.482  1.00  0.00     0.009 A 
ENDBRANCH  27  28
ENDBRANCH  24  27
ENDBRANCH  21  23
ENDBRANCH   1  21
TORSDOF 6
ENDMDL
MODEL 8
REMARK VINA RESULT:      -8.6      2.991      4.596
REMARK  6 active torsions:
REMARK  status: ('A' for Active; 'I' for Inactive)
REMARK    1  A    between atoms: C_4  and  C_5 
REMARK    2  A    between atoms: C_5  and  N_6 
REMARK    3  A    between atoms: C_7  and  N_8 
REMARK    4  A    between atoms: N_8  and  N_9 
REMARK       I    between atoms: N_9  and  C_10 
REMARK    5  A    between atoms: C_10  and  C_11 
REMARK    6  A    between atoms: C_19  and  C_20 
ROOT
HETATM    1  N   UNL     1      26.247  45.470  51.546  1.00  0.00    -0.168 NA
HETATM    2  C   UNL     1      25.706  45.433  50.270  1.00  0.00     0.250 C 
HETATM    3  O   UNL     1      25.896  44.447  49.563  1.00  0.00    -0.272 OA
HETATM    4  H   UNL     1      26.839  44.658  51.713  1.00  0.00     0.156 HD
ENDROOT
BRANCH   2   5
HETATM    5  C   UNL     1      25.010  46.635  49.725  1.00  0.00     0.042 A 
HETATM    6  C   UNL     1      25.762  47.785  49.365  1.00  0.00     0.008 A 
HETATM    7  C   UNL     1      25.034  48.865  48.831  1.00  0.00     0.068 A 
HETATM    8  C   UNL     1      27.169  47.930  49.508  1.00  0.00     0.015 A 
HETATM    9  C   UNL     1      25.709  50.016  48.446  1.00  0.00     0.032 A 
HETATM   10  N   UNL     1      23.702  48.847  48.677  1.00  0.00    -0.248 NA
HETATM   11  C   UNL     1      27.093  50.142  48.578  1.00  0.00     0.002 A 
HETATM   12  C   UNL     1      27.825  49.096  49.115  1.00  0.00     0.001 A 
HETATM   13  C   UNL     1      23.001  47.752  49.048  1.00  0.00     0.069 A 
HETATM   14  C   UNL     1      23.627  46.618  49.539  1.00  0.00     0.050 A 
BRANCH  13  15
HETATM   15  C   UNL     1      21.539  47.858  48.902  1.00  0.00    -0.005 A 
HETATM   16  C   UNL     1      20.780  46.762  48.470  1.00  0.00     0.033 A 
HETATM   17  C   UNL     1      19.409  46.900  48.327  1.00  0.00     0.117 A 
HETATM   18  N   UNL     1      18.738  48.043  48.578  1.00  0.00    -0.273 NA
HETATM   19  C   UNL     1      19.479  49.099  48.972  1.00  0.00     0.117 A 
HETATM   20  C   UNL     1      20.854  49.056  49.148  1.00  0.00     0.033 A 
ENDBRANCH  13  15
ENDBRANCH   2   5
BRANCH   1  21
HETATM   21  N   UNL     1      25.419  45.767  52.647  1.00  0.00    -0.291 N 
HETATM   22  H   UNL     1      24.489  45.371  52.589  1.00  0.00     0.183 HD
BRANCH  21  23
HETATM   23  C   UNL     1      25.933  46.156  53.858  1.00  0.00     0.182 C 
HETATM   24  N   UNL     1      26.281  45.166  54.723  1.00  0.00    -0.362 N 
HETATM   25  H   UNL     1      26.643  45.517  55.604  1.00  0.00     0.162 HD
HETATM   26  S   UNL     1      26.096  47.733  54.388  1.00  0.00    -0.040 SA
BRANCH  24  27
HETATM   27  C   UNL     1      26.339  43.723  54.545  1.00  0.00     0.160 C 
BRANCH  27  28
HETATM   28  C   UNL     1      27.716  43.278  54.132  1.00  0.00    -0.041 A 
HETATM   29  C   UNL     1      28.855  43.932  54.626  1.00  0.00     0.009 A 
HETATM   30  C   UNL     1      30.132  43.512  54.251  1.00  0.00     0.001 A 
HETATM   31  C   UNL     1      30.286  42.443  53.371  1.00  0.00     0.000 A 
HETATM   32  C   UNL     1      29.163  41.790  52.866  1.00  0.00     0.001 A 
HETATM   33  C   UNL     1      27.884  42.204  53.245  1.00  0.00     0.009 A 
ENDBRANCH  27  28
ENDBRANCH  24  27
ENDBRANCH  21  23
ENDBRANCH   1  21
TORSDOF 6
ENDMDL
MODEL 9
REMARK VINA RESULT:      -8.6      2.410      8.124
REMARK  6 active torsions:
REMARK  status: ('A' for Active; 'I' for Inactive)
REMARK    1  A    between atoms: C_4  and  C_5 
REMARK    2  A    between atoms: C_5  and  N_6 
REMARK    3  A    between atoms: C_7  and  N_8 
REMARK    4  A    between atoms: N_8  and  N_9 
REMARK       I    between atoms: N_9  and  C_10 
REMARK    5  A    between atoms: C_10  and  C_11 
REMARK    6  A    between atoms: C_19  and  C_20 
ROOT
HETATM    1  N   UNL     1      25.652  45.705  52.535  1.00  0.00    -0.168 NA
HETATM    2  C   UNL     1      25.691  44.574  53.337  1.00  0.00     0.250 C 
HETATM    3  O   UNL     1      24.663  44.192  53.891  1.00  0.00    -0.272 OA
HETATM    4  H   UNL     1      24.736  46.148  52.577  1.00  0.00     0.156 HD
ENDROOT
BRANCH   2   5
HETATM    5  C   UNL     1      26.997  43.911  53.619  1.00  0.00     0.042 A 
HETATM    6  C   UNL     1      27.411  42.803  52.833  1.00  0.00     0.008 A 
HETATM    7  C   UNL     1      28.669  42.252  53.144  1.00  0.00     0.068 A 
HETATM    8  C   UNL     1      26.663  42.210  51.780  1.00  0.00     0.015 A 
HETATM    9  C   UNL     1      29.141  41.174  52.406  1.00  0.00     0.032 A 
HETATM   10  N   UNL     1      29.447  42.713  54.135  1.00  0.00    -0.248 NA
HETATM   11  C   UNL     1      28.403  40.609  51.365  1.00  0.00     0.002 A 
HETATM   12  C   UNL     1      27.157  41.128  51.053  1.00  0.00     0.001 A 
HETATM   13  C   UNL     1      29.025  43.754  54.887  1.00  0.00     0.069 A 
HETATM   14  C   UNL     1      27.825  44.398  54.631  1.00  0.00     0.050 A 
BRANCH  13  15
HETATM   15  C   UNL     1      29.920  44.140  55.991  1.00  0.00    -0.005 A 
HETATM   16  C   UNL     1      29.740  45.353  56.670  1.00  0.00     0.033 A 
HETATM   17  C   UNL     1      30.610  45.694  57.693  1.00  0.00     0.117 A 
HETATM   18  N   UNL     1      31.644  44.924  58.088  1.00  0.00    -0.273 NA
HETATM   19  C   UNL     1      31.823  43.770  57.415  1.00  0.00     0.117 A 
HETATM   20  C   UNL     1      31.002  43.341  56.383  1.00  0.00     0.033 A 
ENDBRANCH  13  15
ENDBRANCH   2   5
BRANCH   1  21
HETATM   21  N   UNL     1      26.162  45.646  51.222  1.00  0.00    -0.291 N 
HETATM   22  H   UNL     1      27.154  45.452  51.167  1.00  0.00     0.183 HD
BRANCH  21  23
HETATM   23  C   UNL     1      25.350  45.426  50.138  1.00  0.00     0.182 C 
HETATM   24  N   UNL     1      24.892  46.526  49.482  1.00  0.00    -0.362 N 
HETATM   25  H   UNL     1      24.288  46.298  48.698  1.00  0.00     0.162 HD
HETATM   26  S   UNL     1      24.818  43.934  49.605  1.00  0.00    -0.040 SA
BRANCH  24  27
HETATM   27  C   UNL     1      25.223  47.934  49.637  1.00  0.00     0.160 C 
BRANCH  27  28
HETATM   28  C   UNL     1      24.117  48.816  49.124  1.00  0.00    -0.041 A 
HETATM   29  C   UNL     1      24.407  50.070  48.567  1.00  0.00     0.009 A 
HETATM   30  C   UNL     1      23.382  50.885  48.081  1.00  0.00     0.001 A 
HETATM   31  C   UNL     1      22.057  50.460  48.157  1.00  0.00     0.000 A 
HETATM   32  C   UNL     1      21.755  49.220  48.716  1.00  0.00     0.001 A 
HETATM   33  C   UNL     1      22.778  48.401  49.196  1.00  0.00     0.009 A 
ENDBRANCH  27  28
ENDBRANCH  24  27
ENDBRANCH  21  23
ENDBRANCH   1  21
TORSDOF 6
ENDMDL
MODEL 10
REMARK VINA RESULT:      -8.4      3.322      6.542
REMARK  6 active torsions:
REMARK  status: ('A' for Active; 'I' for Inactive)
REMARK    1  A    between atoms: C_4  and  C_5 
REMARK    2  A    between atoms: C_5  and  N_6 
REMARK    3  A    between atoms: C_7  and  N_8 
REMARK    4  A    between atoms: N_8  and  N_9 
REMARK       I    between atoms: N_9  and  C_10 
REMARK    5  A    between atoms: C_10  and  C_11 
REMARK    6  A    between atoms: C_19  and  C_20 
ROOT
HETATM    1  N   UNL     1      22.905  43.418  50.708  1.00  0.00    -0.168 NA
HETATM    2  C   UNL     1      24.270  43.646  50.627  1.00  0.00     0.250 C 
HETATM    3  O   UNL     1      25.026  42.706  50.392  1.00  0.00    -0.272 OA
HETATM    4  H   UNL     1      22.699  42.423  50.640  1.00  0.00     0.156 HD
ENDROOT
BRANCH   2   5
HETATM    5  C   UNL     1      24.817  44.997  50.948  1.00  0.00     0.042 A 
HETATM    6  C   UNL     1      25.327  45.262  52.246  1.00  0.00     0.008 A 
HETATM    7  C   UNL     1      25.852  46.551  52.460  1.00  0.00     0.068 A 
HETATM    8  C   UNL     1      25.342  44.345  53.332  1.00  0.00     0.015 A 
HETATM    9  C   UNL     1      26.380  46.873  53.703  1.00  0.00     0.032 A 
HETATM   10  N   UNL     1      25.864  47.503  51.515  1.00  0.00    -0.248 NA
HETATM   11  C   UNL     1      26.401  45.960  54.759  1.00  0.00     0.002 A 
HETATM   12  C   UNL     1      25.877  44.692  54.573  1.00  0.00     0.001 A 
HETATM   13  C   UNL     1      25.352  47.239  50.293  1.00  0.00     0.069 A 
HETATM   14  C   UNL     1      24.857  45.987  49.966  1.00  0.00     0.050 A 
BRANCH  13  15
HETATM   15  C   UNL     1      25.351  48.370  49.349  1.00  0.00    -0.005 A 
HETATM   16  C   UNL     1      26.553  48.971  48.949  1.00  0.00     0.033 A 
HETATM   17  C   UNL     1      26.516  50.044  48.073  1.00  0.00     0.117 A 
HETATM   18  N   UNL     1      25.379  50.565  47.570  1.00  0.00    -0.273 NA
HETATM   19  C   UNL     1      24.227  49.995  47.978  1.00  0.00     0.117 A 
HETATM   20  C   UNL     1      24.163  48.915  48.846  1.00  0.00     0.033 A 
ENDBRANCH  13  15
ENDBRANCH   2   5
BRANCH   1  21
HETATM   21  N   UNL     1      22.020  44.205  49.944  1.00  0.00    -0.291 N 
HETATM   22  H   UNL     1      21.627  44.995  50.441  1.00  0.00     0.183 HD
BRANCH  21  23
HETATM   23  C   UNL     1      22.030  44.184  48.573  1.00  0.00     0.182 C 
HETATM   24  N   UNL     1      21.578  45.300  47.938  1.00  0.00    -0.362 N 
HETATM   25  H   UNL     1      21.598  45.218  46.927  1.00  0.00     0.162 HD
HETATM   26  S   UNL     1      22.475  42.885  47.619  1.00  0.00    -0.040 SA
BRANCH  24  27
HETATM   27  C   UNL     1      21.201  46.604  48.461  1.00  0.00     0.160 C 
BRANCH  27  28
HETATM   28  C   UNL     1      19.706  46.743  48.561  1.00  0.00    -0.041 A 
HETATM   29  C   UNL     1      19.136  47.818  49.260  1.00  0.00     0.009 A 
HETATM   30  C   UNL     1      17.749  47.953  49.344  1.00  0.00     0.001 A 
HETATM   31  C   UNL     1      16.917  47.010  48.742  1.00  0.00     0.000 A 
HETATM   32  C   UNL     1      17.471  45.934  48.053  1.00  0.00     0.001 A 
HETATM   33  C   UNL     1      18.858  45.800  47.961  1.00  0.00     0.009 A 
ENDBRANCH  27  28
ENDBRANCH  24  27
ENDBRANCH  21  23
ENDBRANCH   1  21
TORSDOF 6
ENDMDL
