MODEL 1
REMARK VINA RESULT:      -9.4      0.000      0.000
REMARK  6 active torsions:
REMARK  status: ('A' for Active; 'I' for Inactive)
REMARK    1  A    between atoms: C_2  and  C_3 
REMARK    2  A    between atoms: C_3  and  C_4 
REMARK    3  A    between atoms: C_3  and  C_10 
REMARK    4  A    between atoms: C_10  and  C_11 
REMARK       I    between atoms: C_11  and  N_12 
REMARK    5  A    between atoms: N_12  and  C_13 
REMARK    6  A    between atoms: C_20  and  C_21 
REMARK       I    between atoms: C_21  and  N_22 
ROOT
HETATM    1  C   UNL     1      26.013  47.435  50.693  1.00  0.00     0.035 A 
HETATM    2  C   UNL     1      24.723  47.688  50.208  1.00  0.00     0.046 A 
HETATM    3  C   UNL     1      24.546  48.619  49.159  1.00  0.00     0.030 A 
HETATM    4  C   UNL     1      25.659  49.273  48.646  1.00  0.00     0.063 A 
HETATM    5  N   UNL     1      25.178  50.103  47.673  1.00  0.00    -0.277 N 
HETATM    6  H   UNL     1      25.711  50.739  47.091  1.00  0.00     0.189 HD
HETATM    7  N   UNL     1      23.850  50.035  47.489  1.00  0.00    -0.168 NA
HETATM    8  C   UNL     1      23.444  49.120  48.399  1.00  0.00     0.156 A 
HETATM    9  C   UNL     1      26.955  49.048  49.107  1.00  0.00     0.034 A 
HETATM   10  C   UNL     1      27.109  48.110  50.135  1.00  0.00     0.032 A 
ENDROOT
BRANCH   1  11
HETATM   11  N   UNL     1      26.303  46.516  51.723  1.00  0.00    -0.327 N 
HETATM   12  C   UNL     1      26.172  46.701  53.087  1.00  0.00     0.222 C 
HETATM   13  O   UNL     1      25.742  47.707  53.645  1.00  0.00    -0.273 OA
HETATM   14  H   UNL     1      26.701  45.641  51.418  1.00  0.00     0.169 HD
BRANCH  12  15
HETATM   15  C   UNL     1      26.538  45.472  53.919  1.00  0.00     0.113 C 
BRANCH  15  16
HETATM   16  C   UNL     1      28.035  45.098  53.928  1.00  0.00     0.030 C 
BRANCH  16  17
HETATM   17  C   UNL     1      28.336  43.677  53.356  1.00  0.00    -0.014 C 
HETATM   18  C   UNL     1      28.167  43.647  51.831  1.00  0.00     0.010 C 
HETATM   19  C   UNL     1      27.508  42.546  53.975  1.00  0.00     0.010 C 
ENDBRANCH  16  17
BRANCH  16  20
HETATM   20  C   UNL     1      28.713  45.312  55.277  1.00  0.00    -0.053 A 
HETATM   21  C   UNL     1      28.150  46.107  56.284  1.00  0.00     0.007 A 
HETATM   22  C   UNL     1      28.806  46.280  57.506  1.00  0.00     0.001 A 
HETATM   23  C   UNL     1      30.034  45.669  57.735  1.00  0.00     0.000 A 
HETATM   24  C   UNL     1      30.608  44.877  56.746  1.00  0.00     0.001 A 
HETATM   25  C   UNL     1      29.951  44.694  55.528  1.00  0.00     0.007 A 
ENDBRANCH  16  20
ENDBRANCH  15  16
ENDBRANCH  12  15
ENDBRANCH   1  11
BRANCH   8  26
HETATM   26  C   UNL     1      22.028  48.741  48.511  1.00  0.00     0.270 C 
HETATM   27  N   UNL     1      21.403  49.245  49.620  1.00  0.00    -0.365 N 
HETATM   28  H   UNL     1      21.936  49.829  50.252  1.00  0.00     0.159 HD
HETATM   29  H   UNL     1      20.426  49.056  49.771  1.00  0.00     0.159 HD
HETATM   30  O   UNL     1      21.422  48.048  47.702  1.00  0.00    -0.266 OA
ENDBRANCH   8  26
TORSDOF 6
ENDMDL
MODEL 2
REMARK VINA RESULT:      -8.8      5.063      7.956
REMARK  6 active torsions:
REMARK  status: ('A' for Active; 'I' for Inactive)
REMARK    1  A    between atoms: C_2  and  C_3 
REMARK    2  A    between atoms: C_3  and  C_4 
REMARK    3  A    between atoms: C_3  and  C_10 
REMARK    4  A    between atoms: C_10  and  C_11 
REMARK       I    between atoms: C_11  and  N_12 
REMARK    5  A    between atoms: N_12  and  C_13 
REMARK    6  A    between atoms: C_20  and  C_21 
REMARK       I    between atoms: C_21  and  N_22 
ROOT
HETATM    1  C   UNL     1      27.098  41.526  50.728  1.00  0.00     0.035 A 
HETATM    2  C   UNL     1      27.950  40.415  50.787  1.00  0.00     0.046 A 
HETATM    3  C   UNL     1      27.708  39.308  49.943  1.00  0.00     0.030 A 
HETATM    4  C   UNL     1      26.616  39.343  49.085  1.00  0.00     0.063 A 
HETATM    5  N   UNL     1      26.635  38.150  48.421  1.00  0.00    -0.277 N 
HETATM    6  H   UNL     1      25.978  37.828  47.719  1.00  0.00     0.189 HD
HETATM    7  N   UNL     1      27.656  37.344  48.753  1.00  0.00    -0.168 NA
HETATM    8  C   UNL     1      28.330  38.046  49.692  1.00  0.00     0.156 A 
HETATM    9  C   UNL     1      25.746  40.430  49.003  1.00  0.00     0.034 A 
HETATM   10  C   UNL     1      26.016  41.522  49.836  1.00  0.00     0.032 A 
ENDROOT
BRANCH   1  11
HETATM   11  N   UNL     1      27.258  42.687  51.513  1.00  0.00    -0.327 N 
HETATM   12  C   UNL     1      27.443  43.987  51.079  1.00  0.00     0.222 C 
HETATM   13  O   UNL     1      27.472  44.364  49.911  1.00  0.00    -0.273 OA
HETATM   14  H   UNL     1      27.288  42.531  52.509  1.00  0.00     0.169 HD
BRANCH  12  15
HETATM   15  C   UNL     1      27.536  45.012  52.208  1.00  0.00     0.113 C 
BRANCH  15  16
HETATM   16  C   UNL     1      27.334  44.451  53.632  1.00  0.00     0.030 C 
BRANCH  16  17
HETATM   17  C   UNL     1      26.209  45.171  54.442  1.00  0.00    -0.014 C 
HETATM   18  C   UNL     1      24.979  44.267  54.602  1.00  0.00     0.010 C 
HETATM   19  C   UNL     1      25.768  46.522  53.870  1.00  0.00     0.010 C 
ENDBRANCH  16  17
BRANCH  16  20
HETATM   20  C   UNL     1      28.623  44.348  54.440  1.00  0.00    -0.053 A 
HETATM   21  C   UNL     1      29.478  43.241  54.354  1.00  0.00     0.007 A 
HETATM   22  C   UNL     1      30.648  43.183  55.114  1.00  0.00     0.001 A 
HETATM   23  C   UNL     1      30.978  44.225  55.975  1.00  0.00     0.000 A 
HETATM   24  C   UNL     1      30.141  45.332  56.074  1.00  0.00     0.001 A 
HETATM   25  C   UNL     1      28.975  45.396  55.308  1.00  0.00     0.007 A 
ENDBRANCH  16  20
ENDBRANCH  15  16
ENDBRANCH  12  15
ENDBRANCH   1  11
BRANCH   8  26
HETATM   26  C   UNL     1      29.548  37.504  50.312  1.00  0.00     0.270 C 
HETATM   27  N   UNL     1      29.312  36.521  51.235  1.00  0.00    -0.365 N 
HETATM   28  H   UNL     1      28.354  36.239  51.408  1.00  0.00     0.159 HD
HETATM   29  H   UNL     1      30.087  36.074  51.698  1.00  0.00     0.159 HD
HETATM   30  O   UNL     1      30.689  37.865  50.049  1.00  0.00    -0.266 OA
ENDBRANCH   8  26
TORSDOF 6
ENDMDL
MODEL 3
REMARK VINA RESULT:      -8.7      2.376      3.102
REMARK  6 active torsions:
REMARK  status: ('A' for Active; 'I' for Inactive)
REMARK    1  A    between atoms: C_2  and  C_3 
REMARK    2  A    between atoms: C_3  and  C_4 
REMARK    3  A    between atoms: C_3  and  C_10 
REMARK    4  A    between atoms: C_10  and  C_11 
REMARK       I    between atoms: C_11  and  N_12 
REMARK    5  A    between atoms: N_12  and  C_13 
REMARK    6  A    between atoms: C_20  and  C_21 
REMARK       I    between atoms: C_21  and  N_22 
ROOT
HETATM    1  C   UNL     1      25.272  44.279  51.732  1.00  0.00     0.035 A 
HETATM    2  C   UNL     1      25.024  45.561  51.224  1.00  0.00     0.046 A 
HETATM    3  C   UNL     1      24.150  45.716  50.124  1.00  0.00     0.030 A 
HETATM    4  C   UNL     1      23.571  44.585  49.562  1.00  0.00     0.063 A 
HETATM    5  N   UNL     1      22.803  45.044  48.530  1.00  0.00    -0.277 N 
HETATM    6  H   UNL     1      22.240  44.493  47.891  1.00  0.00     0.189 HD
HETATM    7  N   UNL     1      22.812  46.378  48.378  1.00  0.00    -0.168 NA
HETATM    8  C   UNL     1      23.639  46.809  49.358  1.00  0.00     0.156 A 
HETATM    9  C   UNL     1      23.798  43.294  50.039  1.00  0.00     0.034 A 
HETATM   10  C   UNL     1      24.654  43.167  51.140  1.00  0.00     0.032 A 
ENDROOT
BRANCH   1  11
HETATM   11  N   UNL     1      26.113  44.013  52.833  1.00  0.00    -0.327 N 
HETATM   12  C   UNL     1      26.689  44.923  53.701  1.00  0.00     0.222 C 
HETATM   13  O   UNL     1      26.538  46.141  53.678  1.00  0.00    -0.273 OA
HETATM   14  H   UNL     1      26.357  43.043  52.962  1.00  0.00     0.169 HD
BRANCH  12  15
HETATM   15  C   UNL     1      27.513  44.282  54.816  1.00  0.00     0.113 C 
BRANCH  15  16
HETATM   16  C   UNL     1      29.033  44.208  54.560  1.00  0.00     0.030 C 
BRANCH  16  17
HETATM   17  C   UNL     1      29.482  42.932  53.780  1.00  0.00    -0.014 C 
HETATM   18  C   UNL     1      29.638  43.225  52.282  1.00  0.00     0.010 C 
HETATM   19  C   UNL     1      28.571  41.714  53.961  1.00  0.00     0.010 C 
ENDBRANCH  16  17
BRANCH  16  20
HETATM   20  C   UNL     1      29.878  44.424  55.811  1.00  0.00    -0.053 A 
HETATM   21  C   UNL     1      29.715  45.538  56.645  1.00  0.00     0.007 A 
HETATM   22  C   UNL     1      30.513  45.700  57.781  1.00  0.00     0.001 A 
HETATM   23  C   UNL     1      31.486  44.757  58.096  1.00  0.00     0.000 A 
HETATM   24  C   UNL     1      31.661  43.645  57.278  1.00  0.00     0.001 A 
HETATM   25  C   UNL     1      30.859  43.476  56.147  1.00  0.00     0.007 A 
ENDBRANCH  16  20
ENDBRANCH  15  16
ENDBRANCH  12  15
ENDBRANCH   1  11
BRANCH   8  26
HETATM   26  C   UNL     1      23.909  48.242  49.544  1.00  0.00     0.270 C 
HETATM   27  N   UNL     1      22.782  49.006  49.687  1.00  0.00    -0.365 N 
HETATM   28  H   UNL     1      21.880  48.546  49.668  1.00  0.00     0.159 HD
HETATM   29  H   UNL     1      22.867  49.997  49.841  1.00  0.00     0.159 HD
HETATM   30  O   UNL     1      25.025  48.746  49.583  1.00  0.00    -0.266 OA
ENDBRANCH   8  26
TORSDOF 6
ENDMDL
MODEL 4
REMARK VINA RESULT:      -8.6      1.570      2.226
REMARK  6 active torsions:
REMARK  status: ('A' for Active; 'I' for Inactive)
REMARK    1  A    between atoms: C_2  and  C_3 
REMARK    2  A    between atoms: C_3  and  C_4 
REMARK    3  A    between atoms: C_3  and  C_10 
REMARK    4  A    between atoms: C_10  and  C_11 
REMARK       I    between atoms: C_11  and  N_12 
REMARK    5  A    between atoms: N_12  and  C_13 
REMARK    6  A    between atoms: C_20  and  C_21 
REMARK       I    between atoms: C_21  and  N_22 
ROOT
HETATM    1  C   UNL     1      25.067  47.585  50.066  1.00  0.00     0.035 A 
HETATM    2  C   UNL     1      23.735  47.860  49.730  1.00  0.00     0.046 A 
HETATM    3  C   UNL     1      23.445  48.931  48.855  1.00  0.00     0.030 A 
HETATM    4  C   UNL     1      24.494  49.698  48.362  1.00  0.00     0.063 A 
HETATM    5  N   UNL     1      23.911  50.646  47.570  1.00  0.00    -0.277 N 
HETATM    6  H   UNL     1      24.376  51.383  47.051  1.00  0.00     0.189 HD
HETATM    7  N   UNL     1      22.574  50.556  47.485  1.00  0.00    -0.168 NA
HETATM    8  C   UNL     1      22.270  49.499  48.272  1.00  0.00     0.156 A 
HETATM    9  C   UNL     1      25.830  49.455  48.677  1.00  0.00     0.034 A 
HETATM   10  C   UNL     1      26.094  48.378  49.532  1.00  0.00     0.032 A 
ENDROOT
BRANCH   1  11
HETATM   11  N   UNL     1      25.467  46.533  50.916  1.00  0.00    -0.327 N 
HETATM   12  C   UNL     1      25.659  46.573  52.285  1.00  0.00     0.222 C 
HETATM   13  O   UNL     1      25.480  47.545  53.013  1.00  0.00    -0.273 OA
HETATM   14  H   UNL     1      25.685  45.665  50.451  1.00  0.00     0.169 HD
BRANCH  12  15
HETATM   15  C   UNL     1      26.052  45.230  52.897  1.00  0.00     0.113 C 
BRANCH  15  16
HETATM   16  C   UNL     1      27.161  44.459  52.150  1.00  0.00     0.030 C 
BRANCH  16  17
HETATM   17  C   UNL     1      26.635  43.264  51.294  1.00  0.00    -0.014 C 
HETATM   18  C   UNL     1      26.938  43.475  49.805  1.00  0.00     0.010 C 
HETATM   19  C   UNL     1      25.144  42.958  51.464  1.00  0.00     0.010 C 
ENDBRANCH  16  17
BRANCH  16  20
HETATM   20  C   UNL     1      28.324  44.037  53.042  1.00  0.00    -0.053 A 
HETATM   21  C   UNL     1      28.511  44.558  54.329  1.00  0.00     0.007 A 
HETATM   22  C   UNL     1      29.592  44.148  55.115  1.00  0.00     0.001 A 
HETATM   23  C   UNL     1      30.503  43.218  54.623  1.00  0.00     0.000 A 
HETATM   24  C   UNL     1      30.332  42.691  53.347  1.00  0.00     0.001 A 
HETATM   25  C   UNL     1      29.248  43.092  52.564  1.00  0.00     0.007 A 
ENDBRANCH  16  20
ENDBRANCH  15  16
ENDBRANCH  12  15
ENDBRANCH   1  11
BRANCH   8  26
HETATM   26  C   UNL     1      20.879  49.055  48.438  1.00  0.00     0.270 C 
HETATM   27  N   UNL     1      20.142  49.093  47.285  1.00  0.00    -0.365 N 
HETATM   28  H   UNL     1      20.593  49.400  46.432  1.00  0.00     0.159 HD
HETATM   29  H   UNL     1      19.182  48.788  47.296  1.00  0.00     0.159 HD
HETATM   30  O   UNL     1      20.387  48.669  49.492  1.00  0.00    -0.266 OA
ENDBRANCH   8  26
TORSDOF 6
ENDMDL
MODEL 5
REMARK VINA RESULT:      -8.5      5.613      8.022
REMARK  6 active torsions:
REMARK  status: ('A' for Active; 'I' for Inactive)
REMARK    1  A    between atoms: C_2  and  C_3 
REMARK    2  A    between atoms: C_3  and  C_4 
REMARK    3  A    between atoms: C_3  and  C_10 
REMARK    4  A    between atoms: C_10  and  C_11 
REMARK       I    between atoms: C_11  and  N_12 
REMARK    5  A    between atoms: N_12  and  C_13 
REMARK    6  A    between atoms: C_20  and  C_21 
REMARK       I    between atoms: C_21  and  N_22 
ROOT
HETATM    1  C   UNL     1      28.088  41.506  52.468  1.00  0.00     0.035 A 
HETATM    2  C   UNL     1      28.801  40.436  51.912  1.00  0.00     0.046 A 
HETATM    3  C   UNL     1      28.385  39.890  50.676  1.00  0.00     0.030 A 
HETATM    4  C   UNL     1      27.264  40.422  50.051  1.00  0.00     0.063 A 
HETATM    5  N   UNL     1      27.106  39.694  48.906  1.00  0.00    -0.277 N 
HETATM    6  H   UNL     1      26.381  39.802  48.205  1.00  0.00     0.189 HD
HETATM    7  N   UNL     1      28.036  38.745  48.716  1.00  0.00    -0.168 NA
HETATM    8  C   UNL     1      28.836  38.855  49.801  1.00  0.00     0.156 A 
HETATM    9  C   UNL     1      26.529  41.484  50.576  1.00  0.00     0.034 A 
HETATM   10  C   UNL     1      26.970  42.019  51.793  1.00  0.00     0.032 A 
ENDROOT
BRANCH   1  11
HETATM   11  N   UNL     1      28.425  42.133  53.685  1.00  0.00    -0.327 N 
HETATM   12  C   UNL     1      29.536  42.908  53.962  1.00  0.00     0.222 C 
HETATM   13  O   UNL     1      30.422  43.214  53.169  1.00  0.00    -0.273 OA
HETATM   14  H   UNL     1      27.798  41.946  54.453  1.00  0.00     0.169 HD
BRANCH  12  15
HETATM   15  C   UNL     1      29.563  43.471  55.382  1.00  0.00     0.113 C 
BRANCH  15  16
HETATM   16  C   UNL     1      29.735  45.002  55.486  1.00  0.00     0.030 C 
BRANCH  16  17
HETATM   17  C   UNL     1      30.286  45.485  56.865  1.00  0.00    -0.014 C 
HETATM   18  C   UNL     1      31.166  44.409  57.516  1.00  0.00     0.010 C 
HETATM   19  C   UNL     1      29.215  45.929  57.866  1.00  0.00     0.010 C 
ENDBRANCH  16  17
BRANCH  16  20
HETATM   20  C   UNL     1      28.494  45.788  55.075  1.00  0.00    -0.053 A 
HETATM   21  C   UNL     1      28.506  47.179  54.909  1.00  0.00     0.007 A 
HETATM   22  C   UNL     1      27.346  47.863  54.535  1.00  0.00     0.001 A 
HETATM   23  C   UNL     1      26.158  47.168  54.329  1.00  0.00     0.000 A 
HETATM   24  C   UNL     1      26.128  45.787  54.490  1.00  0.00     0.001 A 
HETATM   25  C   UNL     1      27.288  45.100  54.855  1.00  0.00     0.007 A 
ENDBRANCH  16  20
ENDBRANCH  15  16
ENDBRANCH  12  15
ENDBRANCH   1  11
BRANCH   8  26
HETATM   26  C   UNL     1      30.008  37.983  49.967  1.00  0.00     0.270 C 
HETATM   27  N   UNL     1      31.115  38.401  49.278  1.00  0.00    -0.365 N 
HETATM   28  H   UNL     1      31.053  39.253  48.734  1.00  0.00     0.159 HD
HETATM   29  H   UNL     1      31.972  37.878  49.347  1.00  0.00     0.159 HD
HETATM   30  O   UNL     1      30.037  36.971  50.658  1.00  0.00    -0.266 OA
ENDBRANCH   8  26
TORSDOF 6
ENDMDL
MODEL 6
REMARK VINA RESULT:      -8.3      4.413      9.592
REMARK  6 active torsions:
REMARK  status: ('A' for Active; 'I' for Inactive)
REMARK    1  A    between atoms: C_2  and  C_3 
REMARK    2  A    between atoms: C_3  and  C_4 
REMARK    3  A    between atoms: C_3  and  C_10 
REMARK    4  A    between atoms: C_10  and  C_11 
REMARK       I    between atoms: C_11  and  N_12 
REMARK    5  A    between atoms: N_12  and  C_13 
REMARK    6  A    between atoms: C_20  and  C_21 
REMARK       I    between atoms: C_21  and  N_22 
ROOT
HETATM    1  C   UNL     1      22.442  48.963  49.180  1.00  0.00     0.035 A 
HETATM    2  C   UNL     1      23.567  48.182  49.471  1.00  0.00     0.046 A 
HETATM    3  C   UNL     1      24.850  48.646  49.104  1.00  0.00     0.030 A 
HETATM    4  C   UNL     1      24.960  49.865  48.445  1.00  0.00     0.063 A 
HETATM    5  N   UNL     1      26.295  50.035  48.214  1.00  0.00    -0.277 N 
HETATM    6  H   UNL     1      26.742  50.815  47.744  1.00  0.00     0.189 HD
HETATM    7  N   UNL     1      27.073  49.045  48.681  1.00  0.00    -0.168 NA
HETATM    8  C   UNL     1      26.194  48.179  49.236  1.00  0.00     0.156 A 
HETATM    9  C   UNL     1      23.862  50.667  48.136  1.00  0.00     0.034 A 
HETATM   10  C   UNL     1      22.603  50.194  48.525  1.00  0.00     0.032 A 
ENDROOT
BRANCH   1  11
HETATM   11  N   UNL     1      21.120  48.602  49.515  1.00  0.00    -0.327 N 
HETATM   12  C   UNL     1      20.285  47.723  48.851  1.00  0.00     0.222 C 
HETATM   13  O   UNL     1      20.569  47.070  47.850  1.00  0.00    -0.273 OA
HETATM   14  H   UNL     1      20.730  49.088  50.309  1.00  0.00     0.169 HD
BRANCH  12  15
HETATM   15  C   UNL     1      18.925  47.532  49.519  1.00  0.00     0.113 C 
BRANCH  15  16
HETATM   16  C   UNL     1      17.785  48.416  48.971  1.00  0.00     0.030 C 
BRANCH  16  17
HETATM   17  C   UNL     1      17.095  47.841  47.694  1.00  0.00    -0.014 C 
HETATM   18  C   UNL     1      15.625  48.276  47.616  1.00  0.00     0.010 C 
HETATM   19  C   UNL     1      17.175  46.318  47.550  1.00  0.00     0.010 C 
ENDBRANCH  16  17
BRANCH  16  20
HETATM   20  C   UNL     1      18.179  49.877  48.781  1.00  0.00    -0.053 A 
HETATM   21  C   UNL     1      18.529  50.406  47.531  1.00  0.00     0.007 A 
HETATM   22  C   UNL     1      18.888  51.750  47.400  1.00  0.00     0.001 A 
HETATM   23  C   UNL     1      18.909  52.582  48.515  1.00  0.00     0.000 A 
HETATM   24  C   UNL     1      18.565  52.074  49.764  1.00  0.00     0.001 A 
HETATM   25  C   UNL     1      18.197  50.733  49.896  1.00  0.00     0.007 A 
ENDBRANCH  16  20
ENDBRANCH  15  16
ENDBRANCH  12  15
ENDBRANCH   1  11
BRANCH   8  26
HETATM   26  C   UNL     1      26.658  46.944  49.884  1.00  0.00     0.270 C 
HETATM   27  N   UNL     1      26.307  46.842  51.204  1.00  0.00    -0.365 N 
HETATM   28  H   UNL     1      25.764  47.589  51.619  1.00  0.00     0.159 HD
HETATM   29  H   UNL     1      26.563  46.020  51.726  1.00  0.00     0.159 HD
HETATM   30  O   UNL     1      27.294  46.057  49.328  1.00  0.00    -0.266 OA
ENDBRANCH   8  26
TORSDOF 6
ENDMDL
MODEL 7
REMARK VINA RESULT:      -8.3      1.867      2.345
REMARK  6 active torsions:
REMARK  status: ('A' for Active; 'I' for Inactive)
REMARK    1  A    between atoms: C_2  and  C_3 
REMARK    2  A    between atoms: C_3  and  C_4 
REMARK    3  A    between atoms: C_3  and  C_10 
REMARK    4  A    between atoms: C_10  and  C_11 
REMARK       I    between atoms: C_11  and  N_12 
REMARK    5  A    between atoms: N_12  and  C_13 
REMARK    6  A    between atoms: C_20  and  C_21 
REMARK       I    between atoms: C_21  and  N_22 
ROOT
HETATM    1  C   UNL     1      25.490  45.771  51.128  1.00  0.00     0.035 A 
HETATM    2  C   UNL     1      24.294  45.476  50.461  1.00  0.00     0.046 A 
HETATM    3  C   UNL     1      23.743  46.425  49.569  1.00  0.00     0.030 A 
HETATM    4  C   UNL     1      24.397  47.638  49.391  1.00  0.00     0.063 A 
HETATM    5  N   UNL     1      23.634  48.336  48.500  1.00  0.00    -0.277 N 
HETATM    6  H   UNL     1      23.806  49.269  48.143  1.00  0.00     0.189 HD
HETATM    7  N   UNL     1      22.547  47.680  48.063  1.00  0.00    -0.168 NA
HETATM    8  C   UNL     1      22.602  46.495  48.713  1.00  0.00     0.156 A 
HETATM    9  C   UNL     1      25.587  47.966  50.041  1.00  0.00     0.034 A 
HETATM   10  C   UNL     1      26.122  47.004  50.906  1.00  0.00     0.032 A 
ENDROOT
BRANCH   1  11
HETATM   11  N   UNL     1      26.133  44.892  52.025  1.00  0.00    -0.327 N 
HETATM   12  C   UNL     1      26.086  44.904  53.407  1.00  0.00     0.222 C 
HETATM   13  O   UNL     1      25.439  45.681  54.103  1.00  0.00    -0.273 OA
HETATM   14  H   UNL     1      26.736  44.207  51.596  1.00  0.00     0.169 HD
BRANCH  12  15
HETATM   15  C   UNL     1      26.871  43.771  54.065  1.00  0.00     0.113 C 
BRANCH  15  16
HETATM   16  C   UNL     1      28.363  43.685  53.680  1.00  0.00     0.030 C 
BRANCH  16  17
HETATM   17  C   UNL     1      28.759  42.350  52.975  1.00  0.00    -0.014 C 
HETATM   18  C   UNL     1      28.458  42.408  51.471  1.00  0.00     0.010 C 
HETATM   19  C   UNL     1      28.114  41.093  53.567  1.00  0.00     0.010 C 
ENDBRANCH  16  17
BRANCH  16  20
HETATM   20  C   UNL     1      29.313  44.014  54.827  1.00  0.00    -0.053 A 
HETATM   21  C   UNL     1      30.360  43.162  55.203  1.00  0.00     0.007 A 
HETATM   22  C   UNL     1      31.207  43.498  56.263  1.00  0.00     0.001 A 
HETATM   23  C   UNL     1      31.015  44.684  56.966  1.00  0.00     0.000 A 
HETATM   24  C   UNL     1      29.979  45.541  56.607  1.00  0.00     0.001 A 
HETATM   25  C   UNL     1      29.138  45.211  55.541  1.00  0.00     0.007 A 
ENDBRANCH  16  20
ENDBRANCH  15  16
ENDBRANCH  12  15
ENDBRANCH   1  11
BRANCH   8  26
HETATM   26  C   UNL     1      21.577  45.464  48.494  1.00  0.00     0.270 C 
HETATM   27  N   UNL     1      20.432  45.653  49.220  1.00  0.00    -0.365 N 
HETATM   28  H   UNL     1      20.370  46.465  49.822  1.00  0.00     0.159 HD
HETATM   29  H   UNL     1      19.665  45.009  49.119  1.00  0.00     0.159 HD
HETATM   30  O   UNL     1      21.694  44.511  47.732  1.00  0.00    -0.266 OA
ENDBRANCH   8  26
TORSDOF 6
ENDMDL
MODEL 8
REMARK VINA RESULT:      -8.0      1.529      2.967
REMARK  6 active torsions:
REMARK  status: ('A' for Active; 'I' for Inactive)
REMARK    1  A    between atoms: C_2  and  C_3 
REMARK    2  A    between atoms: C_3  and  C_4 
REMARK    3  A    between atoms: C_3  and  C_10 
REMARK    4  A    between atoms: C_10  and  C_11 
REMARK       I    between atoms: C_11  and  N_12 
REMARK    5  A    between atoms: N_12  and  C_13 
REMARK    6  A    between atoms: C_20  and  C_21 
REMARK       I    between atoms: C_21  and  N_22 
ROOT
HETATM    1  C   UNL     1      25.389  47.459  50.945  1.00  0.00     0.035 A 
HETATM    2  C   UNL     1      24.281  47.943  50.237  1.00  0.00     0.046 A 
HETATM    3  C   UNL     1      24.482  48.803  49.133  1.00  0.00     0.030 A 
HETATM    4  C   UNL     1      25.779  49.161  48.789  1.00  0.00     0.063 A 
HETATM    5  N   UNL     1      25.654  49.993  47.713  1.00  0.00    -0.277 N 
HETATM    6  H   UNL     1      26.400  50.452  47.202  1.00  0.00     0.189 HD
HETATM    7  N   UNL     1      24.389  50.196  47.310  1.00  0.00    -0.168 NA
HETATM    8  C   UNL     1      23.652  49.465  48.177  1.00  0.00     0.156 A 
HETATM    9  C   UNL     1      26.905  48.702  49.472  1.00  0.00     0.034 A 
HETATM   10  C   UNL     1      26.682  47.838  50.551  1.00  0.00     0.032 A 
ENDROOT
BRANCH   1  11
HETATM   11  N   UNL     1      25.303  46.586  52.049  1.00  0.00    -0.327 N 
HETATM   12  C   UNL     1      25.688  45.260  52.116  1.00  0.00     0.222 C 
HETATM   13  O   UNL     1      26.210  44.611  51.214  1.00  0.00    -0.273 OA
HETATM   14  H   UNL     1      24.859  46.973  52.868  1.00  0.00     0.169 HD
BRANCH  12  15
HETATM   15  C   UNL     1      25.491  44.623  53.490  1.00  0.00     0.113 C 
BRANCH  15  16
HETATM   16  C   UNL     1      26.762  44.517  54.360  1.00  0.00     0.030 C 
BRANCH  16  17
HETATM   17  C   UNL     1      27.426  45.893  54.682  1.00  0.00    -0.014 C 
HETATM   18  C   UNL     1      28.369  45.783  55.888  1.00  0.00     0.010 C 
HETATM   19  C   UNL     1      26.442  47.043  54.918  1.00  0.00     0.010 C 
ENDBRANCH  16  17
BRANCH  16  20
HETATM   20  C   UNL     1      27.783  43.514  53.835  1.00  0.00    -0.053 A 
HETATM   21  C   UNL     1      29.004  43.909  53.272  1.00  0.00     0.007 A 
HETATM   22  C   UNL     1      29.912  42.958  52.799  1.00  0.00     0.001 A 
HETATM   23  C   UNL     1      29.610  41.602  52.875  1.00  0.00     0.000 A 
HETATM   24  C   UNL     1      28.403  41.192  53.430  1.00  0.00     0.001 A 
HETATM   25  C   UNL     1      27.498  42.140  53.912  1.00  0.00     0.007 A 
ENDBRANCH  16  20
ENDBRANCH  15  16
ENDBRANCH  12  15
ENDBRANCH   1  11
BRANCH   8  26
HETATM   26  C   UNL     1      22.188  49.408  48.063  1.00  0.00     0.270 C 
HETATM   27  N   UNL     1      21.710  48.206  47.616  1.00  0.00    -0.365 N 
HETATM   28  H   UNL     1      22.373  47.466  47.416  1.00  0.00     0.159 HD
HETATM   29  H   UNL     1      20.717  48.065  47.526  1.00  0.00     0.159 HD
HETATM   30  O   UNL     1      21.427  50.328  48.342  1.00  0.00    -0.266 OA
ENDBRANCH   8  26
TORSDOF 6
ENDMDL
MODEL 9
REMARK VINA RESULT:      -7.8      4.131      5.451
REMARK  6 active torsions:
REMARK  status: ('A' for Active; 'I' for Inactive)
REMARK    1  A    between atoms: C_2  and  C_3 
REMARK    2  A    between atoms: C_3  and  C_4 
REMARK    3  A    between atoms: C_3  and  C_10 
REMARK    4  A    between atoms: C_10  and  C_11 
REMARK       I    between atoms: C_11  and  N_12 
REMARK    5  A    between atoms: N_12  and  C_13 
REMARK    6  A    between atoms: C_20  and  C_21 
REMARK       I    between atoms: C_21  and  N_22 
ROOT
HETATM    1  C   UNL     1      27.124  42.551  50.937  1.00  0.00     0.035 A 
HETATM    2  C   UNL     1      26.003  42.891  50.168  1.00  0.00     0.046 A 
HETATM    3  C   UNL     1      25.383  41.903  49.369  1.00  0.00     0.030 A 
HETATM    4  C   UNL     1      25.915  40.620  49.355  1.00  0.00     0.063 A 
HETATM    5  N   UNL     1      25.125  39.907  48.498  1.00  0.00    -0.277 N 
HETATM    6  H   UNL     1      25.224  38.932  48.240  1.00  0.00     0.189 HD
HETATM    7  N   UNL     1      24.110  40.606  47.965  1.00  0.00    -0.168 NA
HETATM    8  C   UNL     1      24.254  41.842  48.496  1.00  0.00     0.156 A 
HETATM    9  C   UNL     1      27.030  40.248  50.105  1.00  0.00     0.034 A 
HETATM   10  C   UNL     1      27.617  41.238  50.902  1.00  0.00     0.032 A 
ENDROOT
BRANCH   1  11
HETATM   11  N   UNL     1      27.807  43.453  51.779  1.00  0.00    -0.327 N 
HETATM   12  C   UNL     1      27.525  43.767  53.096  1.00  0.00     0.222 C 
HETATM   13  O   UNL     1      26.630  43.280  53.781  1.00  0.00    -0.273 OA
HETATM   14  H   UNL     1      28.561  43.962  51.341  1.00  0.00     0.169 HD
BRANCH  12  15
HETATM   15  C   UNL     1      28.504  44.758  53.722  1.00  0.00     0.113 C 
BRANCH  15  16
HETATM   16  C   UNL     1      28.147  45.233  55.147  1.00  0.00     0.030 C 
BRANCH  16  17
HETATM   17  C   UNL     1      27.568  46.681  55.205  1.00  0.00    -0.014 C 
HETATM   18  C   UNL     1      26.163  46.740  54.590  1.00  0.00     0.010 C 
HETATM   19  C   UNL     1      28.446  47.753  54.552  1.00  0.00     0.010 C 
ENDBRANCH  16  17
BRANCH  16  20
HETATM   20  C   UNL     1      29.273  45.042  56.158  1.00  0.00    -0.053 A 
HETATM   21  C   UNL     1      29.335  45.760  57.359  1.00  0.00     0.007 A 
HETATM   22  C   UNL     1      30.387  45.559  58.257  1.00  0.00     0.001 A 
HETATM   23  C   UNL     1      31.393  44.643  57.965  1.00  0.00     0.000 A 
HETATM   24  C   UNL     1      31.348  43.921  56.776  1.00  0.00     0.001 A 
HETATM   25  C   UNL     1      30.293  44.115  55.881  1.00  0.00     0.007 A 
ENDBRANCH  16  20
ENDBRANCH  15  16
ENDBRANCH  12  15
ENDBRANCH   1  11
BRANCH   8  26
HETATM   26  C   UNL     1      23.311  42.921  48.166  1.00  0.00     0.270 C 
HETATM   27  N   UNL     1      23.693  43.686  47.098  1.00  0.00    -0.365 N 
HETATM   28  H   UNL     1      24.556  43.456  46.621  1.00  0.00     0.159 HD
HETATM   29  H   UNL     1      23.099  44.437  46.785  1.00  0.00     0.159 HD
HETATM   30  O   UNL     1      22.264  43.143  48.763  1.00  0.00    -0.266 OA
ENDBRANCH   8  26
TORSDOF 6
ENDMDL
MODEL 10
REMARK VINA RESULT:      -7.8      2.400      4.155
REMARK  6 active torsions:
REMARK  status: ('A' for Active; 'I' for Inactive)
REMARK    1  A    between atoms: C_2  and  C_3 
REMARK    2  A    between atoms: C_3  and  C_4 
REMARK    3  A    between atoms: C_3  and  C_10 
REMARK    4  A    between atoms: C_10  and  C_11 
REMARK       I    between atoms: C_11  and  N_12 
REMARK    5  A    between atoms: N_12  and  C_13 
REMARK    6  A    between atoms: C_20  and  C_21 
REMARK       I    between atoms: C_21  and  N_22 
ROOT
HETATM    1  C   UNL     1      23.625  48.994  48.909  1.00  0.00     0.035 A 
HETATM    2  C   UNL     1      22.367  48.752  49.475  1.00  0.00     0.046 A 
HETATM    3  C   UNL     1      21.342  49.716  49.330  1.00  0.00     0.030 A 
HETATM    4  C   UNL     1      21.618  50.890  48.641  1.00  0.00     0.063 A 
HETATM    5  N   UNL     1      20.460  51.614  48.678  1.00  0.00    -0.277 N 
HETATM    6  H   UNL     1      20.297  52.532  48.278  1.00  0.00     0.189 HD
HETATM    7  N   UNL     1      19.444  51.009  49.313  1.00  0.00    -0.168 NA
HETATM    8  C   UNL     1      19.973  49.832  49.721  1.00  0.00     0.156 A 
HETATM    9  C   UNL     1      22.859  51.165  48.068  1.00  0.00     0.034 A 
HETATM   10  C   UNL     1      23.853  50.189  48.210  1.00  0.00     0.032 A 
ENDROOT
BRANCH   1  11
HETATM   11  N   UNL     1      24.711  48.096  48.982  1.00  0.00    -0.327 N 
HETATM   12  C   UNL     1      25.345  47.619  50.114  1.00  0.00     0.222 C 
HETATM   13  O   UNL     1      25.046  47.879  51.276  1.00  0.00    -0.273 OA
HETATM   14  H   UNL     1      25.093  47.813  48.092  1.00  0.00     0.169 HD
BRANCH  12  15
HETATM   15  C   UNL     1      26.463  46.619  49.826  1.00  0.00     0.113 C 
BRANCH  15  16
HETATM   16  C   UNL     1      26.203  45.176  50.307  1.00  0.00     0.030 C 
BRANCH  16  17
HETATM   17  C   UNL     1      24.695  44.772  50.312  1.00  0.00    -0.014 C 
HETATM   18  C   UNL     1      24.477  43.458  51.075  1.00  0.00     0.010 C 
HETATM   19  C   UNL     1      24.054  44.659  48.926  1.00  0.00     0.010 C 
ENDBRANCH  16  17
BRANCH  16  20
HETATM   20  C   UNL     1      26.875  44.841  51.634  1.00  0.00    -0.053 A 
HETATM   21  C   UNL     1      26.510  45.458  52.838  1.00  0.00     0.007 A 
HETATM   22  C   UNL     1      27.153  45.126  54.034  1.00  0.00     0.001 A 
HETATM   23  C   UNL     1      28.172  44.179  54.042  1.00  0.00     0.000 A 
HETATM   24  C   UNL     1      28.548  43.557  52.856  1.00  0.00     0.001 A 
HETATM   25  C   UNL     1      27.900  43.880  51.661  1.00  0.00     0.007 A 
ENDBRANCH  16  20
ENDBRANCH  15  16
ENDBRANCH  12  15
ENDBRANCH   1  11
BRANCH   8  26
HETATM   26  C   UNL     1      19.161  48.853  50.457  1.00  0.00     0.270 C 
HETATM   27  N   UNL     1      19.022  47.651  49.817  1.00  0.00    -0.365 N 
HETATM   28  H   UNL     1      19.482  47.523  48.924  1.00  0.00     0.159 HD
HETATM   29  H   UNL     1      18.500  46.910  50.254  1.00  0.00     0.159 HD
HETATM   30  O   UNL     1      18.644  49.051  51.551  1.00  0.00    -0.266 OA
ENDBRANCH   8  26
TORSDOF 6
ENDMDL
