MODEL 1
REMARK VINA RESULT:     -11.4      0.000      0.000
REMARK  8 active torsions:
REMARK  status: ('A' for Active; 'I' for Inactive)
REMARK    1  A    between atoms: C_6  and  S_7 
REMARK    2  A    between atoms: S_7  and  C_8 
REMARK    3  A    between atoms: C_8  and  C_9 
REMARK       I    between atoms: C_9  and  N_10 
REMARK    4  A    between atoms: N_10  and  C_11 
REMARK    5  A    between atoms: C_24  and  C_25 
REMARK    6  A    between atoms: C_25  and  C_26 
REMARK       I    between atoms: C_26  and  N_27 
REMARK    7  A    between atoms: N_27  and  C_28 
REMARK    8  A    between atoms: C_28  and  C_29 
ROOT
HETATM    1  C   UNL     1      22.672  42.965  47.528  1.00  0.00     0.001 A 
HETATM    2  C   UNL     1      23.016  44.250  47.945  1.00  0.00     0.018 A 
HETATM    3  C   UNL     1      23.820  44.404  49.077  1.00  0.00     0.039 A 
HETATM    4  C   UNL     1      24.284  43.299  49.805  1.00  0.00     0.073 A 
HETATM    5  N   UNL     1      25.128  43.431  50.924  1.00  0.00    -0.223 NA
HETATM    6  C   UNL     1      25.438  44.629  51.305  1.00  0.00     0.178 C 
HETATM    7  N   UNL     1      24.927  45.771  50.715  1.00  0.00    -0.241 N 
HETATM    8  C   UNL     1      24.194  45.728  49.577  1.00  0.00     0.147 C 
HETATM    9  N   UNL     1      23.881  46.859  49.024  1.00  0.00    -0.256 NA
HETATM   10  C   UNL     1      25.000  47.083  51.109  1.00  0.00     0.257 C 
HETATM   11  O   UNL     1      25.301  47.524  52.206  1.00  0.00    -0.270 OA
HETATM   12  C   UNL     1      24.466  47.892  49.939  1.00  0.00     0.211 C 
HETATM   13  C   UNL     1      23.933  42.021  49.371  1.00  0.00     0.032 A 
HETATM   14  C   UNL     1      23.130  41.854  48.238  1.00  0.00     0.002 A 
ENDROOT
BRANCH  12  15
HETATM   15  C   UNL     1      25.589  48.646  49.237  1.00  0.00     0.140 C 
BRANCH  15  16
HETATM   16  C   UNL     1      24.967  49.740  48.399  1.00  0.00     0.220 C 
HETATM   17  N   UNL     1      23.707  50.112  48.805  1.00  0.00    -0.357 N 
HETATM   18  H   UNL     1      23.360  49.851  49.718  1.00  0.00     0.162 HD
HETATM   19  O   UNL     1      25.521  50.164  47.389  1.00  0.00    -0.274 OA
BRANCH  17  20
HETATM   20  C   UNL     1      22.808  50.831  47.930  1.00  0.00     0.161 C 
BRANCH  20  21
HETATM   21  C   UNL     1      21.356  50.609  48.261  1.00  0.00    -0.038 A 
HETATM   22  C   UNL     1      20.803  49.317  48.219  1.00  0.00     0.048 A 
HETATM   23  C   UNL     1      19.450  49.182  48.451  1.00  0.00     0.105 A 
HETATM   24  C   UNL     1      18.648  50.264  48.730  1.00  0.00     0.105 A 
HETATM   25  O   UNL     1      18.751  48.015  48.415  1.00  0.00    -0.323 OA
HETATM   26  O   UNL     1      17.346  49.915  48.905  1.00  0.00    -0.323 OA
HETATM   27  C   UNL     1      19.153  51.542  48.798  1.00  0.00     0.040 A 
HETATM   28  C   UNL     1      17.412  48.495  48.661  1.00  0.00     0.352 A 
HETATM   29  C   UNL     1      20.520  51.712  48.557  1.00  0.00     0.012 A 
ENDBRANCH  20  21
ENDBRANCH  17  20
ENDBRANCH  15  16
ENDBRANCH  12  15
BRANCH   6  30
HETATM   30  S   UNL     1      26.644  44.814  52.547  1.00  0.00    -0.082 SA
BRANCH  30  31
HETATM   31  C   UNL     1      27.897  43.679  51.910  1.00  0.00     0.185 C 
BRANCH  31  32
HETATM   32  C   UNL     1      29.051  43.605  52.894  1.00  0.00     0.231 C 
HETATM   33  N   UNL     1      28.742  44.145  54.133  1.00  0.00    -0.327 N 
HETATM   34  H   UNL     1      27.799  44.492  54.262  1.00  0.00     0.169 HD
HETATM   35  O   UNL     1      30.127  43.117  52.561  1.00  0.00    -0.272 OA
BRANCH  33  36
HETATM   36  C   UNL     1      29.588  44.234  55.257  1.00  0.00     0.034 A 
HETATM   37  C   UNL     1      30.515  43.251  55.616  1.00  0.00     0.032 A 
HETATM   38  C   UNL     1      31.318  43.413  56.749  1.00  0.00     0.044 A 
HETATM   39  C   UNL     1      31.198  44.564  57.516  1.00  0.00     0.116 A 
HETATM   40  F   UNL     1      31.971  44.723  58.597  1.00  0.00    -0.206 F 
HETATM   41  C   UNL     1      30.285  45.553  57.176  1.00  0.00     0.044 A 
HETATM   42  C   UNL     1      29.473  45.383  56.052  1.00  0.00     0.032 A 
ENDBRANCH  33  36
ENDBRANCH  31  32
ENDBRANCH  30  31
ENDBRANCH   6  30
TORSDOF 8
ENDMDL
MODEL 2
REMARK VINA RESULT:     -11.3      3.771     10.965
REMARK  8 active torsions:
REMARK  status: ('A' for Active; 'I' for Inactive)
REMARK    1  A    between atoms: C_6  and  S_7 
REMARK    2  A    between atoms: S_7  and  C_8 
REMARK    3  A    between atoms: C_8  and  C_9 
REMARK       I    between atoms: C_9  and  N_10 
REMARK    4  A    between atoms: N_10  and  C_11 
REMARK    5  A    between atoms: C_24  and  C_25 
REMARK    6  A    between atoms: C_25  and  C_26 
REMARK       I    between atoms: C_26  and  N_27 
REMARK    7  A    between atoms: N_27  and  C_28 
REMARK    8  A    between atoms: C_28  and  C_29 
ROOT
HETATM    1  C   UNL     1      27.793  49.470  49.136  1.00  0.00     0.001 A 
HETATM    2  C   UNL     1      27.568  48.190  49.640  1.00  0.00     0.018 A 
HETATM    3  C   UNL     1      26.291  47.635  49.537  1.00  0.00     0.039 A 
HETATM    4  C   UNL     1      25.230  48.334  48.943  1.00  0.00     0.073 A 
HETATM    5  N   UNL     1      23.946  47.777  48.792  1.00  0.00    -0.223 NA
HETATM    6  C   UNL     1      23.747  46.589  49.267  1.00  0.00     0.178 C 
HETATM    7  N   UNL     1      24.705  45.880  49.971  1.00  0.00    -0.241 N 
HETATM    8  C   UNL     1      25.988  46.305  50.069  1.00  0.00     0.147 C 
HETATM    9  N   UNL     1      26.842  45.503  50.626  1.00  0.00    -0.256 NA
HETATM   10  C   UNL     1      24.600  44.717  50.690  1.00  0.00     0.257 C 
HETATM   11  O   UNL     1      23.587  44.177  51.103  1.00  0.00    -0.270 OA
HETATM   12  C   UNL     1      26.026  44.310  51.021  1.00  0.00     0.211 C 
HETATM   13  C   UNL     1      25.474  49.613  48.441  1.00  0.00     0.032 A 
HETATM   14  C   UNL     1      26.749  50.179  48.538  1.00  0.00     0.002 A 
ENDROOT
BRANCH  12  15
HETATM   15  C   UNL     1      26.447  43.088  50.214  1.00  0.00     0.140 C 
BRANCH  15  16
HETATM   16  C   UNL     1      27.518  42.359  50.992  1.00  0.00     0.220 C 
HETATM   17  N   UNL     1      27.969  43.037  52.100  1.00  0.00    -0.357 N 
HETATM   18  H   UNL     1      27.447  43.816  52.477  1.00  0.00     0.162 HD
HETATM   19  O   UNL     1      27.996  41.304  50.586  1.00  0.00    -0.274 OA
BRANCH  17  20
HETATM   20  C   UNL     1      29.228  42.710  52.732  1.00  0.00     0.161 C 
BRANCH  20  21
HETATM   21  C   UNL     1      29.510  43.541  53.955  1.00  0.00    -0.038 A 
HETATM   22  C   UNL     1      30.512  43.159  54.863  1.00  0.00     0.048 A 
HETATM   23  C   UNL     1      30.672  43.911  56.009  1.00  0.00     0.105 A 
HETATM   24  C   UNL     1      29.893  45.015  56.269  1.00  0.00     0.105 A 
HETATM   25  O   UNL     1      31.567  43.663  57.003  1.00  0.00    -0.323 OA
HETATM   26  O   UNL     1      30.200  45.599  57.458  1.00  0.00    -0.323 OA
HETATM   27  C   UNL     1      28.914  45.433  55.397  1.00  0.00     0.040 A 
HETATM   28  C   UNL     1      31.231  44.712  57.936  1.00  0.00     0.352 A 
HETATM   29  C   UNL     1      28.721  44.683  54.233  1.00  0.00     0.012 A 
ENDBRANCH  20  21
ENDBRANCH  17  20
ENDBRANCH  15  16
ENDBRANCH  12  15
BRANCH   6  30
HETATM   30  S   UNL     1      22.239  45.798  48.907  1.00  0.00    -0.082 SA
BRANCH  30  31
HETATM   31  C   UNL     1      21.831  46.637  47.359  1.00  0.00     0.185 C 
BRANCH  31  32
HETATM   32  C   UNL     1      20.670  47.585  47.597  1.00  0.00     0.231 C 
HETATM   33  N   UNL     1      21.002  48.657  48.411  1.00  0.00    -0.327 N 
HETATM   34  H   UNL     1      21.964  48.714  48.727  1.00  0.00     0.169 HD
HETATM   35  O   UNL     1      19.569  47.364  47.101  1.00  0.00    -0.272 OA
BRANCH  33  36
HETATM   36  C   UNL     1      20.157  49.706  48.825  1.00  0.00     0.034 A 
HETATM   37  C   UNL     1      19.061  49.536  49.676  1.00  0.00     0.032 A 
HETATM   38  C   UNL     1      18.267  50.629  50.038  1.00  0.00     0.044 A 
HETATM   39  C   UNL     1      18.579  51.892  49.556  1.00  0.00     0.116 A 
HETATM   40  F   UNL     1      17.824  52.941  49.908  1.00  0.00    -0.206 F 
HETATM   41  C   UNL     1      19.664  52.083  48.711  1.00  0.00     0.044 A 
HETATM   42  C   UNL     1      20.447  50.988  48.338  1.00  0.00     0.032 A 
ENDBRANCH  33  36
ENDBRANCH  31  32
ENDBRANCH  30  31
ENDBRANCH   6  30
TORSDOF 8
ENDMDL
MODEL 3
REMARK VINA RESULT:     -10.7      4.347      9.000
REMARK  8 active torsions:
REMARK  status: ('A' for Active; 'I' for Inactive)
REMARK    1  A    between atoms: C_6  and  S_7 
REMARK    2  A    between atoms: S_7  and  C_8 
REMARK    3  A    between atoms: C_8  and  C_9 
REMARK       I    between atoms: C_9  and  N_10 
REMARK    4  A    between atoms: N_10  and  C_11 
REMARK    5  A    between atoms: C_24  and  C_25 
REMARK    6  A    between atoms: C_25  and  C_26 
REMARK       I    between atoms: C_26  and  N_27 
REMARK    7  A    between atoms: N_27  and  C_28 
REMARK    8  A    between atoms: C_28  and  C_29 
ROOT
HETATM    1  C   UNL     1      17.487  52.136  49.926  1.00  0.00     0.001 A 
HETATM    2  C   UNL     1      18.805  51.707  49.773  1.00  0.00     0.018 A 
HETATM    3  C   UNL     1      19.075  50.635  48.920  1.00  0.00     0.039 A 
HETATM    4  C   UNL     1      18.055  49.977  48.219  1.00  0.00     0.073 A 
HETATM    5  N   UNL     1      18.310  48.921  47.322  1.00  0.00    -0.223 NA
HETATM    6  C   UNL     1      19.538  48.529  47.192  1.00  0.00     0.178 C 
HETATM    7  N   UNL     1      20.585  49.044  47.935  1.00  0.00    -0.241 N 
HETATM    8  C   UNL     1      20.435  50.124  48.738  1.00  0.00     0.147 C 
HETATM    9  N   UNL     1      21.505  50.618  49.281  1.00  0.00    -0.256 NA
HETATM   10  C   UNL     1      21.883  48.618  48.054  1.00  0.00     0.257 C 
HETATM   11  O   UNL     1      22.351  47.534  47.746  1.00  0.00    -0.270 OA
HETATM   12  C   UNL     1      22.608  49.720  48.809  1.00  0.00     0.211 C 
HETATM   13  C   UNL     1      16.743  50.422  48.381  1.00  0.00     0.032 A 
HETATM   14  C   UNL     1      16.459  51.495  49.231  1.00  0.00     0.002 A 
ENDROOT
BRANCH  12  15
HETATM   15  C   UNL     1      23.555  50.481  47.889  1.00  0.00     0.140 C 
BRANCH  15  16
HETATM   16  C   UNL     1      24.926  49.855  48.008  1.00  0.00     0.220 C 
HETATM   17  N   UNL     1      25.040  48.939  49.028  1.00  0.00    -0.357 N 
HETATM   18  H   UNL     1      24.218  48.555  49.472  1.00  0.00     0.162 HD
HETATM   19  O   UNL     1      25.861  50.228  47.306  1.00  0.00    -0.274 OA
BRANCH  17  20
HETATM   20  C   UNL     1      26.328  48.537  49.547  1.00  0.00     0.161 C 
BRANCH  20  21
HETATM   21  C   UNL     1      26.303  47.187  50.214  1.00  0.00    -0.038 A 
HETATM   22  C   UNL     1      26.882  46.070  49.588  1.00  0.00     0.048 A 
HETATM   23  C   UNL     1      26.757  44.843  50.205  1.00  0.00     0.105 A 
HETATM   24  C   UNL     1      26.100  44.694  51.405  1.00  0.00     0.105 A 
HETATM   25  O   UNL     1      27.226  43.660  49.722  1.00  0.00    -0.323 OA
HETATM   26  O   UNL     1      26.074  43.402  51.827  1.00  0.00    -0.323 OA
HETATM   27  C   UNL     1      25.536  45.765  52.058  1.00  0.00     0.040 A 
HETATM   28  C   UNL     1      26.751  42.748  50.735  1.00  0.00     0.352 A 
HETATM   29  C   UNL     1      25.636  47.021  51.451  1.00  0.00     0.012 A 
ENDBRANCH  20  21
ENDBRANCH  17  20
ENDBRANCH  15  16
ENDBRANCH  12  15
BRANCH   6  30
HETATM   30  S   UNL     1      19.906  47.376  45.940  1.00  0.00    -0.082 SA
BRANCH  30  31
HETATM   31  C   UNL     1      18.746  46.068  46.396  1.00  0.00     0.185 C 
BRANCH  31  32
HETATM   32  C   UNL     1      19.429  45.104  47.348  1.00  0.00     0.231 C 
HETATM   33  N   UNL     1      20.751  44.855  47.012  1.00  0.00    -0.327 N 
HETATM   34  H   UNL     1      21.124  45.351  46.211  1.00  0.00     0.169 HD
HETATM   35  O   UNL     1      18.816  44.618  48.294  1.00  0.00    -0.272 OA
BRANCH  33  36
HETATM   36  C   UNL     1      21.656  44.010  47.686  1.00  0.00     0.034 A 
HETATM   37  C   UNL     1      22.177  44.278  48.955  1.00  0.00     0.032 A 
HETATM   38  C   UNL     1      23.074  43.389  49.557  1.00  0.00     0.044 A 
HETATM   39  C   UNL     1      23.438  42.227  48.890  1.00  0.00     0.116 A 
HETATM   40  F   UNL     1      24.291  41.372  49.468  1.00  0.00    -0.206 F 
HETATM   41  C   UNL     1      22.931  41.941  47.630  1.00  0.00     0.044 A 
HETATM   42  C   UNL     1      22.047  42.837  47.024  1.00  0.00     0.032 A 
ENDBRANCH  33  36
ENDBRANCH  31  32
ENDBRANCH  30  31
ENDBRANCH   6  30
TORSDOF 8
ENDMDL
MODEL 4
REMARK VINA RESULT:     -10.6      1.231      1.504
REMARK  8 active torsions:
REMARK  status: ('A' for Active; 'I' for Inactive)
REMARK    1  A    between atoms: C_6  and  S_7 
REMARK    2  A    between atoms: S_7  and  C_8 
REMARK    3  A    between atoms: C_8  and  C_9 
REMARK       I    between atoms: C_9  and  N_10 
REMARK    4  A    between atoms: N_10  and  C_11 
REMARK    5  A    between atoms: C_24  and  C_25 
REMARK    6  A    between atoms: C_25  and  C_26 
REMARK       I    between atoms: C_26  and  N_27 
REMARK    7  A    between atoms: N_27  and  C_28 
REMARK    8  A    between atoms: C_28  and  C_29 
ROOT
HETATM    1  C   UNL     1      22.171  43.222  46.816  1.00  0.00     0.001 A 
HETATM    2  C   UNL     1      22.515  44.462  47.351  1.00  0.00     0.018 A 
HETATM    3  C   UNL     1      23.395  44.514  48.434  1.00  0.00     0.039 A 
HETATM    4  C   UNL     1      23.937  43.350  48.998  1.00  0.00     0.073 A 
HETATM    5  N   UNL     1      24.857  43.382  50.063  1.00  0.00    -0.223 NA
HETATM    6  C   UNL     1      25.166  44.540  50.555  1.00  0.00     0.178 C 
HETATM    7  N   UNL     1      24.587  45.724  50.136  1.00  0.00    -0.241 N 
HETATM    8  C   UNL     1      23.774  45.785  49.054  1.00  0.00     0.147 C 
HETATM    9  N   UNL     1      23.396  46.960  48.656  1.00  0.00    -0.256 NA
HETATM   10  C   UNL     1      24.659  46.985  50.669  1.00  0.00     0.257 C 
HETATM   11  O   UNL     1      25.029  47.311  51.786  1.00  0.00    -0.270 OA
HETATM   12  C   UNL     1      24.022  47.903  49.638  1.00  0.00     0.211 C 
HETATM   13  C   UNL     1      23.584  42.118  48.447  1.00  0.00     0.032 A 
HETATM   14  C   UNL     1      22.704  42.053  47.362  1.00  0.00     0.002 A 
ENDROOT
BRANCH  12  15
HETATM   15  C   UNL     1      25.074  48.765  48.950  1.00  0.00     0.140 C 
BRANCH  15  16
HETATM   16  C   UNL     1      24.381  49.978  48.373  1.00  0.00     0.220 C 
HETATM   17  N   UNL     1      23.263  50.372  49.072  1.00  0.00    -0.357 N 
HETATM   18  H   UNL     1      23.091  50.031  50.007  1.00  0.00     0.162 HD
HETATM   19  O   UNL     1      24.749  50.481  47.316  1.00  0.00    -0.274 OA
BRANCH  17  20
HETATM   20  C   UNL     1      22.263  51.233  48.481  1.00  0.00     0.161 C 
BRANCH  20  21
HETATM   21  C   UNL     1      20.862  50.702  48.629  1.00  0.00    -0.038 A 
HETATM   22  C   UNL     1      20.387  49.693  47.774  1.00  0.00     0.048 A 
HETATM   23  C   UNL     1      19.070  49.302  47.901  1.00  0.00     0.105 A 
HETATM   24  C   UNL     1      18.232  49.860  48.838  1.00  0.00     0.105 A 
HETATM   25  O   UNL     1      18.442  48.368  47.136  1.00  0.00    -0.323 OA
HETATM   26  O   UNL     1      16.974  49.348  48.781  1.00  0.00    -0.323 OA
HETATM   27  C   UNL     1      18.664  50.837  49.706  1.00  0.00     0.040 A 
HETATM   28  C   UNL     1      17.103  48.436  47.672  1.00  0.00     0.352 A 
HETATM   29  C   UNL     1      19.991  51.262  49.593  1.00  0.00     0.012 A 
ENDBRANCH  20  21
ENDBRANCH  17  20
ENDBRANCH  15  16
ENDBRANCH  12  15
BRANCH   6  30
HETATM   30  S   UNL     1      26.455  44.622  51.723  1.00  0.00    -0.082 SA
BRANCH  30  31
HETATM   31  C   UNL     1      25.528  44.196  53.214  1.00  0.00     0.185 C 
BRANCH  31  32
HETATM   32  C   UNL     1      26.500  43.959  54.355  1.00  0.00     0.231 C 
HETATM   33  N   UNL     1      27.772  44.444  54.094  1.00  0.00    -0.327 N 
HETATM   34  H   UNL     1      27.911  44.921  53.211  1.00  0.00     0.169 HD
HETATM   35  O   UNL     1      26.139  43.379  55.375  1.00  0.00    -0.272 OA
BRANCH  33  36
HETATM   36  C   UNL     1      28.897  44.380  54.941  1.00  0.00     0.034 A 
HETATM   37  C   UNL     1      29.217  45.357  55.889  1.00  0.00     0.032 A 
HETATM   38  C   UNL     1      30.355  45.222  56.690  1.00  0.00     0.044 A 
HETATM   39  C   UNL     1      31.165  44.104  56.549  1.00  0.00     0.116 A 
HETATM   40  F   UNL     1      32.251  43.971  57.321  1.00  0.00    -0.206 F 
HETATM   41  C   UNL     1      30.865  43.122  55.614  1.00  0.00     0.044 A 
HETATM   42  C   UNL     1      29.736  43.265  54.804  1.00  0.00     0.032 A 
ENDBRANCH  33  36
ENDBRANCH  31  32
ENDBRANCH  30  31
ENDBRANCH   6  30
TORSDOF 8
ENDMDL
MODEL 5
REMARK VINA RESULT:     -10.6      3.680     10.628
REMARK  8 active torsions:
REMARK  status: ('A' for Active; 'I' for Inactive)
REMARK    1  A    between atoms: C_6  and  S_7 
REMARK    2  A    between atoms: S_7  and  C_8 
REMARK    3  A    between atoms: C_8  and  C_9 
REMARK       I    between atoms: C_9  and  N_10 
REMARK    4  A    between atoms: N_10  and  C_11 
REMARK    5  A    between atoms: C_24  and  C_25 
REMARK    6  A    between atoms: C_25  and  C_26 
REMARK       I    between atoms: C_26  and  N_27 
REMARK    7  A    between atoms: N_27  and  C_28 
REMARK    8  A    between atoms: C_28  and  C_29 
ROOT
HETATM    1  C   UNL     1      21.199  42.988  46.550  1.00  0.00     0.001 A 
HETATM    2  C   UNL     1      22.370  42.902  47.301  1.00  0.00     0.018 A 
HETATM    3  C   UNL     1      22.885  44.058  47.890  1.00  0.00     0.039 A 
HETATM    4  C   UNL     1      22.257  45.302  47.740  1.00  0.00     0.073 A 
HETATM    5  N   UNL     1      22.737  46.473  48.359  1.00  0.00    -0.223 NA
HETATM    6  C   UNL     1      23.828  46.382  49.052  1.00  0.00     0.178 C 
HETATM    7  N   UNL     1      24.572  45.219  49.150  1.00  0.00    -0.241 N 
HETATM    8  C   UNL     1      24.124  44.034  48.670  1.00  0.00     0.147 C 
HETATM    9  N   UNL     1      24.827  42.977  48.936  1.00  0.00    -0.256 NA
HETATM   10  C   UNL     1      25.822  45.006  49.673  1.00  0.00     0.257 C 
HETATM   11  O   UNL     1      26.681  45.833  49.930  1.00  0.00    -0.270 OA
HETATM   12  C   UNL     1      25.995  43.497  49.718  1.00  0.00     0.211 C 
HETATM   13  C   UNL     1      21.084  45.370  46.988  1.00  0.00     0.032 A 
HETATM   14  C   UNL     1      20.557  44.219  46.394  1.00  0.00     0.002 A 
ENDROOT
BRANCH  12  15
HETATM   15  C   UNL     1      25.944  42.984  51.152  1.00  0.00     0.140 C 
BRANCH  15  16
HETATM   16  C   UNL     1      27.316  42.459  51.510  1.00  0.00     0.220 C 
HETATM   17  N   UNL     1      27.770  42.867  52.743  1.00  0.00    -0.357 N 
HETATM   18  H   UNL     1      27.135  43.262  53.423  1.00  0.00     0.162 HD
HETATM   19  O   UNL     1      27.983  41.813  50.707  1.00  0.00    -0.274 OA
BRANCH  17  20
HETATM   20  C   UNL     1      29.172  42.808  53.094  1.00  0.00     0.161 C 
BRANCH  20  21
HETATM   21  C   UNL     1      29.521  43.667  54.281  1.00  0.00    -0.038 A 
HETATM   22  C   UNL     1      30.524  43.268  55.181  1.00  0.00     0.048 A 
HETATM   23  C   UNL     1      30.745  44.050  56.295  1.00  0.00     0.105 A 
HETATM   24  C   UNL     1      30.027  45.199  56.532  1.00  0.00     0.105 A 
HETATM   25  O   UNL     1      31.650  43.793  57.279  1.00  0.00    -0.323 OA
HETATM   26  O   UNL     1      30.388  45.808  57.693  1.00  0.00    -0.323 OA
HETATM   27  C   UNL     1      29.050  45.633  55.667  1.00  0.00     0.040 A 
HETATM   28  C   UNL     1      31.386  44.888  58.181  1.00  0.00     0.352 A 
HETATM   29  C   UNL     1      28.795  44.854  54.534  1.00  0.00     0.012 A 
ENDBRANCH  20  21
ENDBRANCH  17  20
ENDBRANCH  15  16
ENDBRANCH  12  15
BRANCH   6  30
HETATM   30  S   UNL     1      24.323  47.758  49.996  1.00  0.00    -0.082 SA
BRANCH  30  31
HETATM   31  C   UNL     1      24.182  49.045  48.735  1.00  0.00     0.185 C 
BRANCH  31  32
HETATM   32  C   UNL     1      23.115  50.039  49.155  1.00  0.00     0.231 C 
HETATM   33  N   UNL     1      21.828  49.602  48.882  1.00  0.00    -0.327 N 
HETATM   34  H   UNL     1      21.732  48.679  48.475  1.00  0.00     0.169 HD
HETATM   35  O   UNL     1      23.425  51.112  49.666  1.00  0.00    -0.272 OA
BRANCH  33  36
HETATM   36  C   UNL     1      20.623  50.286  49.143  1.00  0.00     0.034 A 
HETATM   37  C   UNL     1      20.298  51.530  48.594  1.00  0.00     0.032 A 
HETATM   38  C   UNL     1      19.081  52.146  48.905  1.00  0.00     0.044 A 
HETATM   39  C   UNL     1      18.188  51.510  49.756  1.00  0.00     0.116 A 
HETATM   40  F   UNL     1      17.020  52.096  50.048  1.00  0.00    -0.206 F 
HETATM   41  C   UNL     1      18.492  50.275  50.311  1.00  0.00     0.044 A 
HETATM   42  C   UNL     1      19.713  49.666  50.012  1.00  0.00     0.032 A 
ENDBRANCH  33  36
ENDBRANCH  31  32
ENDBRANCH  30  31
ENDBRANCH   6  30
TORSDOF 8
ENDMDL
MODEL 6
REMARK VINA RESULT:     -10.2      4.109     10.503
REMARK  8 active torsions:
REMARK  status: ('A' for Active; 'I' for Inactive)
REMARK    1  A    between atoms: C_6  and  S_7 
REMARK    2  A    between atoms: S_7  and  C_8 
REMARK    3  A    between atoms: C_8  and  C_9 
REMARK       I    between atoms: C_9  and  N_10 
REMARK    4  A    between atoms: N_10  and  C_11 
REMARK    5  A    between atoms: C_24  and  C_25 
REMARK    6  A    between atoms: C_25  and  C_26 
REMARK       I    between atoms: C_26  and  N_27 
REMARK    7  A    between atoms: N_27  and  C_28 
REMARK    8  A    between atoms: C_28  and  C_29 
ROOT
HETATM    1  C   UNL     1      24.612  50.279  48.586  1.00  0.00     0.001 A 
HETATM    2  C   UNL     1      24.714  48.936  48.946  1.00  0.00     0.018 A 
HETATM    3  C   UNL     1      23.625  48.090  48.727  1.00  0.00     0.039 A 
HETATM    4  C   UNL     1      22.432  48.559  48.159  1.00  0.00     0.073 A 
HETATM    5  N   UNL     1      21.337  47.715  47.891  1.00  0.00    -0.223 NA
HETATM    6  C   UNL     1      21.441  46.470  48.234  1.00  0.00     0.178 C 
HETATM    7  N   UNL     1      22.535  45.955  48.906  1.00  0.00    -0.241 N 
HETATM    8  C   UNL     1      23.663  46.677  49.107  1.00  0.00     0.147 C 
HETATM    9  N   UNL     1      24.684  46.061  49.619  1.00  0.00    -0.256 NA
HETATM   10  C   UNL     1      22.718  44.731  49.498  1.00  0.00     0.257 C 
HETATM   11  O   UNL     1      21.870  43.909  49.806  1.00  0.00    -0.270 OA
HETATM   12  C   UNL     1      24.194  44.665  49.853  1.00  0.00     0.211 C 
HETATM   13  C   UNL     1      22.349  49.905  47.801  1.00  0.00     0.032 A 
HETATM   14  C   UNL     1      23.433  50.762  48.014  1.00  0.00     0.002 A 
ENDROOT
BRANCH  12  15
HETATM   15  C   UNL     1      24.930  43.686  48.946  1.00  0.00     0.140 C 
BRANCH  15  16
HETATM   16  C   UNL     1      26.152  43.190  49.686  1.00  0.00     0.220 C 
HETATM   17  N   UNL     1      26.121  43.422  51.042  1.00  0.00    -0.357 N 
HETATM   18  H   UNL     1      25.257  43.667  51.505  1.00  0.00     0.162 HD
HETATM   19  O   UNL     1      27.114  42.719  49.087  1.00  0.00    -0.274 OA
BRANCH  17  20
HETATM   20  C   UNL     1      27.322  43.389  51.846  1.00  0.00     0.161 C 
BRANCH  20  21
HETATM   21  C   UNL     1      27.335  44.429  52.934  1.00  0.00    -0.038 A 
HETATM   22  C   UNL     1      26.358  45.438  52.969  1.00  0.00     0.048 A 
HETATM   23  C   UNL     1      26.466  46.414  53.939  1.00  0.00     0.105 A 
HETATM   24  C   UNL     1      27.484  46.411  54.864  1.00  0.00     0.105 A 
HETATM   25  O   UNL     1      25.629  47.476  54.093  1.00  0.00    -0.323 OA
HETATM   26  O   UNL     1      27.417  47.469  55.714  1.00  0.00    -0.323 OA
HETATM   27  C   UNL     1      28.450  45.431  54.874  1.00  0.00     0.040 A 
HETATM   28  C   UNL     1      26.265  48.162  55.193  1.00  0.00     0.352 A 
HETATM   29  C   UNL     1      28.373  44.435  53.896  1.00  0.00     0.012 A 
ENDBRANCH  20  21
ENDBRANCH  17  20
ENDBRANCH  15  16
ENDBRANCH  12  15
BRANCH   6  30
HETATM   30  S   UNL     1      20.194  45.367  47.724  1.00  0.00    -0.082 SA
BRANCH  30  31
HETATM   31  C   UNL     1      19.170  46.506  46.765  1.00  0.00     0.185 C 
BRANCH  31  32
HETATM   32  C   UNL     1      18.345  47.356  47.714  1.00  0.00     0.231 C 
HETATM   33  N   UNL     1      18.529  48.717  47.524  1.00  0.00    -0.327 N 
HETATM   34  H   UNL     1      19.149  48.997  46.773  1.00  0.00     0.169 HD
HETATM   35  O   UNL     1      17.618  46.832  48.553  1.00  0.00    -0.272 OA
BRANCH  33  36
HETATM   36  C   UNL     1      17.917  49.766  48.239  1.00  0.00     0.034 A 
HETATM   37  C   UNL     1      16.571  50.120  48.108  1.00  0.00     0.032 A 
HETATM   38  C   UNL     1      16.039  51.178  48.852  1.00  0.00     0.044 A 
HETATM   39  C   UNL     1      16.854  51.873  49.734  1.00  0.00     0.116 A 
HETATM   40  F   UNL     1      16.344  52.881  50.453  1.00  0.00    -0.206 F 
HETATM   41  C   UNL     1      18.193  51.538  49.880  1.00  0.00     0.044 A 
HETATM   42  C   UNL     1      18.727  50.490  49.126  1.00  0.00     0.032 A 
ENDBRANCH  33  36
ENDBRANCH  31  32
ENDBRANCH  30  31
ENDBRANCH   6  30
TORSDOF 8
ENDMDL
MODEL 7
REMARK VINA RESULT:     -10.2      2.648      4.335
REMARK  8 active torsions:
REMARK  status: ('A' for Active; 'I' for Inactive)
REMARK    1  A    between atoms: C_6  and  S_7 
REMARK    2  A    between atoms: S_7  and  C_8 
REMARK    3  A    between atoms: C_8  and  C_9 
REMARK       I    between atoms: C_9  and  N_10 
REMARK    4  A    between atoms: N_10  and  C_11 
REMARK    5  A    between atoms: C_24  and  C_25 
REMARK    6  A    between atoms: C_25  and  C_26 
REMARK       I    between atoms: C_26  and  N_27 
REMARK    7  A    between atoms: N_27  and  C_28 
REMARK    8  A    between atoms: C_28  and  C_29 
ROOT
HETATM    1  C   UNL     1      27.694  38.713  49.441  1.00  0.00     0.001 A 
HETATM    2  C   UNL     1      26.548  39.446  49.135  1.00  0.00     0.018 A 
HETATM    3  C   UNL     1      26.338  40.672  49.767  1.00  0.00     0.039 A 
HETATM    4  C   UNL     1      27.246  41.182  50.705  1.00  0.00     0.073 A 
HETATM    5  N   UNL     1      27.074  42.435  51.324  1.00  0.00    -0.223 NA
HETATM    6  C   UNL     1      26.004  43.106  51.034  1.00  0.00     0.178 C 
HETATM    7  N   UNL     1      25.002  42.622  50.211  1.00  0.00    -0.241 N 
HETATM    8  C   UNL     1      25.142  41.475  49.504  1.00  0.00     0.147 C 
HETATM    9  N   UNL     1      24.208  41.180  48.653  1.00  0.00    -0.256 NA
HETATM   10  C   UNL     1      23.746  43.111  49.960  1.00  0.00     0.257 C 
HETATM   11  O   UNL     1      23.117  43.937  50.601  1.00  0.00    -0.270 OA
HETATM   12  C   UNL     1      23.213  42.291  48.796  1.00  0.00     0.211 C 
HETATM   13  C   UNL     1      28.389  40.437  50.998  1.00  0.00     0.032 A 
HETATM   14  C   UNL     1      28.612  39.207  50.370  1.00  0.00     0.002 A 
ENDROOT
BRANCH  12  15
HETATM   15  C   UNL     1      23.160  43.123  47.520  1.00  0.00     0.140 C 
BRANCH  15  16
HETATM   16  C   UNL     1      21.755  43.661  47.371  1.00  0.00     0.220 C 
HETATM   17  N   UNL     1      21.523  44.828  48.062  1.00  0.00    -0.357 N 
HETATM   18  H   UNL     1      22.291  45.382  48.414  1.00  0.00     0.162 HD
HETATM   19  O   UNL     1      20.892  43.034  46.764  1.00  0.00    -0.274 OA
BRANCH  17  20
HETATM   20  C   UNL     1      20.182  45.277  48.366  1.00  0.00     0.161 C 
BRANCH  20  21
HETATM   21  C   UNL     1      20.110  46.745  48.693  1.00  0.00    -0.038 A 
HETATM   22  C   UNL     1      21.279  47.523  48.747  1.00  0.00     0.048 A 
HETATM   23  C   UNL     1      21.163  48.843  49.133  1.00  0.00     0.105 A 
HETATM   24  C   UNL     1      19.948  49.406  49.445  1.00  0.00     0.105 A 
HETATM   25  O   UNL     1      22.192  49.723  49.270  1.00  0.00    -0.323 OA
HETATM   26  O   UNL     1      20.058  50.708  49.819  1.00  0.00    -0.323 OA
HETATM   27  C   UNL     1      18.778  48.683  49.387  1.00  0.00     0.040 A 
HETATM   28  C   UNL     1      21.487  50.889  49.746  1.00  0.00     0.352 A 
HETATM   29  C   UNL     1      18.866  47.339  49.011  1.00  0.00     0.012 A 
ENDBRANCH  20  21
ENDBRANCH  17  20
ENDBRANCH  15  16
ENDBRANCH  12  15
BRANCH   6  30
HETATM   30  S   UNL     1      25.872  44.741  51.617  1.00  0.00    -0.082 SA
BRANCH  30  31
HETATM   31  C   UNL     1      25.082  44.420  53.211  1.00  0.00     0.185 C 
BRANCH  31  32
HETATM   32  C   UNL     1      26.150  44.106  54.243  1.00  0.00     0.231 C 
HETATM   33  N   UNL     1      27.401  44.593  53.895  1.00  0.00    -0.327 N 
HETATM   34  H   UNL     1      27.466  45.122  53.033  1.00  0.00     0.169 HD
HETATM   35  O   UNL     1      25.874  43.469  55.255  1.00  0.00    -0.272 OA
BRANCH  33  36
HETATM   36  C   UNL     1      28.597  44.468  54.630  1.00  0.00     0.034 A 
HETATM   37  C   UNL     1      29.031  45.399  55.580  1.00  0.00     0.032 A 
HETATM   38  C   UNL     1      30.233  45.204  56.266  1.00  0.00     0.044 A 
HETATM   39  C   UNL     1      30.994  44.072  56.008  1.00  0.00     0.116 A 
HETATM   40  F   UNL     1      32.142  43.881  56.670  1.00  0.00    -0.206 F 
HETATM   41  C   UNL     1      30.581  43.136  55.070  1.00  0.00     0.044 A 
HETATM   42  C   UNL     1      29.387  43.338  54.375  1.00  0.00     0.032 A 
ENDBRANCH  33  36
ENDBRANCH  31  32
ENDBRANCH  30  31
ENDBRANCH   6  30
TORSDOF 8
ENDMDL
MODEL 8
REMARK VINA RESULT:     -10.2      2.567      5.096
REMARK  8 active torsions:
REMARK  status: ('A' for Active; 'I' for Inactive)
REMARK    1  A    between atoms: C_6  and  S_7 
REMARK    2  A    between atoms: S_7  and  C_8 
REMARK    3  A    between atoms: C_8  and  C_9 
REMARK       I    between atoms: C_9  and  N_10 
REMARK    4  A    between atoms: N_10  and  C_11 
REMARK    5  A    between atoms: C_24  and  C_25 
REMARK    6  A    between atoms: C_25  and  C_26 
REMARK       I    between atoms: C_26  and  N_27 
REMARK    7  A    between atoms: N_27  and  C_28 
REMARK    8  A    between atoms: C_28  and  C_29 
ROOT
HETATM    1  C   UNL     1      21.639  50.739  48.116  1.00  0.00     0.001 A 
HETATM    2  C   UNL     1      21.241  49.477  47.678  1.00  0.00     0.018 A 
HETATM    3  C   UNL     1      21.955  48.355  48.102  1.00  0.00     0.039 A 
HETATM    4  C   UNL     1      23.065  48.467  48.952  1.00  0.00     0.073 A 
HETATM    5  N   UNL     1      23.774  47.345  49.423  1.00  0.00    -0.223 NA
HETATM    6  C   UNL     1      23.398  46.178  49.007  1.00  0.00     0.178 C 
HETATM    7  N   UNL     1      22.391  45.990  48.077  1.00  0.00    -0.241 N 
HETATM    8  C   UNL     1      21.600  47.006  47.657  1.00  0.00     0.147 C 
HETATM    9  N   UNL     1      20.594  46.704  46.894  1.00  0.00    -0.256 NA
HETATM   10  C   UNL     1      22.006  44.861  47.401  1.00  0.00     0.257 C 
HETATM   11  O   UNL     1      22.627  43.820  47.258  1.00  0.00    -0.270 OA
HETATM   12  C   UNL     1      20.699  45.221  46.713  1.00  0.00     0.211 C 
HETATM   13  C   UNL     1      23.447  49.737  49.383  1.00  0.00     0.032 A 
HETATM   14  C   UNL     1      22.739  50.869  48.966  1.00  0.00     0.002 A 
ENDROOT
BRANCH  12  15
HETATM   15  C   UNL     1      19.520  44.520  47.378  1.00  0.00     0.140 C 
BRANCH  15  16
HETATM   16  C   UNL     1      18.310  45.417  47.249  1.00  0.00     0.220 C 
HETATM   17  N   UNL     1      18.059  46.187  48.361  1.00  0.00    -0.357 N 
HETATM   18  H   UNL     1      18.765  46.312  49.073  1.00  0.00     0.162 HD
HETATM   19  O   UNL     1      17.577  45.362  46.266  1.00  0.00    -0.274 OA
BRANCH  17  20
HETATM   20  C   UNL     1      16.766  46.793  48.589  1.00  0.00     0.161 C 
BRANCH  20  21
HETATM   21  C   UNL     1      16.815  48.298  48.617  1.00  0.00    -0.038 A 
HETATM   22  C   UNL     1      17.886  48.966  49.236  1.00  0.00     0.048 A 
HETATM   23  C   UNL     1      17.839  50.343  49.306  1.00  0.00     0.105 A 
HETATM   24  C   UNL     1      16.791  51.063  48.779  1.00  0.00     0.105 A 
HETATM   25  O   UNL     1      18.770  51.140  49.896  1.00  0.00    -0.323 OA
HETATM   26  O   UNL     1      16.931  52.401  48.973  1.00  0.00    -0.323 OA
HETATM   27  C   UNL     1      15.734  50.448  48.150  1.00  0.00     0.040 A 
HETATM   28  C   UNL     1      18.165  52.439  49.719  1.00  0.00     0.352 A 
HETATM   29  C   UNL     1      15.748  49.052  48.075  1.00  0.00     0.012 A 
ENDBRANCH  20  21
ENDBRANCH  17  20
ENDBRANCH  15  16
ENDBRANCH  12  15
BRANCH   6  30
HETATM   30  S   UNL     1      24.117  44.771  49.737  1.00  0.00    -0.082 SA
BRANCH  30  31
HETATM   31  C   UNL     1      24.780  45.526  51.239  1.00  0.00     0.185 C 
BRANCH  31  32
HETATM   32  C   UNL     1      25.727  44.549  51.912  1.00  0.00     0.231 C 
HETATM   33  N   UNL     1      26.886  45.151  52.379  1.00  0.00    -0.327 N 
HETATM   34  H   UNL     1      26.965  46.154  52.256  1.00  0.00     0.169 HD
HETATM   35  O   UNL     1      25.444  43.357  51.993  1.00  0.00    -0.272 OA
BRANCH  33  36
HETATM   36  C   UNL     1      27.961  44.527  53.042  1.00  0.00     0.034 A 
HETATM   37  C   UNL     1      28.778  43.553  52.460  1.00  0.00     0.032 A 
HETATM   38  C   UNL     1      29.825  42.979  53.188  1.00  0.00     0.044 A 
HETATM   39  C   UNL     1      30.059  43.388  54.493  1.00  0.00     0.116 A 
HETATM   40  F   UNL     1      31.066  42.844  55.188  1.00  0.00    -0.206 F 
HETATM   41  C   UNL     1      29.260  44.354  55.089  1.00  0.00     0.044 A 
HETATM   42  C   UNL     1      28.205  44.917  54.367  1.00  0.00     0.032 A 
ENDBRANCH  33  36
ENDBRANCH  31  32
ENDBRANCH  30  31
ENDBRANCH   6  30
TORSDOF 8
ENDMDL
MODEL 9
REMARK VINA RESULT:     -10.2      3.936     10.617
REMARK  8 active torsions:
REMARK  status: ('A' for Active; 'I' for Inactive)
REMARK    1  A    between atoms: C_6  and  S_7 
REMARK    2  A    between atoms: S_7  and  C_8 
REMARK    3  A    between atoms: C_8  and  C_9 
REMARK       I    between atoms: C_9  and  N_10 
REMARK    4  A    between atoms: N_10  and  C_11 
REMARK    5  A    between atoms: C_24  and  C_25 
REMARK    6  A    between atoms: C_25  and  C_26 
REMARK       I    between atoms: C_26  and  N_27 
REMARK    7  A    between atoms: N_27  and  C_28 
REMARK    8  A    between atoms: C_28  and  C_29 
ROOT
HETATM    1  C   UNL     1      19.245  45.381  46.707  1.00  0.00     0.001 A 
HETATM    2  C   UNL     1      20.366  44.900  47.381  1.00  0.00     0.018 A 
HETATM    3  C   UNL     1      21.375  45.794  47.745  1.00  0.00     0.039 A 
HETATM    4  C   UNL     1      21.290  47.161  47.445  1.00  0.00     0.073 A 
HETATM    5  N   UNL     1      22.276  48.085  47.839  1.00  0.00    -0.223 NA
HETATM    6  C   UNL     1      23.316  47.627  48.462  1.00  0.00     0.178 C 
HETATM    7  N   UNL     1      23.532  46.279  48.691  1.00  0.00    -0.241 N 
HETATM    8  C   UNL     1      22.587  45.344  48.433  1.00  0.00     0.147 C 
HETATM    9  N   UNL     1      22.830  44.128  48.814  1.00  0.00    -0.256 NA
HETATM   10  C   UNL     1      24.644  45.625  49.155  1.00  0.00     0.257 C 
HETATM   11  O   UNL     1      25.790  46.041  49.220  1.00  0.00    -0.270 OA
HETATM   12  C   UNL     1      24.197  44.197  49.423  1.00  0.00     0.211 C 
HETATM   13  C   UNL     1      20.160  47.625  46.773  1.00  0.00     0.032 A 
HETATM   14  C   UNL     1      19.142  46.740  46.404  1.00  0.00     0.002 A 
ENDROOT
BRANCH  12  15
HETATM   15  C   UNL     1      24.125  43.920  50.921  1.00  0.00     0.140 C 
BRANCH  15  16
HETATM   16  C   UNL     1      25.163  42.873  51.253  1.00  0.00     0.220 C 
HETATM   17  N   UNL     1      26.097  43.281  52.178  1.00  0.00    -0.357 N 
HETATM   18  H   UNL     1      25.937  44.100  52.748  1.00  0.00     0.162 HD
HETATM   19  O   UNL     1      25.203  41.801  50.657  1.00  0.00    -0.274 OA
BRANCH  17  20
HETATM   20  C   UNL     1      27.363  42.599  52.330  1.00  0.00     0.161 C 
BRANCH  20  21
HETATM   21  C   UNL     1      28.210  43.165  53.440  1.00  0.00    -0.038 A 
HETATM   22  C   UNL     1      27.814  44.331  54.117  1.00  0.00     0.048 A 
HETATM   23  C   UNL     1      28.668  44.852  55.067  1.00  0.00     0.105 A 
HETATM   24  C   UNL     1      29.870  44.255  55.370  1.00  0.00     0.105 A 
HETATM   25  O   UNL     1      28.457  45.986  55.788  1.00  0.00    -0.323 OA
HETATM   26  O   UNL     1      30.565  44.938  56.318  1.00  0.00    -0.323 OA
HETATM   27  C   UNL     1      30.285  43.103  54.744  1.00  0.00     0.040 A 
HETATM   28  C   UNL     1      29.684  46.057  56.546  1.00  0.00     0.352 A 
HETATM   29  C   UNL     1      29.446  42.559  53.767  1.00  0.00     0.012 A 
ENDBRANCH  20  21
ENDBRANCH  17  20
ENDBRANCH  15  16
ENDBRANCH  12  15
BRANCH   6  30
HETATM   30  S   UNL     1      24.440  48.768  49.143  1.00  0.00    -0.082 SA
BRANCH  30  31
HETATM   31  C   UNL     1      23.754  50.296  48.463  1.00  0.00     0.185 C 
BRANCH  31  32
HETATM   32  C   UNL     1      22.527  50.692  49.264  1.00  0.00     0.231 C 
HETATM   33  N   UNL     1      21.369  50.723  48.502  1.00  0.00    -0.327 N 
HETATM   34  H   UNL     1      21.451  50.454  47.528  1.00  0.00     0.169 HD
HETATM   35  O   UNL     1      22.618  50.959  50.458  1.00  0.00    -0.272 OA
BRANCH  33  36
HETATM   36  C   UNL     1      20.071  51.054  48.939  1.00  0.00     0.034 A 
HETATM   37  C   UNL     1      19.289  50.231  49.757  1.00  0.00     0.032 A 
HETATM   38  C   UNL     1      18.007  50.631  50.147  1.00  0.00     0.044 A 
HETATM   39  C   UNL     1      17.513  51.858  49.726  1.00  0.00     0.116 A 
HETATM   40  F   UNL     1      16.288  52.244  50.105  1.00  0.00    -0.206 F 
HETATM   41  C   UNL     1      18.273  52.690  48.915  1.00  0.00     0.044 A 
HETATM   42  C   UNL     1      19.549  52.284  48.514  1.00  0.00     0.032 A 
ENDBRANCH  33  36
ENDBRANCH  31  32
ENDBRANCH  30  31
ENDBRANCH   6  30
TORSDOF 8
ENDMDL
MODEL 10
REMARK VINA RESULT:     -10.1      3.949     10.453
REMARK  8 active torsions:
REMARK  status: ('A' for Active; 'I' for Inactive)
REMARK    1  A    between atoms: C_6  and  S_7 
REMARK    2  A    between atoms: S_7  and  C_8 
REMARK    3  A    between atoms: C_8  and  C_9 
REMARK       I    between atoms: C_9  and  N_10 
REMARK    4  A    between atoms: N_10  and  C_11 
REMARK    5  A    between atoms: C_24  and  C_25 
REMARK    6  A    between atoms: C_25  and  C_26 
REMARK       I    between atoms: C_26  and  N_27 
REMARK    7  A    between atoms: N_27  and  C_28 
REMARK    8  A    between atoms: C_28  and  C_29 
ROOT
HETATM    1  C   UNL     1      25.786  44.794  54.325  1.00  0.00     0.001 A 
HETATM    2  C   UNL     1      25.124  44.407  53.161  1.00  0.00     0.018 A 
HETATM    3  C   UNL     1      24.917  45.348  52.151  1.00  0.00     0.039 A 
HETATM    4  C   UNL     1      25.355  46.674  52.281  1.00  0.00     0.073 A 
HETATM    5  N   UNL     1      25.193  47.629  51.259  1.00  0.00    -0.223 NA
HETATM    6  C   UNL     1      24.573  47.258  50.184  1.00  0.00     0.178 C 
HETATM    7  N   UNL     1      24.007  46.006  50.026  1.00  0.00    -0.241 N 
HETATM    8  C   UNL     1      24.207  45.006  50.918  1.00  0.00     0.147 C 
HETATM    9  N   UNL     1      23.753  43.831  50.610  1.00  0.00    -0.256 NA
HETATM   10  C   UNL     1      23.169  45.526  49.051  1.00  0.00     0.257 C 
HETATM   11  O   UNL     1      22.513  46.163  48.242  1.00  0.00    -0.270 OA
HETATM   12  C   UNL     1      23.088  44.027  49.282  1.00  0.00     0.211 C 
HETATM   13  C   UNL     1      26.019  47.044  53.451  1.00  0.00     0.032 A 
HETATM   14  C   UNL     1      26.233  46.109  54.469  1.00  0.00     0.002 A 
ENDROOT
BRANCH  12  15
HETATM   15  C   UNL     1      23.838  43.265  48.195  1.00  0.00     0.140 C 
BRANCH  15  16
HETATM   16  C   UNL     1      24.795  42.309  48.869  1.00  0.00     0.220 C 
HETATM   17  N   UNL     1      26.076  42.793  49.000  1.00  0.00    -0.357 N 
HETATM   18  H   UNL     1      26.271  43.778  48.883  1.00  0.00     0.162 HD
HETATM   19  O   UNL     1      24.454  41.168  49.168  1.00  0.00    -0.274 OA
BRANCH  17  20
HETATM   20  C   UNL     1      27.199  41.915  49.244  1.00  0.00     0.161 C 
BRANCH  20  21
HETATM   21  C   UNL     1      27.710  41.988  50.659  1.00  0.00    -0.038 A 
HETATM   22  C   UNL     1      27.975  43.231  51.260  1.00  0.00     0.048 A 
HETATM   23  C   UNL     1      28.520  43.237  52.527  1.00  0.00     0.105 A 
HETATM   24  C   UNL     1      28.790  42.072  53.208  1.00  0.00     0.105 A 
HETATM   25  O   UNL     1      28.867  44.344  53.237  1.00  0.00    -0.323 OA
HETATM   26  O   UNL     1      29.341  42.301  54.430  1.00  0.00    -0.323 OA
HETATM   27  C   UNL     1      28.528  40.837  52.663  1.00  0.00     0.040 A 
HETATM   28  C   UNL     1      29.427  43.740  54.423  1.00  0.00     0.352 A 
HETATM   29  C   UNL     1      27.987  40.799  51.374  1.00  0.00     0.012 A 
ENDBRANCH  20  21
ENDBRANCH  17  20
ENDBRANCH  15  16
ENDBRANCH  12  15
BRANCH   6  30
HETATM   30  S   UNL     1      24.548  48.350  48.828  1.00  0.00    -0.082 SA
BRANCH  30  31
HETATM   31  C   UNL     1      23.703  49.751  49.595  1.00  0.00     0.185 C 
BRANCH  31  32
HETATM   32  C   UNL     1      22.314  49.884  48.997  1.00  0.00     0.231 C 
HETATM   33  N   UNL     1      21.345  50.194  49.939  1.00  0.00    -0.327 N 
HETATM   34  H   UNL     1      21.657  50.330  50.894  1.00  0.00     0.169 HD
HETATM   35  O   UNL     1      22.129  49.709  47.796  1.00  0.00    -0.272 OA
BRANCH  33  36
HETATM   36  C   UNL     1      19.967  50.381  49.712  1.00  0.00     0.034 A 
HETATM   37  C   UNL     1      19.061  49.337  49.502  1.00  0.00     0.032 A 
HETATM   38  C   UNL     1      17.707  49.605  49.281  1.00  0.00     0.044 A 
HETATM   39  C   UNL     1      17.259  50.919  49.281  1.00  0.00     0.116 A 
HETATM   40  F   UNL     1      15.961  51.177  49.076  1.00  0.00    -0.206 F 
HETATM   41  C   UNL     1      18.141  51.971  49.489  1.00  0.00     0.044 A 
HETATM   42  C   UNL     1      19.497  51.702  49.695  1.00  0.00     0.032 A 
ENDBRANCH  33  36
ENDBRANCH  31  32
ENDBRANCH  30  31
ENDBRANCH   6  30
TORSDOF 8
ENDMDL
