MODEL 1
REMARK VINA RESULT:      -7.8      0.000      0.000
REMARK  11 active torsions:
REMARK  status: ('A' for Active; 'I' for Inactive)
REMARK    1  A    between atoms: C_2  and  N_3 
REMARK    2  A    between atoms: N_3  and  C_5 
REMARK    3  A    between atoms: N_3  and  C_32 
REMARK    4  A    between atoms: C_5  and  C_6 
REMARK    5  A    between atoms: N_7  and  C_8 
REMARK    6  A    between atoms: C_12  and  N_13 
REMARK    7  A    between atoms: C_16  and  C_17 
REMARK       I    between atoms: C_17  and  N_18 
REMARK    8  A    between atoms: N_18  and  N_19 
REMARK    9  A    between atoms: C_20  and  C_21 
REMARK   10  A    between atoms: C_25  and  O_26 
REMARK   11  A    between atoms: C_27  and  O_28 
ROOT
HETATM    1  C   UNL     1      22.623  47.241  49.143  1.00  0.00     0.096 A 
HETATM    2  N   UNL     1      21.337  47.273  48.612  1.00  0.00    -0.215 N 
HETATM    3  N   UNL     1      21.010  46.023  48.188  1.00  0.00     0.012 NA
HETATM    4  N   UNL     1      21.980  45.184  48.513  1.00  0.00    -0.152 NA
HETATM    5  C   UNL     1      22.978  45.899  49.107  1.00  0.00     0.170 A 
ENDROOT
BRANCH   5   6
HETATM    6  C   UNL     1      24.208  45.310  49.617  1.00  0.00     0.293 C 
HETATM    7  N   UNL     1      24.248  45.181  50.992  1.00  0.00    -0.242 N 
HETATM    8  H   UNL     1      23.460  45.482  51.561  1.00  0.00     0.192 HD
HETATM    9  O   UNL     1      25.109  45.000  48.840  1.00  0.00    -0.264 OA
BRANCH   7  10
HETATM   10  N   UNL     1      25.340  44.615  51.573  1.00  0.00    -0.184 NA
HETATM   11  C   UNL     1      25.799  45.201  52.632  1.00  0.00     0.150 C 
BRANCH  11  12
HETATM   12  C   UNL     1      26.969  44.658  53.354  1.00  0.00    -0.013 A 
HETATM   13  C   UNL     1      27.613  45.426  54.329  1.00  0.00     0.035 A 
HETATM   14  C   UNL     1      28.721  44.903  54.989  1.00  0.00     0.047 A 
HETATM   15 BR   UNL     1      29.588  45.962  56.300  1.00  0.00    -0.048 Br
HETATM   16  C   UNL     1      29.180  43.619  54.681  1.00  0.00     0.116 A 
HETATM   17  C   UNL     1      28.531  42.841  53.709  1.00  0.00     0.103 A 
HETATM   18  C   UNL     1      27.422  43.370  53.040  1.00  0.00     0.052 A 
BRANCH  16  19
HETATM   19  O   UNL     1      30.271  43.090  55.324  1.00  0.00    -0.357 OA
HETATM   20  H   UNL     1      30.533  42.275  54.861  1.00  0.00     0.218 HD
ENDBRANCH  16  19
BRANCH  17  21
HETATM   21  O   UNL     1      29.060  41.597  53.485  1.00  0.00    -0.353 OA
HETATM   22  C   UNL     1      28.651  40.897  52.320  1.00  0.00     0.210 C 
ENDBRANCH  17  21
ENDBRANCH  11  12
ENDBRANCH   7  10
ENDBRANCH   5   6
BRANCH   1  23
HETATM   23  C   UNL     1      23.425  48.425  49.542  1.00  0.00     0.296 C 
BRANCH  23  24
HETATM   24  N   UNL     1      24.493  48.874  48.559  1.00  0.00    -0.066 N 
HETATM   25  H   UNL     1      24.437  48.233  47.755  1.00  0.00     0.280 HD
BRANCH  24  26
HETATM   26  C   UNL     1      25.885  48.724  49.162  1.00  0.00     0.231 C 
HETATM   27  C   UNL     1      26.845  49.764  48.609  1.00  0.00     0.034 C 
ENDBRANCH  24  26
BRANCH  24  28
HETATM   28  C   UNL     1      24.264  50.293  48.059  1.00  0.00     0.231 C 
HETATM   29  C   UNL     1      23.173  50.985  48.862  1.00  0.00     0.034 C 
ENDBRANCH  24  28
ENDBRANCH  23  24
ENDBRANCH   1  23
BRANCH   2  30
HETATM   30  C   UNL     1      20.436  48.362  48.543  1.00  0.00     0.225 A 
HETATM   31  N   UNL     1      20.484  49.199  47.503  1.00  0.00    -0.081 NA
HETATM   32  O   UNL     1      19.484  50.134  47.788  1.00  0.00    -0.103 OA
HETATM   33  N   UNL     1      18.872  49.859  49.002  1.00  0.00    -0.083 NA
HETATM   34  C   UNL     1      19.463  48.763  49.472  1.00  0.00     0.201 A 
BRANCH  34  35
HETATM   35  N   UNL     1      19.150  48.168  50.633  1.00  0.00    -0.379 N 
HETATM   36  H   UNL     1      19.703  48.347  51.468  1.00  0.00     0.158 HD
HETATM   37  H   UNL     1      18.483  47.404  50.721  1.00  0.00     0.158 HD
ENDBRANCH  34  35
ENDBRANCH   2  30
TORSDOF 11
ENDMDL
MODEL 2
REMARK VINA RESULT:      -7.7      2.449      3.666
REMARK  11 active torsions:
REMARK  status: ('A' for Active; 'I' for Inactive)
REMARK    1  A    between atoms: C_2  and  N_3 
REMARK    2  A    between atoms: N_3  and  C_5 
REMARK    3  A    between atoms: N_3  and  C_32 
REMARK    4  A    between atoms: C_5  and  C_6 
REMARK    5  A    between atoms: N_7  and  C_8 
REMARK    6  A    between atoms: C_12  and  N_13 
REMARK    7  A    between atoms: C_16  and  C_17 
REMARK       I    between atoms: C_17  and  N_18 
REMARK    8  A    between atoms: N_18  and  N_19 
REMARK    9  A    between atoms: C_20  and  C_21 
REMARK   10  A    between atoms: C_25  and  O_26 
REMARK   11  A    between atoms: C_27  and  O_28 
ROOT
HETATM    1  C   UNL     1      21.178  47.828  48.569  1.00  0.00     0.096 A 
HETATM    2  N   UNL     1      20.603  47.239  47.447  1.00  0.00    -0.215 N 
HETATM    3  N   UNL     1      21.569  46.572  46.761  1.00  0.00     0.012 NA
HETATM    4  N   UNL     1      22.703  46.625  47.441  1.00  0.00    -0.152 NA
HETATM    5  C   UNL     1      22.492  47.380  48.557  1.00  0.00     0.170 A 
ENDROOT
BRANCH   5   6
HETATM    6  C   UNL     1      23.512  47.648  49.562  1.00  0.00     0.293 C 
HETATM    7  N   UNL     1      23.982  46.521  50.208  1.00  0.00    -0.242 N 
HETATM    8  H   UNL     1      23.621  45.600  49.967  1.00  0.00     0.192 HD
HETATM    9  O   UNL     1      23.862  48.805  49.789  1.00  0.00    -0.264 OA
BRANCH   7  10
HETATM   10  N   UNL     1      24.959  46.653  51.145  1.00  0.00    -0.184 NA
HETATM   11  C   UNL     1      25.250  45.593  51.829  1.00  0.00     0.150 C 
BRANCH  11  12
HETATM   12  C   UNL     1      26.310  45.620  52.858  1.00  0.00    -0.013 A 
HETATM   13  C   UNL     1      27.224  44.566  52.956  1.00  0.00     0.035 A 
HETATM   14  C   UNL     1      28.208  44.603  53.940  1.00  0.00     0.047 A 
HETATM   15 BR   UNL     1      29.431  43.161  54.064  1.00  0.00    -0.048 Br
HETATM   16  C   UNL     1      28.282  45.688  54.818  1.00  0.00     0.116 A 
HETATM   17  C   UNL     1      27.371  46.752  54.719  1.00  0.00     0.103 A 
HETATM   18  C   UNL     1      26.378  46.711  53.735  1.00  0.00     0.052 A 
BRANCH  16  19
HETATM   19  O   UNL     1      29.246  45.738  55.793  1.00  0.00    -0.357 OA
HETATM   20  H   UNL     1      28.818  45.587  56.654  1.00  0.00     0.218 HD
ENDBRANCH  16  19
BRANCH  17  21
HETATM   21  O   UNL     1      27.533  47.766  55.626  1.00  0.00    -0.353 OA
HETATM   22  C   UNL     1      26.402  48.563  55.946  1.00  0.00     0.210 C 
ENDBRANCH  17  21
ENDBRANCH  11  12
ENDBRANCH   7  10
ENDBRANCH   5   6
BRANCH   1  23
HETATM   23  C   UNL     1      20.512  48.796  49.477  1.00  0.00     0.296 C 
BRANCH  23  24
HETATM   24  N   UNL     1      21.018  50.227  49.418  1.00  0.00    -0.066 N 
HETATM   25  H   UNL     1      21.842  50.271  50.036  1.00  0.00     0.280 HD
BRANCH  24  26
HETATM   26  C   UNL     1      19.981  51.195  49.977  1.00  0.00     0.231 C 
HETATM   27  C   UNL     1      19.302  51.981  48.869  1.00  0.00     0.034 C 
ENDBRANCH  24  26
BRANCH  24  28
HETATM   28  C   UNL     1      21.447  50.636  48.016  1.00  0.00     0.231 C 
HETATM   29  C   UNL     1      22.826  51.277  48.033  1.00  0.00     0.034 C 
ENDBRANCH  24  28
ENDBRANCH  23  24
ENDBRANCH   1  23
BRANCH   2  30
HETATM   30  C   UNL     1      19.244  47.234  47.050  1.00  0.00     0.225 A 
HETATM   31  N   UNL     1      18.804  48.147  46.178  1.00  0.00    -0.081 NA
HETATM   32  O   UNL     1      17.444  47.847  46.048  1.00  0.00    -0.103 OA
HETATM   33  N   UNL     1      17.086  46.781  46.859  1.00  0.00    -0.083 NA
HETATM   34  C   UNL     1      18.200  46.402  47.483  1.00  0.00     0.201 A 
BRANCH  34  35
HETATM   35  N   UNL     1      18.275  45.390  48.360  1.00  0.00    -0.379 N 
HETATM   36  H   UNL     1      19.180  45.033  48.657  1.00  0.00     0.158 HD
HETATM   37  H   UNL     1      17.480  44.821  48.644  1.00  0.00     0.158 HD
ENDBRANCH  34  35
ENDBRANCH   2  30
TORSDOF 11
ENDMDL
MODEL 3
REMARK VINA RESULT:      -7.4      2.382      3.152
REMARK  11 active torsions:
REMARK  status: ('A' for Active; 'I' for Inactive)
REMARK    1  A    between atoms: C_2  and  N_3 
REMARK    2  A    between atoms: N_3  and  C_5 
REMARK    3  A    between atoms: N_3  and  C_32 
REMARK    4  A    between atoms: C_5  and  C_6 
REMARK    5  A    between atoms: N_7  and  C_8 
REMARK    6  A    between atoms: C_12  and  N_13 
REMARK    7  A    between atoms: C_16  and  C_17 
REMARK       I    between atoms: C_17  and  N_18 
REMARK    8  A    between atoms: N_18  and  N_19 
REMARK    9  A    between atoms: C_20  and  C_21 
REMARK   10  A    between atoms: C_25  and  O_26 
REMARK   11  A    between atoms: C_27  and  O_28 
ROOT
HETATM    1  C   UNL     1      21.087  46.852  48.469  1.00  0.00     0.096 A 
HETATM    2  N   UNL     1      19.701  46.964  48.529  1.00  0.00    -0.215 N 
HETATM    3  N   UNL     1      19.161  45.717  48.493  1.00  0.00     0.012 NA
HETATM    4  N   UNL     1      20.133  44.819  48.514  1.00  0.00    -0.152 NA
HETATM    5  C   UNL     1      21.324  45.484  48.508  1.00  0.00     0.170 A 
ENDROOT
BRANCH   5   6
HETATM    6  C   UNL     1      22.623  44.827  48.545  1.00  0.00     0.293 C 
HETATM    7  N   UNL     1      23.216  44.811  49.793  1.00  0.00    -0.242 N 
HETATM    8  H   UNL     1      22.747  45.232  50.592  1.00  0.00     0.192 HD
HETATM    9  O   UNL     1      23.108  44.369  47.513  1.00  0.00    -0.264 OA
BRANCH   7  10
HETATM   10  N   UNL     1      24.419  44.195  49.947  1.00  0.00    -0.184 NA
HETATM   11  C   UNL     1      24.414  43.073  50.592  1.00  0.00     0.150 C 
BRANCH  11  12
HETATM   12  C   UNL     1      25.663  42.310  50.798  1.00  0.00    -0.013 A 
HETATM   13  C   UNL     1      26.712  42.864  51.540  1.00  0.00     0.035 A 
HETATM   14  C   UNL     1      27.885  42.136  51.712  1.00  0.00     0.047 A 
HETATM   15 BR   UNL     1      29.300  42.905  52.711  1.00  0.00    -0.048 Br
HETATM   16  C   UNL     1      28.010  40.862  51.151  1.00  0.00     0.116 A 
HETATM   17  C   UNL     1      26.957  40.299  50.412  1.00  0.00     0.103 A 
HETATM   18  C   UNL     1      25.780  41.033  50.233  1.00  0.00     0.052 A 
BRANCH  16  19
HETATM   19  O   UNL     1      29.161  40.133  51.312  1.00  0.00    -0.357 OA
HETATM   20  H   UNL     1      29.331  40.036  52.266  1.00  0.00     0.218 HD
ENDBRANCH  16  19
BRANCH  17  21
HETATM   21  O   UNL     1      27.181  39.045  49.908  1.00  0.00    -0.353 OA
HETATM   22  C   UNL     1      27.338  38.907  48.503  1.00  0.00     0.210 C 
ENDBRANCH  17  21
ENDBRANCH  11  12
ENDBRANCH   7  10
ENDBRANCH   5   6
BRANCH   1  23
HETATM   23  C   UNL     1      22.040  47.977  48.296  1.00  0.00     0.296 C 
BRANCH  23  24
HETATM   24  N   UNL     1      22.562  48.615  49.572  1.00  0.00    -0.066 N 
HETATM   25  H   UNL     1      22.013  48.212  50.345  1.00  0.00     0.280 HD
BRANCH  24  26
HETATM   26  C   UNL     1      22.307  50.118  49.572  1.00  0.00     0.231 C 
HETATM   27  C   UNL     1      21.638  50.568  48.285  1.00  0.00     0.034 C 
ENDBRANCH  24  26
BRANCH  24  28
HETATM   28  C   UNL     1      24.033  48.310  49.816  1.00  0.00     0.231 C 
HETATM   29  C   UNL     1      24.919  49.103  48.868  1.00  0.00     0.034 C 
ENDBRANCH  24  28
ENDBRANCH  23  24
ENDBRANCH   1  23
BRANCH   2  30
HETATM   30  C   UNL     1      18.913  48.132  48.667  1.00  0.00     0.225 A 
HETATM   31  N   UNL     1      18.362  48.693  47.587  1.00  0.00    -0.081 NA
HETATM   32  O   UNL     1      17.694  49.808  48.101  1.00  0.00    -0.103 OA
HETATM   33  N   UNL     1      17.875  49.913  49.472  1.00  0.00    -0.083 NA
HETATM   34  C   UNL     1      18.633  48.877  49.823  1.00  0.00     0.201 A 
BRANCH  34  35
HETATM   35  N   UNL     1      19.033  48.616  51.077  1.00  0.00    -0.379 N 
HETATM   36  H   UNL     1      19.556  47.769  51.284  1.00  0.00     0.158 HD
HETATM   37  H   UNL     1      18.712  49.129  51.896  1.00  0.00     0.158 HD
ENDBRANCH  34  35
ENDBRANCH   2  30
TORSDOF 11
ENDMDL
MODEL 4
REMARK VINA RESULT:      -7.4     11.740     13.319
REMARK  11 active torsions:
REMARK  status: ('A' for Active; 'I' for Inactive)
REMARK    1  A    between atoms: C_2  and  N_3 
REMARK    2  A    between atoms: N_3  and  C_5 
REMARK    3  A    between atoms: N_3  and  C_32 
REMARK    4  A    between atoms: C_5  and  C_6 
REMARK    5  A    between atoms: N_7  and  C_8 
REMARK    6  A    between atoms: C_12  and  N_13 
REMARK    7  A    between atoms: C_16  and  C_17 
REMARK       I    between atoms: C_17  and  N_18 
REMARK    8  A    between atoms: N_18  and  N_19 
REMARK    9  A    between atoms: C_20  and  C_21 
REMARK   10  A    between atoms: C_25  and  O_26 
REMARK   11  A    between atoms: C_27  and  O_28 
ROOT
HETATM    1  C   UNL     1      30.073  49.624  40.284  1.00  0.00     0.096 A 
HETATM    2  N   UNL     1      29.222  49.174  39.279  1.00  0.00    -0.215 N 
HETATM    3  N   UNL     1      29.877  48.240  38.539  1.00  0.00     0.012 NA
HETATM    4  N   UNL     1      31.060  48.003  39.083  1.00  0.00    -0.152 NA
HETATM    5  C   UNL     1      31.204  48.829  40.159  1.00  0.00     0.170 A 
ENDROOT
BRANCH   5   6
HETATM    6  C   UNL     1      32.377  48.842  41.022  1.00  0.00     0.293 C 
HETATM    7  N   UNL     1      33.382  49.692  40.601  1.00  0.00    -0.242 N 
HETATM    8  H   UNL     1      33.268  50.247  39.756  1.00  0.00     0.192 HD
HETATM    9  O   UNL     1      32.419  48.114  42.012  1.00  0.00    -0.264 OA
BRANCH   7  10
HETATM   10  N   UNL     1      34.512  49.805  41.351  1.00  0.00    -0.184 NA
HETATM   11  C   UNL     1      34.832  50.999  41.736  1.00  0.00     0.150 C 
BRANCH  11  12
HETATM   12  C   UNL     1      36.028  51.232  42.572  1.00  0.00    -0.013 A 
HETATM   13  C   UNL     1      36.144  52.406  43.322  1.00  0.00     0.035 A 
HETATM   14  C   UNL     1      37.284  52.614  44.093  1.00  0.00     0.047 A 
HETATM   15 BR   UNL     1      37.430  54.216  45.096  1.00  0.00    -0.048 Br
HETATM   16  C   UNL     1      38.300  51.654  44.119  1.00  0.00     0.116 A 
HETATM   17  C   UNL     1      38.184  50.470  43.373  1.00  0.00     0.103 A 
HETATM   18  C   UNL     1      37.041  50.265  42.592  1.00  0.00     0.052 A 
BRANCH  16  19
HETATM   19  O   UNL     1      39.429  51.846  44.874  1.00  0.00    -0.357 OA
HETATM   20  H   UNL     1      39.772  52.738  44.691  1.00  0.00     0.218 HD
ENDBRANCH  16  19
BRANCH  17  21
HETATM   21  O   UNL     1      39.234  49.595  43.469  1.00  0.00    -0.353 OA
HETATM   22  C   UNL     1      39.131  48.528  44.400  1.00  0.00     0.210 C 
ENDBRANCH  17  21
ENDBRANCH  11  12
ENDBRANCH   7  10
ENDBRANCH   5   6
BRANCH   1  23
HETATM   23  C   UNL     1      29.813  50.772  41.190  1.00  0.00     0.296 C 
BRANCH  23  24
HETATM   24  N   UNL     1      30.217  52.140  40.668  1.00  0.00    -0.066 N 
HETATM   25  H   UNL     1      30.531  52.002  39.697  1.00  0.00     0.280 HD
BRANCH  24  26
HETATM   26  C   UNL     1      31.402  52.693  41.452  1.00  0.00     0.231 C 
HETATM   27  C   UNL     1      31.471  52.098  42.848  1.00  0.00     0.034 C 
ENDBRANCH  24  26
BRANCH  24  28
HETATM   28  C   UNL     1      29.057  53.126  40.663  1.00  0.00     0.231 C 
HETATM   29  C   UNL     1      27.811  52.505  41.275  1.00  0.00     0.034 C 
ENDBRANCH  24  28
ENDBRANCH  23  24
ENDBRANCH   1  23
BRANCH   2  30
HETATM   30  C   UNL     1      27.874  49.531  39.036  1.00  0.00     0.225 A 
HETATM   31  N   UNL     1      27.554  50.200  37.924  1.00  0.00    -0.081 NA
HETATM   32  O   UNL     1      26.173  50.387  38.041  1.00  0.00    -0.103 OA
HETATM   33  N   UNL     1      25.693  49.853  39.227  1.00  0.00    -0.083 NA
HETATM   34  C   UNL     1      26.746  49.325  39.846  1.00  0.00     0.201 A 
BRANCH  34  35
HETATM   35  N   UNL     1      26.699  48.703  41.034  1.00  0.00    -0.379 N 
HETATM   36  H   UNL     1      26.427  49.214  41.871  1.00  0.00     0.158 HD
HETATM   37  H   UNL     1      27.077  47.774  41.207  1.00  0.00     0.158 HD
ENDBRANCH  34  35
ENDBRANCH   2  30
TORSDOF 11
ENDMDL
MODEL 5
REMARK VINA RESULT:      -7.3      1.821      2.643
REMARK  11 active torsions:
REMARK  status: ('A' for Active; 'I' for Inactive)
REMARK    1  A    between atoms: C_2  and  N_3 
REMARK    2  A    between atoms: N_3  and  C_5 
REMARK    3  A    between atoms: N_3  and  C_32 
REMARK    4  A    between atoms: C_5  and  C_6 
REMARK    5  A    between atoms: N_7  and  C_8 
REMARK    6  A    between atoms: C_12  and  N_13 
REMARK    7  A    between atoms: C_16  and  C_17 
REMARK       I    between atoms: C_17  and  N_18 
REMARK    8  A    between atoms: N_18  and  N_19 
REMARK    9  A    between atoms: C_20  and  C_21 
REMARK   10  A    between atoms: C_25  and  O_26 
REMARK   11  A    between atoms: C_27  and  O_28 
ROOT
HETATM    1  C   UNL     1      21.329  46.161  48.016  1.00  0.00     0.096 A 
HETATM    2  N   UNL     1      20.095  45.678  47.593  1.00  0.00    -0.215 N 
HETATM    3  N   UNL     1      20.125  44.319  47.622  1.00  0.00     0.012 NA
HETATM    4  N   UNL     1      21.277  43.919  48.137  1.00  0.00    -0.152 NA
HETATM    5  C   UNL     1      22.032  45.025  48.396  1.00  0.00     0.170 A 
ENDROOT
BRANCH   5   6
HETATM    6  C   UNL     1      23.363  44.981  48.986  1.00  0.00     0.293 C 
HETATM    7  N   UNL     1      23.448  45.562  50.237  1.00  0.00    -0.242 N 
HETATM    8  H   UNL     1      22.624  45.971  50.673  1.00  0.00     0.192 HD
HETATM    9  O   UNL     1      24.295  44.481  48.361  1.00  0.00    -0.264 OA
BRANCH   7  10
HETATM   10  N   UNL     1      24.640  45.550  50.893  1.00  0.00    -0.184 NA
HETATM   11  C   UNL     1      24.737  44.739  51.897  1.00  0.00     0.150 C 
BRANCH  11  12
HETATM   12  C   UNL     1      25.994  44.631  52.667  1.00  0.00    -0.013 A 
HETATM   13  C   UNL     1      26.339  45.619  53.594  1.00  0.00     0.035 A 
HETATM   14  C   UNL     1      27.533  45.507  54.300  1.00  0.00     0.047 A 
HETATM   15 BR   UNL     1      27.990  46.860  55.545  1.00  0.00    -0.048 Br
HETATM   16  C   UNL     1      28.376  44.413  54.084  1.00  0.00     0.116 A 
HETATM   17  C   UNL     1      28.030  43.414  53.160  1.00  0.00     0.103 A 
HETATM   18  C   UNL     1      26.833  43.531  52.445  1.00  0.00     0.052 A 
BRANCH  16  19
HETATM   19  O   UNL     1      29.557  44.289  54.773  1.00  0.00    -0.357 OA
HETATM   20  H   UNL     1      29.354  44.262  55.725  1.00  0.00     0.218 HD
ENDBRANCH  16  19
BRANCH  17  21
HETATM   21  O   UNL     1      28.924  42.385  53.026  1.00  0.00    -0.353 OA
HETATM   22  C   UNL     1      28.464  41.063  53.268  1.00  0.00     0.210 C 
ENDBRANCH  17  21
ENDBRANCH  11  12
ENDBRANCH   7  10
ENDBRANCH   5   6
BRANCH   1  23
HETATM   23  C   UNL     1      21.774  47.576  47.953  1.00  0.00     0.296 C 
BRANCH  23  24
HETATM   24  N   UNL     1      21.600  48.391  49.224  1.00  0.00    -0.066 N 
HETATM   25  H   UNL     1      21.510  47.713  49.995  1.00  0.00     0.280 HD
BRANCH  24  26
HETATM   26  C   UNL     1      20.308  49.199  49.179  1.00  0.00     0.231 C 
HETATM   27  C   UNL     1      19.269  48.640  50.136  1.00  0.00     0.034 C 
ENDBRANCH  24  26
BRANCH  24  28
HETATM   28  C   UNL     1      22.796  49.288  49.509  1.00  0.00     0.231 C 
HETATM   29  C   UNL     1      22.574  50.686  48.953  1.00  0.00     0.034 C 
ENDBRANCH  24  28
ENDBRANCH  23  24
ENDBRANCH   1  23
BRANCH   2  30
HETATM   30  C   UNL     1      18.936  46.407  47.234  1.00  0.00     0.225 A 
HETATM   31  N   UNL     1      19.032  47.424  46.371  1.00  0.00    -0.081 NA
HETATM   32  O   UNL     1      17.720  47.901  46.280  1.00  0.00    -0.103 OA
HETATM   33  N   UNL     1      16.867  47.184  47.106  1.00  0.00    -0.083 NA
HETATM   34  C   UNL     1      17.620  46.260  47.699  1.00  0.00     0.201 A 
BRANCH  34  35
HETATM   35  N   UNL     1      17.163  45.356  48.579  1.00  0.00    -0.379 N 
HETATM   36  H   UNL     1      16.163  45.215  48.700  1.00  0.00     0.158 HD
HETATM   37  H   UNL     1      17.745  44.893  49.275  1.00  0.00     0.158 HD
ENDBRANCH  34  35
ENDBRANCH   2  30
TORSDOF 11
ENDMDL
MODEL 6
REMARK VINA RESULT:      -7.3      3.341      9.818
REMARK  11 active torsions:
REMARK  status: ('A' for Active; 'I' for Inactive)
REMARK    1  A    between atoms: C_2  and  N_3 
REMARK    2  A    between atoms: N_3  and  C_5 
REMARK    3  A    between atoms: N_3  and  C_32 
REMARK    4  A    between atoms: C_5  and  C_6 
REMARK    5  A    between atoms: N_7  and  C_8 
REMARK    6  A    between atoms: C_12  and  N_13 
REMARK    7  A    between atoms: C_16  and  C_17 
REMARK       I    between atoms: C_17  and  N_18 
REMARK    8  A    between atoms: N_18  and  N_19 
REMARK    9  A    between atoms: C_20  and  C_21 
REMARK   10  A    between atoms: C_25  and  O_26 
REMARK   11  A    between atoms: C_27  and  O_28 
ROOT
HETATM    1  C   UNL     1      26.235  44.861  51.414  1.00  0.00     0.096 A 
HETATM    2  N   UNL     1      27.155  43.888  51.034  1.00  0.00    -0.215 N 
HETATM    3  N   UNL     1      27.211  43.846  49.676  1.00  0.00     0.012 NA
HETATM    4  N   UNL     1      26.452  44.810  49.179  1.00  0.00    -0.152 NA
HETATM    5  C   UNL     1      25.848  45.453  50.219  1.00  0.00     0.170 A 
ENDROOT
BRANCH   5   6
HETATM    6  C   UNL     1      24.948  46.587  50.061  1.00  0.00     0.293 C 
HETATM    7  N   UNL     1      23.855  46.334  49.254  1.00  0.00    -0.242 N 
HETATM    8  H   UNL     1      23.727  45.419  48.829  1.00  0.00     0.192 HD
HETATM    9  O   UNL     1      25.209  47.658  50.603  1.00  0.00    -0.264 OA
BRANCH   7  10
HETATM   10  N   UNL     1      22.932  47.316  49.062  1.00  0.00    -0.184 NA
HETATM   11  C   UNL     1      21.932  47.025  48.294  1.00  0.00     0.150 C 
BRANCH  11  12
HETATM   12  C   UNL     1      20.861  48.011  48.035  1.00  0.00    -0.013 A 
HETATM   13  C   UNL     1      20.694  49.108  48.887  1.00  0.00     0.035 A 
HETATM   14  C   UNL     1      19.673  50.019  48.634  1.00  0.00     0.047 A 
HETATM   15 BR   UNL     1      19.454  51.494  49.804  1.00  0.00    -0.048 Br
HETATM   16  C   UNL     1      18.826  49.839  47.537  1.00  0.00     0.116 A 
HETATM   17  C   UNL     1      18.996  48.743  46.675  1.00  0.00     0.103 A 
HETATM   18  C   UNL     1      20.018  47.824  46.933  1.00  0.00     0.052 A 
BRANCH  16  19
HETATM   19  O   UNL     1      17.815  50.729  47.276  1.00  0.00    -0.357 OA
HETATM   20  H   UNL     1      18.054  51.239  46.482  1.00  0.00     0.218 HD
ENDBRANCH  16  19
BRANCH  17  21
HETATM   21  O   UNL     1      18.115  48.661  45.629  1.00  0.00    -0.353 OA
HETATM   22  C   UNL     1      17.170  47.601  45.632  1.00  0.00     0.210 C 
ENDBRANCH  17  21
ENDBRANCH  11  12
ENDBRANCH   7  10
ENDBRANCH   5   6
BRANCH   1  23
HETATM   23  C   UNL     1      25.740  45.094  52.794  1.00  0.00     0.296 C 
BRANCH  23  24
HETATM   24  N   UNL     1      26.695  45.807  53.736  1.00  0.00    -0.066 N 
HETATM   25  H   UNL     1      27.567  45.958  53.209  1.00  0.00     0.280 HD
BRANCH  24  26
HETATM   26  C   UNL     1      27.037  44.926  54.933  1.00  0.00     0.231 C 
HETATM   27  C   UNL     1      26.184  43.670  54.959  1.00  0.00     0.034 C 
ENDBRANCH  24  26
BRANCH  24  28
HETATM   28  C   UNL     1      26.166  47.161  54.187  1.00  0.00     0.231 C 
HETATM   29  C   UNL     1      27.119  47.819  55.172  1.00  0.00     0.034 C 
ENDBRANCH  24  28
ENDBRANCH  23  24
ENDBRANCH   1  23
BRANCH   2  30
HETATM   30  C   UNL     1      27.976  43.078  51.856  1.00  0.00     0.225 A 
HETATM   31  N   UNL     1      29.093  43.586  52.385  1.00  0.00    -0.081 NA
HETATM   32  O   UNL     1      29.635  42.513  53.099  1.00  0.00    -0.103 OA
HETATM   33  N   UNL     1      28.852  41.376  52.967  1.00  0.00    -0.083 NA
HETATM   34  C   UNL     1      27.825  41.724  52.194  1.00  0.00     0.201 A 
BRANCH  34  35
HETATM   35  N   UNL     1      26.832  40.899  51.830  1.00  0.00    -0.379 N 
HETATM   36  H   UNL     1      26.090  41.227  51.217  1.00  0.00     0.158 HD
HETATM   37  H   UNL     1      26.662  39.989  52.254  1.00  0.00     0.158 HD
ENDBRANCH  34  35
ENDBRANCH   2  30
TORSDOF 11
ENDMDL
MODEL 7
REMARK VINA RESULT:      -7.3     11.763     14.186
REMARK  11 active torsions:
REMARK  status: ('A' for Active; 'I' for Inactive)
REMARK    1  A    between atoms: C_2  and  N_3 
REMARK    2  A    between atoms: N_3  and  C_5 
REMARK    3  A    between atoms: N_3  and  C_32 
REMARK    4  A    between atoms: C_5  and  C_6 
REMARK    5  A    between atoms: N_7  and  C_8 
REMARK    6  A    between atoms: C_12  and  N_13 
REMARK    7  A    between atoms: C_16  and  C_17 
REMARK       I    between atoms: C_17  and  N_18 
REMARK    8  A    between atoms: N_18  and  N_19 
REMARK    9  A    between atoms: C_20  and  C_21 
REMARK   10  A    between atoms: C_25  and  O_26 
REMARK   11  A    between atoms: C_27  and  O_28 
ROOT
HETATM    1  C   UNL     1      30.808  50.898  42.138  1.00  0.00     0.096 A 
HETATM    2  N   UNL     1      30.131  49.731  41.798  1.00  0.00    -0.215 N 
HETATM    3  N   UNL     1      30.721  48.683  42.432  1.00  0.00     0.012 NA
HETATM    4  N   UNL     1      31.672  49.137  43.233  1.00  0.00    -0.152 NA
HETATM    5  C   UNL     1      31.743  50.490  43.081  1.00  0.00     0.170 A 
ENDROOT
BRANCH   5   6
HETATM    6  C   UNL     1      32.666  51.344  43.817  1.00  0.00     0.293 C 
HETATM    7  N   UNL     1      33.862  51.579  43.166  1.00  0.00    -0.242 N 
HETATM    8  H   UNL     1      34.039  51.173  42.250  1.00  0.00     0.192 HD
HETATM    9  O   UNL     1      32.358  51.764  44.930  1.00  0.00    -0.264 OA
BRANCH   7  10
HETATM   10  N   UNL     1      34.786  52.388  43.751  1.00  0.00    -0.184 NA
HETATM   11  C   UNL     1      35.966  52.397  43.217  1.00  0.00     0.150 C 
BRANCH  11  12
HETATM   12  C   UNL     1      37.039  53.256  43.760  1.00  0.00    -0.013 A 
HETATM   13  C   UNL     1      38.101  53.656  42.943  1.00  0.00     0.035 A 
HETATM   14  C   UNL     1      39.109  54.454  43.476  1.00  0.00     0.047 A 
HETATM   15 BR   UNL     1      40.546  54.979  42.358  1.00  0.00    -0.048 Br
HETATM   16  C   UNL     1      39.055  54.854  44.814  1.00  0.00     0.116 A 
HETATM   17  C   UNL     1      37.986  54.461  45.636  1.00  0.00     0.103 A 
HETATM   18  C   UNL     1      36.977  53.652  45.102  1.00  0.00     0.052 A 
BRANCH  16  19
HETATM   19  O   UNL     1      40.042  55.641  45.353  1.00  0.00    -0.357 OA
HETATM   20  H   UNL     1      39.661  56.143  46.095  1.00  0.00     0.218 HD
ENDBRANCH  16  19
BRANCH  17  21
HETATM   21  O   UNL     1      38.029  54.908  46.930  1.00  0.00    -0.353 OA
HETATM   22  C   UNL     1      38.428  53.994  47.941  1.00  0.00     0.210 C 
ENDBRANCH  17  21
ENDBRANCH  11  12
ENDBRANCH   7  10
ENDBRANCH   5   6
BRANCH   1  23
HETATM   23  C   UNL     1      30.603  52.231  41.519  1.00  0.00     0.296 C 
BRANCH  23  24
HETATM   24  N   UNL     1      31.199  52.427  40.135  1.00  0.00    -0.066 N 
HETATM   25  H   UNL     1      31.602  53.375  40.123  1.00  0.00     0.280 HD
BRANCH  24  26
HETATM   26  C   UNL     1      30.115  52.381  39.065  1.00  0.00     0.231 C 
HETATM   27  C   UNL     1      28.813  52.981  39.567  1.00  0.00     0.034 C 
ENDBRANCH  24  26
BRANCH  24  28
HETATM   28  C   UNL     1      32.308  51.429  39.834  1.00  0.00     0.231 C 
HETATM   29  C   UNL     1      32.430  51.185  38.337  1.00  0.00     0.034 C 
ENDBRANCH  24  28
ENDBRANCH  23  24
ENDBRANCH   1  23
BRANCH   2  30
HETATM   30  C   UNL     1      28.980  49.581  40.987  1.00  0.00     0.225 A 
HETATM   31  N   UNL     1      27.778  49.904  41.473  1.00  0.00    -0.081 NA
HETATM   32  O   UNL     1      26.908  49.610  40.419  1.00  0.00    -0.103 OA
HETATM   33  N   UNL     1      27.595  49.093  39.331  1.00  0.00    -0.083 NA
HETATM   34  C   UNL     1      28.879  49.072  39.683  1.00  0.00     0.201 A 
BRANCH  34  35
HETATM   35  N   UNL     1      29.877  48.639  38.897  1.00  0.00    -0.379 N 
HETATM   36  H   UNL     1      30.398  49.295  38.321  1.00  0.00     0.158 HD
HETATM   37  H   UNL     1      30.063  47.658  38.699  1.00  0.00     0.158 HD
ENDBRANCH  34  35
ENDBRANCH   2  30
TORSDOF 11
ENDMDL
MODEL 8
REMARK VINA RESULT:      -7.3     11.450     14.141
REMARK  11 active torsions:
REMARK  status: ('A' for Active; 'I' for Inactive)
REMARK    1  A    between atoms: C_2  and  N_3 
REMARK    2  A    between atoms: N_3  and  C_5 
REMARK    3  A    between atoms: N_3  and  C_32 
REMARK    4  A    between atoms: C_5  and  C_6 
REMARK    5  A    between atoms: N_7  and  C_8 
REMARK    6  A    between atoms: C_12  and  N_13 
REMARK    7  A    between atoms: C_16  and  C_17 
REMARK       I    between atoms: C_17  and  N_18 
REMARK    8  A    between atoms: N_18  and  N_19 
REMARK    9  A    between atoms: C_20  and  C_21 
REMARK   10  A    between atoms: C_25  and  O_26 
REMARK   11  A    between atoms: C_27  and  O_28 
ROOT
HETATM    1  C   UNL     1      30.747  50.965  42.310  1.00  0.00     0.096 A 
HETATM    2  N   UNL     1      30.111  49.806  41.878  1.00  0.00    -0.215 N 
HETATM    3  N   UNL     1      30.801  48.730  42.341  1.00  0.00     0.012 NA
HETATM    4  N   UNL     1      31.781  49.147  43.127  1.00  0.00    -0.152 NA
HETATM    5  C   UNL     1      31.768  50.511  43.134  1.00  0.00     0.170 A 
ENDROOT
BRANCH   5   6
HETATM    6  C   UNL     1      32.695  51.329  43.904  1.00  0.00     0.293 C 
HETATM    7  N   UNL     1      33.877  51.617  43.249  1.00  0.00    -0.242 N 
HETATM    8  H   UNL     1      34.042  51.270  42.307  1.00  0.00     0.192 HD
HETATM    9  O   UNL     1      32.402  51.677  45.046  1.00  0.00    -0.264 OA
BRANCH   7  10
HETATM   10  N   UNL     1      34.802  52.400  43.866  1.00  0.00    -0.184 NA
HETATM   11  C   UNL     1      36.009  52.341  43.402  1.00  0.00     0.150 C 
BRANCH  11  12
HETATM   12  C   UNL     1      37.088  53.167  43.985  1.00  0.00    -0.013 A 
HETATM   13  C   UNL     1      37.419  53.039  45.338  1.00  0.00     0.035 A 
HETATM   14  C   UNL     1      38.429  53.834  45.872  1.00  0.00     0.047 A 
HETATM   15 BR   UNL     1      38.857  53.655  47.709  1.00  0.00    -0.048 Br
HETATM   16  C   UNL     1      39.106  54.748  45.060  1.00  0.00     0.116 A 
HETATM   17  C   UNL     1      38.783  54.874  43.700  1.00  0.00     0.103 A 
HETATM   18  C   UNL     1      37.763  54.080  43.165  1.00  0.00     0.052 A 
BRANCH  16  19
HETATM   19  O   UNL     1      40.104  55.538  45.574  1.00  0.00    -0.357 OA
HETATM   20  H   UNL     1      40.912  55.001  45.647  1.00  0.00     0.218 HD
ENDBRANCH  16  19
BRANCH  17  21
HETATM   21  O   UNL     1      39.508  55.797  42.994  1.00  0.00    -0.353 OA
HETATM   22  C   UNL     1      40.473  55.321  42.067  1.00  0.00     0.210 C 
ENDBRANCH  17  21
ENDBRANCH  11  12
ENDBRANCH   7  10
ENDBRANCH   5   6
BRANCH   1  23
HETATM   23  C   UNL     1      30.425  52.346  41.871  1.00  0.00     0.296 C 
BRANCH  23  24
HETATM   24  N   UNL     1      30.621  52.642  40.393  1.00  0.00    -0.066 N 
HETATM   25  H   UNL     1      30.623  51.731  39.911  1.00  0.00     0.280 HD
BRANCH  24  26
HETATM   26  C   UNL     1      31.978  53.290  40.143  1.00  0.00     0.231 C 
HETATM   27  C   UNL     1      32.909  52.355  39.391  1.00  0.00     0.034 C 
ENDBRANCH  24  26
BRANCH  24  28
HETATM   28  C   UNL     1      29.495  53.488  39.815  1.00  0.00     0.231 C 
HETATM   29  C   UNL     1      28.703  52.707  38.778  1.00  0.00     0.034 C 
ENDBRANCH  24  28
ENDBRANCH  23  24
ENDBRANCH   1  23
BRANCH   2  30
HETATM   30  C   UNL     1      28.914  49.680  41.132  1.00  0.00     0.225 A 
HETATM   31  N   UNL     1      27.760  50.109  41.650  1.00  0.00    -0.081 NA
HETATM   32  O   UNL     1      26.821  49.806  40.659  1.00  0.00    -0.103 OA
HETATM   33  N   UNL     1      27.421  49.178  39.577  1.00  0.00    -0.083 NA
HETATM   34  C   UNL     1      28.717  49.096  39.870  1.00  0.00     0.201 A 
BRANCH  34  35
HETATM   35  N   UNL     1      29.646  48.552  39.070  1.00  0.00    -0.379 N 
HETATM   36  H   UNL     1      29.372  47.929  38.314  1.00  0.00     0.158 HD
HETATM   37  H   UNL     1      30.646  48.581  39.256  1.00  0.00     0.158 HD
ENDBRANCH  34  35
ENDBRANCH   2  30
TORSDOF 11
ENDMDL
MODEL 9
REMARK VINA RESULT:      -7.3     11.871     13.672
REMARK  11 active torsions:
REMARK  status: ('A' for Active; 'I' for Inactive)
REMARK    1  A    between atoms: C_2  and  N_3 
REMARK    2  A    between atoms: N_3  and  C_5 
REMARK    3  A    between atoms: N_3  and  C_32 
REMARK    4  A    between atoms: C_5  and  C_6 
REMARK    5  A    between atoms: N_7  and  C_8 
REMARK    6  A    between atoms: C_12  and  N_13 
REMARK    7  A    between atoms: C_16  and  C_17 
REMARK       I    between atoms: C_17  and  N_18 
REMARK    8  A    between atoms: N_18  and  N_19 
REMARK    9  A    between atoms: C_20  and  C_21 
REMARK   10  A    between atoms: C_25  and  O_26 
REMARK   11  A    between atoms: C_27  and  O_28 
ROOT
HETATM    1  C   UNL     1      29.746  51.075  40.262  1.00  0.00     0.096 A 
HETATM    2  N   UNL     1      28.356  51.032  40.222  1.00  0.00    -0.215 N 
HETATM    3  N   UNL     1      27.865  51.872  41.172  1.00  0.00     0.012 NA
HETATM    4  N   UNL     1      28.869  52.519  41.743  1.00  0.00    -0.152 NA
HETATM    5  C   UNL     1      30.033  52.058  41.200  1.00  0.00     0.170 A 
ENDROOT
BRANCH   5   6
HETATM    6  C   UNL     1      31.353  52.551  41.569  1.00  0.00     0.293 C 
HETATM    7  N   UNL     1      31.993  51.792  42.530  1.00  0.00    -0.242 N 
HETATM    8  H   UNL     1      31.545  50.965  42.917  1.00  0.00     0.192 HD
HETATM    9  O   UNL     1      31.792  53.576  41.053  1.00  0.00    -0.264 OA
BRANCH   7  10
HETATM   10  N   UNL     1      33.245  52.145  42.927  1.00  0.00    -0.184 NA
HETATM   11  C   UNL     1      34.200  51.325  42.624  1.00  0.00     0.150 C 
BRANCH  11  12
HETATM   12  C   UNL     1      35.601  51.622  42.989  1.00  0.00    -0.013 A 
HETATM   13  C   UNL     1      35.885  52.581  43.965  1.00  0.00     0.035 A 
HETATM   14  C   UNL     1      37.211  52.857  44.287  1.00  0.00     0.047 A 
HETATM   15 BR   UNL     1      37.579  54.167  45.605  1.00  0.00    -0.048 Br
HETATM   16  C   UNL     1      38.246  52.176  43.640  1.00  0.00     0.116 A 
HETATM   17  C   UNL     1      37.965  51.206  42.664  1.00  0.00     0.103 A 
HETATM   18  C   UNL     1      36.633  50.934  42.336  1.00  0.00     0.052 A 
BRANCH  16  19
HETATM   19  O   UNL     1      39.558  52.437  43.946  1.00  0.00    -0.357 OA
HETATM   20  H   UNL     1      39.607  53.318  44.357  1.00  0.00     0.218 HD
ENDBRANCH  16  19
BRANCH  17  21
HETATM   21  O   UNL     1      39.052  50.597  42.094  1.00  0.00    -0.353 OA
HETATM   22  C   UNL     1      39.486  51.058  40.823  1.00  0.00     0.210 C 
ENDBRANCH  17  21
ENDBRANCH  11  12
ENDBRANCH   7  10
ENDBRANCH   5   6
BRANCH   1  23
HETATM   23  C   UNL     1      30.663  50.173  39.521  1.00  0.00     0.296 C 
BRANCH  23  24
HETATM   24  N   UNL     1      30.736  48.738  40.017  1.00  0.00    -0.066 N 
HETATM   25  H   UNL     1      29.983  48.631  40.712  1.00  0.00     0.280 HD
BRANCH  24  26
HETATM   26  C   UNL     1      32.056  48.477  40.734  1.00  0.00     0.231 C 
HETATM   27  C   UNL     1      31.862  48.389  42.238  1.00  0.00     0.034 C 
ENDBRANCH  24  26
BRANCH  24  28
HETATM   28  C   UNL     1      30.509  47.726  38.903  1.00  0.00     0.231 C 
HETATM   29  C   UNL     1      29.409  46.743  39.274  1.00  0.00     0.034 C 
ENDBRANCH  24  28
ENDBRANCH  23  24
ENDBRANCH   1  23
BRANCH   2  30
HETATM   30  C   UNL     1      27.519  50.311  39.336  1.00  0.00     0.225 A 
HETATM   31  N   UNL     1      27.532  50.595  38.031  1.00  0.00    -0.081 NA
HETATM   32  O   UNL     1      26.586  49.716  37.494  1.00  0.00    -0.103 OA
HETATM   33  N   UNL     1      26.003  48.941  38.485  1.00  0.00    -0.083 NA
HETATM   34  C   UNL     1      26.578  49.310  39.628  1.00  0.00     0.201 A 
BRANCH  34  35
HETATM   35  N   UNL     1      26.289  48.789  40.829  1.00  0.00    -0.379 N 
HETATM   36  H   UNL     1      26.829  48.008  41.194  1.00  0.00     0.158 HD
HETATM   37  H   UNL     1      25.448  49.008  41.359  1.00  0.00     0.158 HD
ENDBRANCH  34  35
ENDBRANCH   2  30
TORSDOF 11
ENDMDL
MODEL 10
REMARK VINA RESULT:      -7.2      2.530      4.702
REMARK  11 active torsions:
REMARK  status: ('A' for Active; 'I' for Inactive)
REMARK    1  A    between atoms: C_2  and  N_3 
REMARK    2  A    between atoms: N_3  and  C_5 
REMARK    3  A    between atoms: N_3  and  C_32 
REMARK    4  A    between atoms: C_5  and  C_6 
REMARK    5  A    between atoms: N_7  and  C_8 
REMARK    6  A    between atoms: C_12  and  N_13 
REMARK    7  A    between atoms: C_16  and  C_17 
REMARK       I    between atoms: C_17  and  N_18 
REMARK    8  A    between atoms: N_18  and  N_19 
REMARK    9  A    between atoms: C_20  and  C_21 
REMARK   10  A    between atoms: C_25  and  O_26 
REMARK   11  A    between atoms: C_27  and  O_28 
ROOT
HETATM    1  C   UNL     1      20.278  49.218  49.041  1.00  0.00     0.096 A 
HETATM    2  N   UNL     1      19.853  50.541  48.973  1.00  0.00    -0.215 N 
HETATM    3  N   UNL     1      20.942  51.344  48.846  1.00  0.00     0.012 NA
HETATM    4  N   UNL     1      22.026  50.594  48.727  1.00  0.00    -0.152 NA
HETATM    5  C   UNL     1      21.650  49.287  48.835  1.00  0.00     0.170 A 
ENDROOT
BRANCH   5   6
HETATM    6  C   UNL     1      22.572  48.164  48.736  1.00  0.00     0.293 C 
HETATM    7  N   UNL     1      23.393  48.006  49.837  1.00  0.00    -0.242 N 
HETATM    8  H   UNL     1      23.321  48.642  50.629  1.00  0.00     0.192 HD
HETATM    9  O   UNL     1      22.590  47.471  47.722  1.00  0.00    -0.264 OA
BRANCH   7  10
HETATM   10  N   UNL     1      24.273  46.970  49.864  1.00  0.00    -0.184 NA
HETATM   11  C   UNL     1      24.806  46.695  51.012  1.00  0.00     0.150 C 
BRANCH  11  12
HETATM   12  C   UNL     1      25.760  45.575  51.157  1.00  0.00    -0.013 A 
HETATM   13  C   UNL     1      26.441  45.384  52.363  1.00  0.00     0.035 A 
HETATM   14  C   UNL     1      27.345  44.331  52.477  1.00  0.00     0.047 A 
HETATM   15 BR   UNL     1      28.267  44.092  54.116  1.00  0.00    -0.048 Br
HETATM   16  C   UNL     1      27.564  43.474  51.396  1.00  0.00     0.116 A 
HETATM   17  C   UNL     1      26.877  43.658  50.185  1.00  0.00     0.103 A 
HETATM   18  C   UNL     1      25.974  44.720  50.069  1.00  0.00     0.052 A 
BRANCH  16  19
HETATM   19  O   UNL     1      28.453  42.432  51.494  1.00  0.00    -0.357 OA
HETATM   20  H   UNL     1      29.113  42.657  52.174  1.00  0.00     0.218 HD
ENDBRANCH  16  19
BRANCH  17  21
HETATM   21  O   UNL     1      27.164  42.761  49.191  1.00  0.00    -0.353 OA
HETATM   22  C   UNL     1      26.135  41.877  48.770  1.00  0.00     0.210 C 
ENDBRANCH  17  21
ENDBRANCH  11  12
ENDBRANCH   7  10
ENDBRANCH   5   6
BRANCH   1  23
HETATM   23  C   UNL     1      19.424  48.048  49.368  1.00  0.00     0.296 C 
BRANCH  23  24
HETATM   24  N   UNL     1      18.532  47.537  48.249  1.00  0.00    -0.066 N 
HETATM   25  H   UNL     1      18.448  48.306  47.568  1.00  0.00     0.280 HD
BRANCH  24  26
HETATM   26  C   UNL     1      17.130  47.235  48.767  1.00  0.00     0.231 C 
HETATM   27  C   UNL     1      16.091  48.122  48.103  1.00  0.00     0.034 C 
ENDBRANCH  24  26
BRANCH  24  28
HETATM   28  C   UNL     1      19.124  46.329  47.539  1.00  0.00     0.231 C 
HETATM   29  C   UNL     1      19.854  45.423  48.519  1.00  0.00     0.034 C 
ENDBRANCH  24  28
ENDBRANCH  23  24
ENDBRANCH   1  23
BRANCH   2  30
HETATM   30  C   UNL     1      18.530  51.046  48.971  1.00  0.00     0.225 A 
HETATM   31  N   UNL     1      17.884  51.224  50.127  1.00  0.00    -0.081 NA
HETATM   32  O   UNL     1      16.631  51.702  49.732  1.00  0.00    -0.103 OA
HETATM   33  N   UNL     1      16.535  51.778  48.351  1.00  0.00    -0.083 NA
HETATM   34  C   UNL     1      17.710  51.369  47.878  1.00  0.00     0.201 A 
BRANCH  34  35
HETATM   35  N   UNL     1      18.024  51.299  46.575  1.00  0.00    -0.379 N 
HETATM   36  H   UNL     1      18.655  50.577  46.237  1.00  0.00     0.158 HD
HETATM   37  H   UNL     1      17.805  52.025  45.896  1.00  0.00     0.158 HD
ENDBRANCH  34  35
ENDBRANCH   2  30
TORSDOF 11
ENDMDL
