MODEL 1
REMARK VINA RESULT:      -8.2      0.000      0.000
REMARK  6 active torsions:
REMARK  status: ('A' for Active; 'I' for Inactive)
REMARK    1  A    between atoms: C_8  and  C_9 
REMARK    2  A    between atoms: C_9  and  C_10 
REMARK       I    between atoms: C_10  and  N_11 
REMARK    3  A    between atoms: N_11  and  C_12 
REMARK    4  A    between atoms: C_12  and  C_13 
REMARK    5  A    between atoms: C_13  and  N_14 
REMARK    6  A    between atoms: C_13  and  C_20 
ROOT
HETATM    1  C   UNL     1      27.618  41.872  52.804  1.00  0.00     0.160 C 
ENDROOT
BRANCH   1   2
HETATM    2  N   UNL     1      28.160  40.851  51.913  1.00  0.00    -0.358 N 
HETATM    3  C   UNL     1      27.713  40.778  50.604  1.00  0.00     0.226 C 
HETATM    4  O   UNL     1      26.681  41.361  50.271  1.00  0.00    -0.273 OA
HETATM    5  H   UNL     1      29.130  40.594  52.060  1.00  0.00     0.162 HD
BRANCH   3   6
HETATM    6  C   UNL     1      28.529  39.927  49.623  1.00  0.00     0.111 C 
HETATM    7  C   UNL     1      28.634  40.515  48.217  1.00  0.00     0.025 C 
BRANCH   6   8
HETATM    8  C   UNL     1      28.094  38.489  49.629  1.00  0.00     0.004 A 
HETATM    9  C   UNL     1      28.699  37.456  50.329  1.00  0.00     0.033 A 
HETATM   10  C   UNL     1      29.872  37.422  51.236  1.00  0.00     0.070 C 
HETATM   11  N   UNL     1      27.979  36.330  50.050  1.00  0.00    -0.282 N 
HETATM   12  H   UNL     1      28.129  35.384  50.391  1.00  0.00     0.189 HD
HETATM   13  N   UNL     1      26.959  36.545  49.214  1.00  0.00    -0.179 NA
HETATM   14  C   UNL     1      27.017  37.851  48.943  1.00  0.00     0.060 A 
HETATM   15  C   UNL     1      26.003  38.419  48.019  1.00  0.00     0.073 C 
ENDBRANCH   6   8
ENDBRANCH   3   6
ENDBRANCH   1   2
BRANCH   1  16
HETATM   16  C   UNL     1      28.216  43.316  52.696  1.00  0.00     0.238 C 
BRANCH  16  17
HETATM   17  N   UNL     1      27.185  44.399  52.347  1.00  0.00    -0.061 N 
HETATM   18  H   UNL     1      27.546  45.237  52.821  1.00  0.00     0.280 HD
HETATM   19  C   UNL     1      25.771  44.226  52.843  1.00  0.00     0.236 C 
HETATM   20  C   UNL     1      24.952  44.054  51.582  1.00  0.00     0.029 C 
HETATM   21  C   UNL     1      25.642  44.977  50.599  1.00  0.00     0.029 C 
HETATM   22  C   UNL     1      27.119  44.771  50.879  1.00  0.00     0.236 C 
ENDBRANCH  16  17
BRANCH  16  23
HETATM   23  C   UNL     1      29.000  43.733  53.937  1.00  0.00    -0.024 A 
HETATM   24  C   UNL     1      28.576  44.763  54.794  1.00  0.00     0.033 A 
HETATM   25  C   UNL     1      29.346  45.127  55.903  1.00  0.00     0.034 A 
HETATM   26 CL   UNL     1      28.799  46.395  56.928  1.00  0.00    -0.084 Cl
HETATM   27  C   UNL     1      30.545  44.481  56.176  1.00  0.00     0.024 A 
HETATM   28  C   UNL     1      30.983  43.461  55.335  1.00  0.00     0.002 A 
HETATM   29  C   UNL     1      30.221  43.092  54.223  1.00  0.00     0.009 A 
ENDBRANCH  16  23
ENDBRANCH   1  16
TORSDOF 6
ENDMDL
MODEL 2
REMARK VINA RESULT:      -8.0     13.290     15.344
REMARK  6 active torsions:
REMARK  status: ('A' for Active; 'I' for Inactive)
REMARK    1  A    between atoms: C_8  and  C_9 
REMARK    2  A    between atoms: C_9  and  C_10 
REMARK       I    between atoms: C_10  and  N_11 
REMARK    3  A    between atoms: N_11  and  C_12 
REMARK    4  A    between atoms: C_12  and  C_13 
REMARK    5  A    between atoms: C_13  and  N_14 
REMARK    6  A    between atoms: C_13  and  C_20 
ROOT
HETATM    1  C   UNL     1      31.810  49.890  42.863  1.00  0.00     0.160 C 
ENDROOT
BRANCH   1   2
HETATM    2  N   UNL     1      31.474  49.168  41.638  1.00  0.00    -0.358 N 
HETATM    3  C   UNL     1      30.206  48.631  41.489  1.00  0.00     0.226 C 
HETATM    4  O   UNL     1      29.469  48.505  42.466  1.00  0.00    -0.273 OA
HETATM    5  H   UNL     1      31.915  49.497  40.787  1.00  0.00     0.162 HD
BRANCH   3   6
HETATM    6  C   UNL     1      29.790  48.179  40.083  1.00  0.00     0.111 C 
HETATM    7  C   UNL     1      30.859  47.383  39.336  1.00  0.00     0.025 C 
BRANCH   6   8
HETATM    8  C   UNL     1      29.225  49.311  39.273  1.00  0.00     0.004 A 
HETATM    9  C   UNL     1      27.879  49.575  39.066  1.00  0.00     0.033 A 
HETATM   10  C   UNL     1      26.648  48.894  39.538  1.00  0.00     0.070 C 
HETATM   11  N   UNL     1      27.822  50.689  38.279  1.00  0.00    -0.282 N 
HETATM   12  H   UNL     1      26.999  51.173  37.930  1.00  0.00     0.189 HD
HETATM   13  N   UNL     1      29.025  51.166  37.947  1.00  0.00    -0.179 NA
HETATM   14  C   UNL     1      29.890  50.338  38.537  1.00  0.00     0.060 A 
HETATM   15  C   UNL     1      31.341  50.596  38.355  1.00  0.00     0.073 C 
ENDBRANCH   6   8
ENDBRANCH   3   6
ENDBRANCH   1   2
BRANCH   1  16
HETATM   16  C   UNL     1      32.142  51.416  42.733  1.00  0.00     0.238 C 
BRANCH  16  17
HETATM   17  N   UNL     1      33.544  51.710  42.182  1.00  0.00    -0.061 N 
HETATM   18  H   UNL     1      33.487  52.694  41.889  1.00  0.00     0.280 HD
HETATM   19  C   UNL     1      34.009  50.947  40.966  1.00  0.00     0.236 C 
HETATM   20  C   UNL     1      35.165  50.111  41.470  1.00  0.00     0.029 C 
HETATM   21  C   UNL     1      35.824  51.018  42.488  1.00  0.00     0.029 C 
HETATM   22  C   UNL     1      34.657  51.666  43.209  1.00  0.00     0.236 C 
ENDBRANCH  16  17
BRANCH  16  23
HETATM   23  C   UNL     1      31.100  52.188  41.927  1.00  0.00    -0.024 A 
HETATM   24  C   UNL     1      29.722  51.926  42.019  1.00  0.00     0.033 A 
HETATM   25  C   UNL     1      28.810  52.642  41.238  1.00  0.00     0.034 A 
HETATM   26 CL   UNL     1      27.131  52.293  41.371  1.00  0.00    -0.084 Cl
HETATM   27  C   UNL     1      29.248  53.621  40.354  1.00  0.00     0.024 A 
HETATM   28  C   UNL     1      30.610  53.891  40.248  1.00  0.00     0.002 A 
HETATM   29  C   UNL     1      31.529  53.179  41.023  1.00  0.00     0.009 A 
ENDBRANCH  16  23
ENDBRANCH   1  16
TORSDOF 6
ENDMDL
MODEL 3
REMARK VINA RESULT:      -8.0      5.061      8.713
REMARK  6 active torsions:
REMARK  status: ('A' for Active; 'I' for Inactive)
REMARK    1  A    between atoms: C_8  and  C_9 
REMARK    2  A    between atoms: C_9  and  C_10 
REMARK       I    between atoms: C_10  and  N_11 
REMARK    3  A    between atoms: N_11  and  C_12 
REMARK    4  A    between atoms: C_12  and  C_13 
REMARK    5  A    between atoms: C_13  and  N_14 
REMARK    6  A    between atoms: C_13  and  C_20 
ROOT
HETATM    1  C   UNL     1      24.852  47.166  50.632  1.00  0.00     0.160 C 
ENDROOT
BRANCH   1   2
HETATM    2  N   UNL     1      23.587  47.452  49.962  1.00  0.00    -0.358 N 
HETATM    3  C   UNL     1      23.420  48.658  49.302  1.00  0.00     0.226 C 
HETATM    4  O   UNL     1      24.197  49.590  49.512  1.00  0.00    -0.273 OA
HETATM    5  H   UNL     1      23.104  46.659  49.554  1.00  0.00     0.162 HD
BRANCH   3   6
HETATM    6  C   UNL     1      22.227  48.784  48.347  1.00  0.00     0.111 C 
HETATM    7  C   UNL     1      22.219  50.066  47.515  1.00  0.00     0.025 C 
BRANCH   6   8
HETATM    8  C   UNL     1      20.920  48.526  49.042  1.00  0.00     0.004 A 
HETATM    9  C   UNL     1      20.197  47.342  49.008  1.00  0.00     0.033 A 
HETATM   10  C   UNL     1      20.448  46.042  48.339  1.00  0.00     0.070 C 
HETATM   11  N   UNL     1      19.086  47.549  49.774  1.00  0.00    -0.282 N 
HETATM   12  H   UNL     1      18.332  46.899  49.980  1.00  0.00     0.189 HD
HETATM   13  N   UNL     1      19.022  48.777  50.297  1.00  0.00    -0.179 NA
HETATM   14  C   UNL     1      20.125  49.387  49.857  1.00  0.00     0.060 A 
HETATM   15  C   UNL     1      20.354  50.797  50.264  1.00  0.00     0.073 C 
ENDBRANCH   6   8
ENDBRANCH   3   6
ENDBRANCH   1   2
BRANCH   1  16
HETATM   16  C   UNL     1      24.904  45.915  51.574  1.00  0.00     0.238 C 
BRANCH  16  17
HETATM   17  N   UNL     1      25.270  44.606  50.861  1.00  0.00    -0.061 N 
HETATM   18  H   UNL     1      26.103  44.280  51.368  1.00  0.00     0.280 HD
HETATM   19  C   UNL     1      25.676  44.672  49.409  1.00  0.00     0.236 C 
HETATM   20  C   UNL     1      24.580  43.924  48.681  1.00  0.00     0.029 C 
HETATM   21  C   UNL     1      24.224  42.815  49.649  1.00  0.00     0.029 C 
HETATM   22  C   UNL     1      24.254  43.491  51.007  1.00  0.00     0.236 C 
ENDBRANCH  16  17
BRANCH  16  23
HETATM   23  C   UNL     1      25.812  46.114  52.784  1.00  0.00    -0.024 A 
HETATM   24  C   UNL     1      25.726  47.239  53.622  1.00  0.00     0.033 A 
HETATM   25  C   UNL     1      26.602  47.389  54.702  1.00  0.00     0.034 A 
HETATM   26 CL   UNL     1      26.471  48.780  55.705  1.00  0.00    -0.084 Cl
HETATM   27  C   UNL     1      27.575  46.433  54.964  1.00  0.00     0.024 A 
HETATM   28  C   UNL     1      27.678  45.313  54.141  1.00  0.00     0.002 A 
HETATM   29  C   UNL     1      26.808  45.157  53.058  1.00  0.00     0.009 A 
ENDBRANCH  16  23
ENDBRANCH   1  16
TORSDOF 6
ENDMDL
MODEL 4
REMARK VINA RESULT:      -7.7     13.930     16.323
REMARK  6 active torsions:
REMARK  status: ('A' for Active; 'I' for Inactive)
REMARK    1  A    between atoms: C_8  and  C_9 
REMARK    2  A    between atoms: C_9  and  C_10 
REMARK       I    between atoms: C_10  and  N_11 
REMARK    3  A    between atoms: N_11  and  C_12 
REMARK    4  A    between atoms: C_12  and  C_13 
REMARK    5  A    between atoms: C_13  and  N_14 
REMARK    6  A    between atoms: C_13  and  C_20 
ROOT
HETATM    1  C   UNL     1      32.512  51.530  38.439  1.00  0.00     0.160 C 
ENDROOT
BRANCH   1   2
HETATM    2  N   UNL     1      31.293  52.273  38.751  1.00  0.00    -0.358 N 
HETATM    3  C   UNL     1      30.107  51.935  38.121  1.00  0.00     0.226 C 
HETATM    4  O   UNL     1      30.122  51.226  37.114  1.00  0.00    -0.273 OA
HETATM    5  H   UNL     1      31.204  52.612  39.702  1.00  0.00     0.162 HD
BRANCH   3   6
HETATM    6  C   UNL     1      28.808  52.503  38.706  1.00  0.00     0.111 C 
HETATM    7  C   UNL     1      28.900  53.965  39.140  1.00  0.00     0.025 C 
BRANCH   6   8
HETATM    8  C   UNL     1      28.231  51.609  39.767  1.00  0.00     0.004 A 
HETATM    9  C   UNL     1      27.261  50.636  39.576  1.00  0.00     0.033 A 
HETATM   10  C   UNL     1      26.532  50.182  38.365  1.00  0.00     0.070 C 
HETATM   11  N   UNL     1      27.039  50.069  40.798  1.00  0.00    -0.282 N 
HETATM   12  H   UNL     1      26.396  49.319  41.038  1.00  0.00     0.189 HD
HETATM   13  N   UNL     1      27.780  50.603  41.773  1.00  0.00    -0.179 NA
HETATM   14  C   UNL     1      28.506  51.545  41.166  1.00  0.00     0.060 A 
HETATM   15  C   UNL     1      29.448  52.342  41.992  1.00  0.00     0.073 C 
ENDBRANCH   6   8
ENDBRANCH   3   6
ENDBRANCH   1   2
BRANCH   1  16
HETATM   16  C   UNL     1      33.362  51.000  39.644  1.00  0.00     0.238 C 
BRANCH  16  17
HETATM   17  N   UNL     1      34.206  52.077  40.340  1.00  0.00    -0.061 N 
HETATM   18  H   UNL     1      33.653  52.316  41.174  1.00  0.00     0.280 HD
HETATM   19  C   UNL     1      34.438  53.380  39.617  1.00  0.00     0.236 C 
HETATM   20  C   UNL     1      35.929  53.400  39.355  1.00  0.00     0.029 C 
HETATM   21  C   UNL     1      36.501  52.739  40.591  1.00  0.00     0.029 C 
HETATM   22  C   UNL     1      35.541  51.599  40.873  1.00  0.00     0.236 C 
ENDBRANCH  16  17
BRANCH  16  23
HETATM   23  C   UNL     1      32.528  50.250  40.680  1.00  0.00    -0.024 A 
HETATM   24  C   UNL     1      31.535  49.320  40.328  1.00  0.00     0.033 A 
HETATM   25  C   UNL     1      30.779  48.681  41.314  1.00  0.00     0.034 A 
HETATM   26 CL   UNL     1      29.568  47.551  40.848  1.00  0.00    -0.084 Cl
HETATM   27  C   UNL     1      30.991  48.955  42.660  1.00  0.00     0.024 A 
HETATM   28  C   UNL     1      31.968  49.877  43.027  1.00  0.00     0.002 A 
HETATM   29  C   UNL     1      32.727  50.522  42.047  1.00  0.00     0.009 A 
ENDBRANCH  16  23
ENDBRANCH   1  16
TORSDOF 6
ENDMDL
MODEL 5
REMARK VINA RESULT:      -7.7     13.274     15.331
REMARK  6 active torsions:
REMARK  status: ('A' for Active; 'I' for Inactive)
REMARK    1  A    between atoms: C_8  and  C_9 
REMARK    2  A    between atoms: C_9  and  C_10 
REMARK       I    between atoms: C_10  and  N_11 
REMARK    3  A    between atoms: N_11  and  C_12 
REMARK    4  A    between atoms: C_12  and  C_13 
REMARK    5  A    between atoms: C_13  and  N_14 
REMARK    6  A    between atoms: C_13  and  C_20 
ROOT
HETATM    1  C   UNL     1      33.000  51.064  39.875  1.00  0.00     0.160 C 
ENDROOT
BRANCH   1   2
HETATM    2  N   UNL     1      31.659  51.531  39.531  1.00  0.00    -0.358 N 
HETATM    3  C   UNL     1      30.827  50.721  38.777  1.00  0.00     0.226 C 
HETATM    4  O   UNL     1      31.290  49.759  38.163  1.00  0.00    -0.273 OA
HETATM    5  H   UNL     1      31.197  52.118  40.216  1.00  0.00     0.162 HD
BRANCH   3   6
HETATM    6  C   UNL     1      29.339  51.093  38.719  1.00  0.00     0.111 C 
HETATM    7  C   UNL     1      29.070  52.563  38.406  1.00  0.00     0.025 C 
BRANCH   6   8
HETATM    8  C   UNL     1      28.589  50.600  39.924  1.00  0.00     0.004 A 
HETATM    9  C   UNL     1      27.811  49.454  39.989  1.00  0.00     0.033 A 
HETATM   10  C   UNL     1      27.488  48.412  38.983  1.00  0.00     0.070 C 
HETATM   11  N   UNL     1      27.323  49.392  41.263  1.00  0.00    -0.282 N 
HETATM   12  H   UNL     1      26.719  48.686  41.674  1.00  0.00     0.189 HD
HETATM   13  N   UNL     1      27.713  50.414  42.030  1.00  0.00    -0.179 NA
HETATM   14  C   UNL     1      28.479  51.162  41.231  1.00  0.00     0.060 A 
HETATM   15  C   UNL     1      29.075  52.400  41.793  1.00  0.00     0.073 C 
ENDBRANCH   6   8
ENDBRANCH   3   6
ENDBRANCH   1   2
BRANCH   1  16
HETATM   16  C   UNL     1      33.368  50.984  41.396  1.00  0.00     0.238 C 
BRANCH  16  17
HETATM   17  N   UNL     1      32.867  49.715  42.098  1.00  0.00    -0.061 N 
HETATM   18  H   UNL     1      33.629  49.482  42.749  1.00  0.00     0.280 HD
HETATM   19  C   UNL     1      32.651  48.475  41.265  1.00  0.00     0.236 C 
HETATM   20  C   UNL     1      31.157  48.237  41.332  1.00  0.00     0.029 C 
HETATM   21  C   UNL     1      30.809  48.659  42.745  1.00  0.00     0.029 C 
HETATM   22  C   UNL     1      31.643  49.906  42.970  1.00  0.00     0.236 C 
ENDBRANCH  16  17
BRANCH  16  23
HETATM   23  C   UNL     1      34.860  51.164  41.660  1.00  0.00    -0.024 A 
HETATM   24  C   UNL     1      35.364  51.631  42.886  1.00  0.00     0.033 A 
HETATM   25  C   UNL     1      36.739  51.807  43.069  1.00  0.00     0.034 A 
HETATM   26 CL   UNL     1      37.321  52.384  44.581  1.00  0.00    -0.084 Cl
HETATM   27  C   UNL     1      37.632  51.527  42.042  1.00  0.00     0.024 A 
HETATM   28  C   UNL     1      37.150  51.067  40.818  1.00  0.00     0.002 A 
HETATM   29  C   UNL     1      35.777  50.891  40.626  1.00  0.00     0.009 A 
ENDBRANCH  16  23
ENDBRANCH   1  16
TORSDOF 6
ENDMDL
MODEL 6
REMARK VINA RESULT:      -7.7      1.496      2.064
REMARK  6 active torsions:
REMARK  status: ('A' for Active; 'I' for Inactive)
REMARK    1  A    between atoms: C_8  and  C_9 
REMARK    2  A    between atoms: C_9  and  C_10 
REMARK       I    between atoms: C_10  and  N_11 
REMARK    3  A    between atoms: N_11  and  C_12 
REMARK    4  A    between atoms: C_12  and  C_13 
REMARK    5  A    between atoms: C_13  and  N_14 
REMARK    6  A    between atoms: C_13  and  C_20 
ROOT
HETATM    1  C   UNL     1      26.535  42.710  51.203  1.00  0.00     0.160 C 
ENDROOT
BRANCH   1   2
HETATM    2  N   UNL     1      27.310  42.026  50.171  1.00  0.00    -0.358 N 
HETATM    3  C   UNL     1      28.125  40.963  50.521  1.00  0.00     0.226 C 
HETATM    4  O   UNL     1      28.423  40.774  51.701  1.00  0.00    -0.273 OA
HETATM    5  H   UNL     1      26.884  41.968  49.253  1.00  0.00     0.162 HD
BRANCH   3   6
HETATM    6  C   UNL     1      28.655  40.074  49.389  1.00  0.00     0.111 C 
HETATM    7  C   UNL     1      28.469  40.659  47.990  1.00  0.00     0.025 C 
BRANCH   6   8
HETATM    8  C   UNL     1      28.160  38.660  49.505  1.00  0.00     0.004 A 
HETATM    9  C   UNL     1      28.761  37.642  50.232  1.00  0.00     0.033 A 
HETATM   10  C   UNL     1      29.984  37.607  51.072  1.00  0.00     0.070 C 
HETATM   11  N   UNL     1      27.979  36.536  50.062  1.00  0.00    -0.282 N 
HETATM   12  H   UNL     1      28.109  35.606  50.450  1.00  0.00     0.189 HD
HETATM   13  N   UNL     1      26.922  36.749  49.273  1.00  0.00    -0.179 NA
HETATM   14  C   UNL     1      27.019  38.033  48.920  1.00  0.00     0.060 A 
HETATM   15  C   UNL     1      25.977  38.592  48.022  1.00  0.00     0.073 C 
ENDBRANCH   6   8
ENDBRANCH   3   6
ENDBRANCH   1   2
BRANCH   1  16
HETATM   16  C   UNL     1      26.826  44.232  51.434  1.00  0.00     0.238 C 
BRANCH  16  17
HETATM   17  N   UNL     1      25.597  45.138  51.282  1.00  0.00    -0.061 N 
HETATM   18  H   UNL     1      25.560  45.646  52.176  1.00  0.00     0.280 HD
HETATM   19  C   UNL     1      24.244  44.487  51.127  1.00  0.00     0.236 C 
HETATM   20  C   UNL     1      23.806  44.868  49.730  1.00  0.00     0.029 C 
HETATM   21  C   UNL     1      24.347  46.274  49.575  1.00  0.00     0.029 C 
HETATM   22  C   UNL     1      25.719  46.210  50.219  1.00  0.00     0.236 C 
ENDBRANCH  16  17
BRANCH  16  23
HETATM   23  C   UNL     1      27.512  44.513  52.769  1.00  0.00    -0.024 A 
HETATM   24  C   UNL     1      28.655  43.817  53.198  1.00  0.00     0.033 A 
HETATM   25  C   UNL     1      29.228  44.092  54.443  1.00  0.00     0.034 A 
HETATM   26 CL   UNL     1      30.624  43.218  54.939  1.00  0.00    -0.084 Cl
HETATM   27  C   UNL     1      28.679  45.055  55.280  1.00  0.00     0.024 A 
HETATM   28  C   UNL     1      27.543  45.753  54.872  1.00  0.00     0.002 A 
HETATM   29  C   UNL     1      26.962  45.482  53.631  1.00  0.00     0.009 A 
ENDBRANCH  16  23
ENDBRANCH   1  16
TORSDOF 6
ENDMDL
MODEL 7
REMARK VINA RESULT:      -7.5     13.143     14.811
REMARK  6 active torsions:
REMARK  status: ('A' for Active; 'I' for Inactive)
REMARK    1  A    between atoms: C_8  and  C_9 
REMARK    2  A    between atoms: C_9  and  C_10 
REMARK       I    between atoms: C_10  and  N_11 
REMARK    3  A    between atoms: N_11  and  C_12 
REMARK    4  A    between atoms: C_12  and  C_13 
REMARK    5  A    between atoms: C_13  and  N_14 
REMARK    6  A    between atoms: C_13  and  C_20 
ROOT
HETATM    1  C   UNL     1      30.691  49.699  42.275  1.00  0.00     0.160 C 
ENDROOT
BRANCH   1   2
HETATM    2  N   UNL     1      29.835  48.781  41.528  1.00  0.00    -0.358 N 
HETATM    3  C   UNL     1      28.467  48.989  41.503  1.00  0.00     0.226 C 
HETATM    4  O   UNL     1      27.942  49.750  42.317  1.00  0.00    -0.273 OA
HETATM    5  H   UNL     1      30.234  48.378  40.687  1.00  0.00     0.162 HD
BRANCH   3   6
HETATM    6  C   UNL     1      27.652  48.217  40.458  1.00  0.00     0.111 C 
HETATM    7  C   UNL     1      28.371  47.004  39.870  1.00  0.00     0.025 C 
BRANCH   6   8
HETATM    8  C   UNL     1      27.076  49.126  39.409  1.00  0.00     0.004 A 
HETATM    9  C   UNL     1      25.735  49.241  39.076  1.00  0.00     0.033 A 
HETATM   10  C   UNL     1      24.518  48.571  39.599  1.00  0.00     0.070 C 
HETATM   11  N   UNL     1      25.665  50.176  38.084  1.00  0.00    -0.282 N 
HETATM   12  H   UNL     1      24.841  50.520  37.598  1.00  0.00     0.189 HD
HETATM   13  N   UNL     1      26.856  50.672  37.737  1.00  0.00    -0.179 NA
HETATM   14  C   UNL     1      27.727  50.041  38.528  1.00  0.00     0.060 A 
HETATM   15  C   UNL     1      29.167  50.369  38.385  1.00  0.00     0.073 C 
ENDBRANCH   6   8
ENDBRANCH   3   6
ENDBRANCH   1   2
BRANCH   1  16
HETATM   16  C   UNL     1      31.531  50.735  41.451  1.00  0.00     0.238 C 
BRANCH  16  17
HETATM   17  N   UNL     1      31.007  52.175  41.531  1.00  0.00    -0.061 N 
HETATM   18  H   UNL     1      31.673  52.639  42.163  1.00  0.00     0.280 HD
HETATM   19  C   UNL     1      29.643  52.407  42.133  1.00  0.00     0.236 C 
HETATM   20  C   UNL     1      28.812  52.930  40.982  1.00  0.00     0.029 C 
HETATM   21  C   UNL     1      29.800  53.772  40.202  1.00  0.00     0.029 C 
HETATM   22  C   UNL     1      31.079  52.956  40.234  1.00  0.00     0.236 C 
ENDBRANCH  16  17
BRANCH  16  23
HETATM   23  C   UNL     1      33.017  50.707  41.795  1.00  0.00    -0.024 A 
HETATM   24  C   UNL     1      33.589  51.553  42.761  1.00  0.00     0.033 A 
HETATM   25  C   UNL     1      34.963  51.509  43.020  1.00  0.00     0.034 A 
HETATM   26 CL   UNL     1      35.630  52.561  44.206  1.00  0.00    -0.084 Cl
HETATM   27  C   UNL     1      35.788  50.634  42.324  1.00  0.00     0.024 A 
HETATM   28  C   UNL     1      35.239  49.792  41.360  1.00  0.00     0.002 A 
HETATM   29  C   UNL     1      33.867  49.830  41.094  1.00  0.00     0.009 A 
ENDBRANCH  16  23
ENDBRANCH   1  16
TORSDOF 6
ENDMDL
MODEL 8
REMARK VINA RESULT:      -7.5     13.702     15.898
REMARK  6 active torsions:
REMARK  status: ('A' for Active; 'I' for Inactive)
REMARK    1  A    between atoms: C_8  and  C_9 
REMARK    2  A    between atoms: C_9  and  C_10 
REMARK       I    between atoms: C_10  and  N_11 
REMARK    3  A    between atoms: N_11  and  C_12 
REMARK    4  A    between atoms: C_12  and  C_13 
REMARK    5  A    between atoms: C_13  and  N_14 
REMARK    6  A    between atoms: C_13  and  C_20 
ROOT
HETATM    1  C   UNL     1      26.496  49.863  39.717  1.00  0.00     0.160 C 
ENDROOT
BRANCH   1   2
HETATM    2  N   UNL     1      27.333  50.967  39.254  1.00  0.00    -0.358 N 
HETATM    3  C   UNL     1      27.866  51.853  40.175  1.00  0.00     0.226 C 
HETATM    4  O   UNL     1      27.422  51.894  41.323  1.00  0.00    -0.273 OA
HETATM    5  H   UNL     1      27.905  50.786  38.437  1.00  0.00     0.162 HD
BRANCH   3   6
HETATM    6  C   UNL     1      28.988  52.783  39.696  1.00  0.00     0.111 C 
HETATM    7  C   UNL     1      28.842  53.251  38.249  1.00  0.00     0.025 C 
BRANCH   6   8
HETATM    8  C   UNL     1      30.349  52.225  39.999  1.00  0.00     0.004 A 
HETATM    9  C   UNL     1      30.977  52.229  41.237  1.00  0.00     0.033 A 
HETATM   10  C   UNL     1      30.552  52.736  42.565  1.00  0.00     0.070 C 
HETATM   11  N   UNL     1      32.186  51.623  41.057  1.00  0.00    -0.282 N 
HETATM   12  H   UNL     1      32.912  51.446  41.746  1.00  0.00     0.189 HD
HETATM   13  N   UNL     1      32.402  51.233  39.797  1.00  0.00    -0.179 NA
HETATM   14  C   UNL     1      31.299  51.596  39.139  1.00  0.00     0.060 A 
HETATM   15  C   UNL     1      31.224  51.303  37.685  1.00  0.00     0.073 C 
ENDBRANCH   6   8
ENDBRANCH   3   6
ENDBRANCH   1   2
BRANCH   1  16
HETATM   16  C   UNL     1      27.036  48.408  39.499  1.00  0.00     0.238 C 
BRANCH  16  17
HETATM   17  N   UNL     1      26.721  47.822  38.116  1.00  0.00    -0.061 N 
HETATM   18  H   UNL     1      27.649  47.609  37.727  1.00  0.00     0.280 HD
HETATM   19  C   UNL     1      26.047  48.710  37.100  1.00  0.00     0.236 C 
HETATM   20  C   UNL     1      24.692  48.069  36.886  1.00  0.00     0.029 C 
HETATM   21  C   UNL     1      24.995  46.589  36.988  1.00  0.00     0.029 C 
HETATM   22  C   UNL     1      25.985  46.497  38.134  1.00  0.00     0.236 C 
ENDBRANCH  16  17
BRANCH  16  23
HETATM   23  C   UNL     1      28.528  48.274  39.787  1.00  0.00    -0.024 A 
HETATM   24  C   UNL     1      29.081  48.507  41.059  1.00  0.00     0.033 A 
HETATM   25  C   UNL     1      30.459  48.400  41.265  1.00  0.00     0.034 A 
HETATM   26 CL   UNL     1      31.102  48.696  42.833  1.00  0.00    -0.084 Cl
HETATM   27  C   UNL     1      31.309  48.065  40.218  1.00  0.00     0.024 A 
HETATM   28  C   UNL     1      30.779  47.835  38.950  1.00  0.00     0.002 A 
HETATM   29  C   UNL     1      29.403  47.942  38.735  1.00  0.00     0.009 A 
ENDBRANCH  16  23
ENDBRANCH   1  16
TORSDOF 6
ENDMDL
MODEL 9
REMARK VINA RESULT:      -7.5     13.498     15.742
REMARK  6 active torsions:
REMARK  status: ('A' for Active; 'I' for Inactive)
REMARK    1  A    between atoms: C_8  and  C_9 
REMARK    2  A    between atoms: C_9  and  C_10 
REMARK       I    between atoms: C_10  and  N_11 
REMARK    3  A    between atoms: N_11  and  C_12 
REMARK    4  A    between atoms: C_12  and  C_13 
REMARK    5  A    between atoms: C_13  and  N_14 
REMARK    6  A    between atoms: C_13  and  C_20 
ROOT
HETATM    1  C   UNL     1      32.315  50.791  39.617  1.00  0.00     0.160 C 
ENDROOT
BRANCH   1   2
HETATM    2  N   UNL     1      31.039  51.490  39.491  1.00  0.00    -0.358 N 
HETATM    3  C   UNL     1      30.394  51.519  38.265  1.00  0.00     0.226 C 
HETATM    4  O   UNL     1      31.004  51.219  37.239  1.00  0.00    -0.273 OA
HETATM    5  H   UNL     1      30.434  51.473  40.304  1.00  0.00     0.162 HD
BRANCH   3   6
HETATM    6  C   UNL     1      28.927  51.965  38.248  1.00  0.00     0.111 C 
HETATM    7  C   UNL     1      28.729  53.472  38.093  1.00  0.00     0.025 C 
BRANCH   6   8
HETATM    8  C   UNL     1      28.148  51.384  39.394  1.00  0.00     0.004 A 
HETATM    9  C   UNL     1      27.243  50.335  39.317  1.00  0.00     0.033 A 
HETATM   10  C   UNL     1      26.782  49.499  38.181  1.00  0.00     0.070 C 
HETATM   11  N   UNL     1      26.777  50.136  40.585  1.00  0.00    -0.282 N 
HETATM   12  H   UNL     1      26.103  49.448  40.909  1.00  0.00     0.189 HD
HETATM   13  N   UNL     1      27.298  50.980  41.480  1.00  0.00    -0.179 NA
HETATM   14  C   UNL     1      28.129  51.750  40.773  1.00  0.00     0.060 A 
HETATM   15  C   UNL     1      28.876  52.815  41.489  1.00  0.00     0.073 C 
ENDBRANCH   6   8
ENDBRANCH   3   6
ENDBRANCH   1   2
BRANCH   1  16
HETATM   16  C   UNL     1      32.359  49.531  40.548  1.00  0.00     0.238 C 
BRANCH  16  17
HETATM   17  N   UNL     1      32.633  49.850  42.024  1.00  0.00    -0.061 N 
HETATM   18  H   UNL     1      32.713  48.922  42.461  1.00  0.00     0.280 HD
HETATM   19  C   UNL     1      31.569  50.579  42.808  1.00  0.00     0.236 C 
HETATM   20  C   UNL     1      32.203  51.911  43.146  1.00  0.00     0.029 C 
HETATM   21  C   UNL     1      33.654  51.548  43.383  1.00  0.00     0.029 C 
HETATM   22  C   UNL     1      33.958  50.532  42.297  1.00  0.00     0.236 C 
ENDBRANCH  16  17
BRANCH  16  23
HETATM   23  C   UNL     1      31.112  48.659  40.433  1.00  0.00    -0.024 A 
HETATM   24  C   UNL     1      30.790  47.945  39.266  1.00  0.00     0.033 A 
HETATM   25  C   UNL     1      29.620  47.182  39.200  1.00  0.00     0.034 A 
HETATM   26 CL   UNL     1      29.254  46.324  37.755  1.00  0.00    -0.084 Cl
HETATM   27  C   UNL     1      28.753  47.118  40.284  1.00  0.00     0.024 A 
HETATM   28  C   UNL     1      29.055  47.823  41.447  1.00  0.00     0.002 A 
HETATM   29  C   UNL     1      30.221  48.590  41.520  1.00  0.00     0.009 A 
ENDBRANCH  16  23
ENDBRANCH   1  16
TORSDOF 6
ENDMDL
MODEL 10
REMARK VINA RESULT:      -7.5      3.692      7.510
REMARK  6 active torsions:
REMARK  status: ('A' for Active; 'I' for Inactive)
REMARK    1  A    between atoms: C_8  and  C_9 
REMARK    2  A    between atoms: C_9  and  C_10 
REMARK       I    between atoms: C_10  and  N_11 
REMARK    3  A    between atoms: N_11  and  C_12 
REMARK    4  A    between atoms: C_12  and  C_13 
REMARK    5  A    between atoms: C_13  and  N_14 
REMARK    6  A    between atoms: C_13  and  C_20 
ROOT
HETATM    1  C   UNL     1      26.869  45.223  51.184  1.00  0.00     0.160 C 
ENDROOT
BRANCH   1   2
HETATM    2  N   UNL     1      25.699  45.801  50.528  1.00  0.00    -0.358 N 
HETATM    3  C   UNL     1      25.336  47.108  50.807  1.00  0.00     0.226 C 
HETATM    4  O   UNL     1      25.801  47.682  51.792  1.00  0.00    -0.273 OA
HETATM    5  H   UNL     1      25.511  45.485  49.584  1.00  0.00     0.162 HD
BRANCH   3   6
HETATM    6  C   UNL     1      24.322  47.776  49.870  1.00  0.00     0.111 C 
HETATM    7  C   UNL     1      23.421  46.799  49.117  1.00  0.00     0.025 C 
BRANCH   6   8
HETATM    8  C   UNL     1      24.971  48.790  48.971  1.00  0.00     0.004 A 
HETATM    9  C   UNL     1      26.333  48.933  48.750  1.00  0.00     0.033 A 
HETATM   10  C   UNL     1      27.508  48.195  49.274  1.00  0.00     0.070 C 
HETATM   11  N   UNL     1      26.473  49.966  47.869  1.00  0.00    -0.282 N 
HETATM   12  H   UNL     1      27.329  50.350  47.477  1.00  0.00     0.189 HD
HETATM   13  N   UNL     1      25.311  50.515  47.505  1.00  0.00    -0.179 NA
HETATM   14  C   UNL     1      24.386  49.817  48.170  1.00  0.00     0.060 A 
HETATM   15  C   UNL     1      22.961  50.190  47.985  1.00  0.00     0.073 C 
ENDBRANCH   6   8
ENDBRANCH   3   6
ENDBRANCH   1   2
BRANCH   1  16
HETATM   16  C   UNL     1      26.622  44.332  52.449  1.00  0.00     0.238 C 
BRANCH  16  17
HETATM   17  N   UNL     1      26.659  42.823  52.173  1.00  0.00    -0.061 N 
HETATM   18  H   UNL     1      26.569  42.404  53.108  1.00  0.00     0.280 HD
HETATM   19  C   UNL     1      27.918  42.236  51.582  1.00  0.00     0.236 C 
HETATM   20  C   UNL     1      27.494  41.749  50.213  1.00  0.00     0.029 C 
HETATM   21  C   UNL     1      26.084  41.252  50.449  1.00  0.00     0.029 C 
HETATM   22  C   UNL     1      25.483  42.287  51.382  1.00  0.00     0.236 C 
ENDBRANCH  16  17
BRANCH  16  23
HETATM   23  C   UNL     1      27.556  44.667  53.608  1.00  0.00    -0.024 A 
HETATM   24  C   UNL     1      28.649  43.857  53.962  1.00  0.00     0.033 A 
HETATM   25  C   UNL     1      29.459  44.192  55.051  1.00  0.00     0.034 A 
HETATM   26 CL   UNL     1      30.785  43.176  55.459  1.00  0.00    -0.084 Cl
HETATM   27  C   UNL     1      29.197  45.329  55.806  1.00  0.00     0.024 A 
HETATM   28  C   UNL     1      28.116  46.142  55.472  1.00  0.00     0.002 A 
HETATM   29  C   UNL     1      27.300  45.813  54.386  1.00  0.00     0.009 A 
ENDBRANCH  16  23
ENDBRANCH   1  16
TORSDOF 6
ENDMDL
