MODEL 1
REMARK VINA RESULT:      -9.1      0.000      0.000
REMARK  8 active torsions:
REMARK  status: ('A' for Active; 'I' for Inactive)
REMARK    1  A    between atoms: C_4  and  O_5 
REMARK    2  A    between atoms: O_5  and  C_6 
REMARK    3  A    between atoms: C_6  and  C_7 
REMARK       I    between atoms: C_7  and  N_8 
REMARK    4  A    between atoms: N_8  and  N_9 
REMARK       I    between atoms: N_9  and  C_10 
REMARK    5  A    between atoms: C_10  and  C_11 
REMARK    6  A    between atoms: C_11  and  C_12 
REMARK    7  A    between atoms: C_12  and  N_13 
REMARK    8  A    between atoms: C_12  and  C_17 
REMARK       I    between atoms: N_13  and  C_14 
REMARK       I    between atoms: C_14  and  N_15 
ROOT
HETATM    1  N   UNL     1      26.643  45.545  51.246  1.00  0.00    -0.267 N 
HETATM    2  C   UNL     1      27.203  44.298  51.051  1.00  0.00     0.238 C 
HETATM    3  O   UNL     1      26.923  43.569  50.098  1.00  0.00    -0.272 OA
HETATM    4  H   UNL     1      27.085  46.247  51.831  1.00  0.00     0.190 HD
ENDROOT
BRANCH   2   5
HETATM    5  C   UNL     1      28.196  43.884  52.114  1.00  0.00     0.134 C 
BRANCH   5   6
HETATM    6  C   UNL     1      27.852  44.478  53.493  1.00  0.00     0.129 C 
BRANCH   6   7
HETATM    7  N   UNL     1      26.692  43.814  54.076  1.00  0.00    -0.339 N 
HETATM    8  C   UNL     1      25.568  44.503  54.409  1.00  0.00     0.292 C 
HETATM    9  N   UNL     1      24.619  43.706  54.960  1.00  0.00    -0.254 NA
HETATM   10  O   UNL     1      25.386  45.700  54.248  1.00  0.00    -0.254 OA
HETATM   11  H   UNL     1      24.516  42.791  54.546  1.00  0.00     0.128 HD
HETATM   12  H   UNL     1      23.742  44.193  55.103  1.00  0.00     0.128 HD
HETATM   13  H   UNL     1      26.834  42.942  54.568  1.00  0.00     0.164 HD
ENDBRANCH   6   7
BRANCH   6  14
HETATM   14  C   UNL     1      29.005  44.411  54.495  1.00  0.00    -0.013 A 
HETATM   15  C   UNL     1      29.278  45.477  55.376  1.00  0.00     0.042 A 
HETATM   16 CL   UNL     1      28.359  46.943  55.370  1.00  0.00    -0.084 Cl
HETATM   17  C   UNL     1      30.307  45.386  56.321  1.00  0.00     0.024 A 
HETATM   18  C   UNL     1      31.080  44.231  56.412  1.00  0.00     0.002 A 
HETATM   19  C   UNL     1      30.818  43.160  55.564  1.00  0.00     0.001 A 
HETATM   20  C   UNL     1      29.788  43.245  54.622  1.00  0.00     0.011 A 
ENDBRANCH   6  14
ENDBRANCH   5   6
ENDBRANCH   2   5
BRANCH   1  21
HETATM   21  N   UNL     1      25.770  46.029  50.263  1.00  0.00    -0.266 N 
HETATM   22  C   UNL     1      25.001  47.138  50.569  1.00  0.00     0.260 C 
HETATM   23  O   UNL     1      24.892  47.586  51.711  1.00  0.00    -0.269 OA
HETATM   24  H   UNL     1      26.039  45.828  49.301  1.00  0.00     0.190 HD
BRANCH  22  25
HETATM   25  C   UNL     1      24.313  47.758  49.362  1.00  0.00     0.280 C 
BRANCH  25  26
HETATM   26  O   UNL     1      23.835  49.048  49.732  1.00  0.00    -0.342 OA
BRANCH  26  27
HETATM   27  C   UNL     1      22.708  49.461  49.078  1.00  0.00     0.069 A 
HETATM   28  C   UNL     1      21.882  48.635  48.313  1.00  0.00     0.043 A 
HETATM   29  C   UNL     1      20.735  49.157  47.693  1.00  0.00    -0.059 A 
HETATM   30  C   UNL     1      19.821  48.269  46.901  1.00  0.00     0.048 C 
HETATM   31  C   UNL     1      20.415  50.509  47.871  1.00  0.00     0.007 A 
HETATM   32  C   UNL     1      21.231  51.329  48.649  1.00  0.00     0.003 A 
HETATM   33  C   UNL     1      22.370  50.803  49.257  1.00  0.00     0.037 A 
ENDBRANCH  26  27
ENDBRANCH  25  26
ENDBRANCH  22  25
ENDBRANCH   1  21
TORSDOF 8
ENDMDL
MODEL 2
REMARK VINA RESULT:      -9.0      4.499     10.694
REMARK  8 active torsions:
REMARK  status: ('A' for Active; 'I' for Inactive)
REMARK    1  A    between atoms: C_4  and  O_5 
REMARK    2  A    between atoms: O_5  and  C_6 
REMARK    3  A    between atoms: C_6  and  C_7 
REMARK       I    between atoms: C_7  and  N_8 
REMARK    4  A    between atoms: N_8  and  N_9 
REMARK       I    between atoms: N_9  and  C_10 
REMARK    5  A    between atoms: C_10  and  C_11 
REMARK    6  A    between atoms: C_11  and  C_12 
REMARK    7  A    between atoms: C_12  and  N_13 
REMARK    8  A    between atoms: C_12  and  C_17 
REMARK       I    between atoms: N_13  and  C_14 
REMARK       I    between atoms: C_14  and  N_15 
ROOT
HETATM    1  N   UNL     1      22.085  49.346  49.370  1.00  0.00    -0.267 N 
HETATM    2  C   UNL     1      21.668  50.571  49.855  1.00  0.00     0.238 C 
HETATM    3  O   UNL     1      22.205  51.145  50.802  1.00  0.00    -0.272 OA
HETATM    4  H   UNL     1      21.854  49.032  48.432  1.00  0.00     0.190 HD
ENDROOT
BRANCH   2   5
HETATM    5  C   UNL     1      20.478  51.158  49.128  1.00  0.00     0.134 C 
BRANCH   5   6
HETATM    6  C   UNL     1      19.182  50.373  49.403  1.00  0.00     0.129 C 
BRANCH   6   7
HETATM    7  N   UNL     1      19.172  49.834  50.758  1.00  0.00    -0.339 N 
HETATM    8  C   UNL     1      18.600  48.633  51.044  1.00  0.00     0.292 C 
HETATM    9  N   UNL     1      18.675  48.329  52.363  1.00  0.00    -0.254 NA
HETATM   10  O   UNL     1      18.072  47.881  50.240  1.00  0.00    -0.254 OA
HETATM   11  H   UNL     1      19.539  48.571  52.824  1.00  0.00     0.128 HD
HETATM   12  H   UNL     1      18.353  47.388  52.561  1.00  0.00     0.128 HD
HETATM   13  H   UNL     1      19.248  50.479  51.532  1.00  0.00     0.164 HD
ENDBRANCH   6   7
BRANCH   6  14
HETATM   14  C   UNL     1      17.911  51.197  49.198  1.00  0.00    -0.013 A 
HETATM   15  C   UNL     1      16.899  50.780  48.308  1.00  0.00     0.042 A 
HETATM   16 CL   UNL     1      17.031  49.336  47.366  1.00  0.00    -0.084 Cl
HETATM   17  C   UNL     1      15.718  51.518  48.164  1.00  0.00     0.024 A 
HETATM   18  C   UNL     1      15.518  52.679  48.904  1.00  0.00     0.002 A 
HETATM   19  C   UNL     1      16.495  53.101  49.799  1.00  0.00     0.001 A 
HETATM   20  C   UNL     1      17.674  52.365  49.951  1.00  0.00     0.011 A 
ENDBRANCH   6  14
ENDBRANCH   5   6
ENDBRANCH   2   5
BRANCH   1  21
HETATM   21  N   UNL     1      23.227  48.774  49.943  1.00  0.00    -0.266 N 
HETATM   22  C   UNL     1      23.637  47.538  49.475  1.00  0.00     0.260 C 
HETATM   23  O   UNL     1      22.943  46.833  48.742  1.00  0.00    -0.269 OA
HETATM   24  H   UNL     1      23.898  49.432  50.336  1.00  0.00     0.190 HD
BRANCH  22  25
HETATM   25  C   UNL     1      25.029  47.137  49.941  1.00  0.00     0.280 C 
BRANCH  25  26
HETATM   26  O   UNL     1      25.229  47.659  51.252  1.00  0.00    -0.342 OA
BRANCH  26  27
HETATM   27  C   UNL     1      25.831  46.804  52.133  1.00  0.00     0.069 A 
HETATM   28  C   UNL     1      26.378  45.565  51.795  1.00  0.00     0.043 A 
HETATM   29  C   UNL     1      26.990  44.768  52.776  1.00  0.00    -0.059 A 
HETATM   30  C   UNL     1      27.616  43.452  52.414  1.00  0.00     0.048 C 
HETATM   31  C   UNL     1      27.067  45.240  54.092  1.00  0.00     0.007 A 
HETATM   32  C   UNL     1      26.535  46.485  54.426  1.00  0.00     0.003 A 
HETATM   33  C   UNL     1      25.926  47.267  53.446  1.00  0.00     0.037 A 
ENDBRANCH  26  27
ENDBRANCH  25  26
ENDBRANCH  22  25
ENDBRANCH   1  21
TORSDOF 8
ENDMDL
MODEL 3
REMARK VINA RESULT:      -8.9      2.057      2.712
REMARK  8 active torsions:
REMARK  status: ('A' for Active; 'I' for Inactive)
REMARK    1  A    between atoms: C_4  and  O_5 
REMARK    2  A    between atoms: O_5  and  C_6 
REMARK    3  A    between atoms: C_6  and  C_7 
REMARK       I    between atoms: C_7  and  N_8 
REMARK    4  A    between atoms: N_8  and  N_9 
REMARK       I    between atoms: N_9  and  C_10 
REMARK    5  A    between atoms: C_10  and  C_11 
REMARK    6  A    between atoms: C_11  and  C_12 
REMARK    7  A    between atoms: C_12  and  N_13 
REMARK    8  A    between atoms: C_12  and  C_17 
REMARK       I    between atoms: N_13  and  C_14 
REMARK       I    between atoms: C_14  and  N_15 
ROOT
HETATM    1  N   UNL     1      25.710  45.126  53.105  1.00  0.00    -0.267 N 
HETATM    2  C   UNL     1      26.973  44.594  53.279  1.00  0.00     0.238 C 
HETATM    3  O   UNL     1      27.699  44.247  52.347  1.00  0.00    -0.272 OA
HETATM    4  H   UNL     1      25.256  45.680  53.825  1.00  0.00     0.190 HD
ENDROOT
BRANCH   2   5
HETATM    5  C   UNL     1      27.402  44.463  54.724  1.00  0.00     0.134 C 
BRANCH   5   6
HETATM    6  C   UNL     1      28.391  45.568  55.140  1.00  0.00     0.129 C 
BRANCH   6   7
HETATM    7  N   UNL     1      27.693  46.693  55.752  1.00  0.00    -0.339 N 
HETATM    8  C   UNL     1      27.272  47.757  55.017  1.00  0.00     0.292 C 
HETATM    9  N   UNL     1      26.671  48.704  55.778  1.00  0.00    -0.254 NA
HETATM   10  O   UNL     1      27.397  47.888  53.809  1.00  0.00    -0.254 OA
HETATM   11  H   UNL     1      26.072  48.363  56.515  1.00  0.00     0.128 HD
HETATM   12  H   UNL     1      26.257  49.442  55.221  1.00  0.00     0.128 HD
HETATM   13  H   UNL     1      27.837  46.870  56.737  1.00  0.00     0.164 HD
ENDBRANCH   6   7
BRANCH   6  14
HETATM   14  C   UNL     1      29.478  45.088  56.102  1.00  0.00    -0.013 A 
HETATM   15  C   UNL     1      30.395  44.082  55.734  1.00  0.00     0.042 A 
HETATM   16 CL   UNL     1      30.341  43.298  54.193  1.00  0.00    -0.084 Cl
HETATM   17  C   UNL     1      31.415  43.684  56.605  1.00  0.00     0.024 A 
HETATM   18  C   UNL     1      31.548  44.281  57.856  1.00  0.00     0.002 A 
HETATM   19  C   UNL     1      30.664  45.287  58.234  1.00  0.00     0.001 A 
HETATM   20  C   UNL     1      29.647  45.692  57.365  1.00  0.00     0.011 A 
ENDBRANCH   6  14
ENDBRANCH   5   6
ENDBRANCH   2   5
BRANCH   1  21
HETATM   21  N   UNL     1      25.271  45.347  51.793  1.00  0.00    -0.266 N 
HETATM   22  C   UNL     1      25.061  46.655  51.393  1.00  0.00     0.260 C 
HETATM   23  O   UNL     1      25.036  47.603  52.179  1.00  0.00    -0.269 OA
HETATM   24  H   UNL     1      25.529  44.629  51.118  1.00  0.00     0.190 HD
BRANCH  22  25
HETATM   25  C   UNL     1      24.873  46.814  49.892  1.00  0.00     0.280 C 
BRANCH  25  26
HETATM   26  O   UNL     1      23.524  47.201  49.648  1.00  0.00    -0.342 OA
BRANCH  26  27
HETATM   27  C   UNL     1      23.363  48.457  49.133  1.00  0.00     0.069 A 
HETATM   28  C   UNL     1      22.152  49.152  49.088  1.00  0.00     0.043 A 
HETATM   29  C   UNL     1      22.097  50.448  48.551  1.00  0.00    -0.059 A 
HETATM   30  C   UNL     1      20.808  51.217  48.535  1.00  0.00     0.048 C 
HETATM   31  C   UNL     1      23.274  51.046  48.083  1.00  0.00     0.007 A 
HETATM   32  C   UNL     1      24.485  50.358  48.144  1.00  0.00     0.003 A 
HETATM   33  C   UNL     1      24.529  49.070  48.675  1.00  0.00     0.037 A 
ENDBRANCH  26  27
ENDBRANCH  25  26
ENDBRANCH  22  25
ENDBRANCH   1  21
TORSDOF 8
ENDMDL
MODEL 4
REMARK VINA RESULT:      -8.8      3.702     10.348
REMARK  8 active torsions:
REMARK  status: ('A' for Active; 'I' for Inactive)
REMARK    1  A    between atoms: C_4  and  O_5 
REMARK    2  A    between atoms: O_5  and  C_6 
REMARK    3  A    between atoms: C_6  and  C_7 
REMARK       I    between atoms: C_7  and  N_8 
REMARK    4  A    between atoms: N_8  and  N_9 
REMARK       I    between atoms: N_9  and  C_10 
REMARK    5  A    between atoms: C_10  and  C_11 
REMARK    6  A    between atoms: C_11  and  C_12 
REMARK    7  A    between atoms: C_12  and  N_13 
REMARK    8  A    between atoms: C_12  and  C_17 
REMARK       I    between atoms: N_13  and  C_14 
REMARK       I    between atoms: C_14  and  N_15 
ROOT
HETATM    1  N   UNL     1      23.197  48.126  49.935  1.00  0.00    -0.267 N 
HETATM    2  C   UNL     1      23.111  49.102  48.962  1.00  0.00     0.238 C 
HETATM    3  O   UNL     1      23.794  49.102  47.937  1.00  0.00    -0.272 OA
HETATM    4  H   UNL     1      22.446  47.961  50.599  1.00  0.00     0.190 HD
ENDROOT
BRANCH   2   5
HETATM    5  C   UNL     1      22.103  50.192  49.256  1.00  0.00     0.134 C 
BRANCH   5   6
HETATM    6  C   UNL     1      20.653  49.679  49.181  1.00  0.00     0.129 C 
BRANCH   6   7
HETATM    7  N   UNL     1      20.065  49.571  50.510  1.00  0.00    -0.339 N 
HETATM    8  C   UNL     1      19.008  48.751  50.759  1.00  0.00     0.292 C 
HETATM    9  N   UNL     1      18.597  48.817  52.049  1.00  0.00    -0.254 NA
HETATM   10  O   UNL     1      18.461  48.020  49.947  1.00  0.00    -0.254 OA
HETATM   11  H   UNL     1      19.327  48.882  52.743  1.00  0.00     0.128 HD
HETATM   12  H   UNL     1      17.887  48.126  52.264  1.00  0.00     0.128 HD
HETATM   13  H   UNL     1      20.180  50.343  51.152  1.00  0.00     0.164 HD
ENDBRANCH   6   7
BRANCH   6  14
HETATM   14  C   UNL     1      19.740  50.546  48.314  1.00  0.00    -0.013 A 
HETATM   15  C   UNL     1      19.142  50.042  47.140  1.00  0.00     0.042 A 
HETATM   16 CL   UNL     1      19.420  48.431  46.578  1.00  0.00    -0.084 Cl
HETATM   17  C   UNL     1      18.271  50.831  46.380  1.00  0.00     0.024 A 
HETATM   18  C   UNL     1      17.971  52.132  46.775  1.00  0.00     0.002 A 
HETATM   19  C   UNL     1      18.536  52.645  47.938  1.00  0.00     0.001 A 
HETATM   20  C   UNL     1      19.403  51.859  48.703  1.00  0.00     0.011 A 
ENDBRANCH   6  14
ENDBRANCH   5   6
ENDBRANCH   2   5
BRANCH   1  21
HETATM   21  N   UNL     1      24.054  47.044  49.699  1.00  0.00    -0.266 N 
HETATM   22  C   UNL     1      25.194  46.940  50.477  1.00  0.00     0.260 C 
HETATM   23  O   UNL     1      25.594  47.846  51.208  1.00  0.00    -0.269 OA
HETATM   24  H   UNL     1      23.615  46.215  49.302  1.00  0.00     0.190 HD
BRANCH  22  25
HETATM   25  C   UNL     1      25.900  45.597  50.352  1.00  0.00     0.280 C 
BRANCH  25  26
HETATM   26  O   UNL     1      25.590  44.820  51.505  1.00  0.00    -0.342 OA
BRANCH  26  27
HETATM   27  C   UNL     1      26.622  44.650  52.386  1.00  0.00     0.069 A 
HETATM   28  C   UNL     1      27.743  43.849  52.156  1.00  0.00     0.043 A 
HETATM   29  C   UNL     1      28.757  43.754  53.123  1.00  0.00    -0.059 A 
HETATM   30  C   UNL     1      29.984  42.927  52.868  1.00  0.00     0.048 C 
HETATM   31  C   UNL     1      28.644  44.491  54.308  1.00  0.00     0.007 A 
HETATM   32  C   UNL     1      27.533  45.303  54.530  1.00  0.00     0.003 A 
HETATM   33  C   UNL     1      26.529  45.387  53.566  1.00  0.00     0.037 A 
ENDBRANCH  26  27
ENDBRANCH  25  26
ENDBRANCH  22  25
ENDBRANCH   1  21
TORSDOF 8
ENDMDL
MODEL 5
REMARK VINA RESULT:      -8.8      2.024      2.765
REMARK  8 active torsions:
REMARK  status: ('A' for Active; 'I' for Inactive)
REMARK    1  A    between atoms: C_4  and  O_5 
REMARK    2  A    between atoms: O_5  and  C_6 
REMARK    3  A    between atoms: C_6  and  C_7 
REMARK       I    between atoms: C_7  and  N_8 
REMARK    4  A    between atoms: N_8  and  N_9 
REMARK       I    between atoms: N_9  and  C_10 
REMARK    5  A    between atoms: C_10  and  C_11 
REMARK    6  A    between atoms: C_11  and  C_12 
REMARK    7  A    between atoms: C_12  and  N_13 
REMARK    8  A    between atoms: C_12  and  C_17 
REMARK       I    between atoms: N_13  and  C_14 
REMARK       I    between atoms: C_14  and  N_15 
ROOT
HETATM    1  N   UNL     1      24.779  45.815  51.601  1.00  0.00    -0.267 N 
HETATM    2  C   UNL     1      24.690  44.573  52.200  1.00  0.00     0.238 C 
HETATM    3  O   UNL     1      24.045  43.636  51.728  1.00  0.00    -0.272 OA
HETATM    4  H   UNL     1      25.532  46.462  51.815  1.00  0.00     0.190 HD
ENDROOT
BRANCH   2   5
HETATM    5  C   UNL     1      25.451  44.451  53.502  1.00  0.00     0.134 C 
BRANCH   5   6
HETATM    6  C   UNL     1      26.750  45.279  53.497  1.00  0.00     0.129 C 
BRANCH   6   7
HETATM    7  N   UNL     1      26.748  46.265  54.570  1.00  0.00    -0.339 N 
HETATM    8  C   UNL     1      26.105  47.458  54.442  1.00  0.00     0.292 C 
HETATM    9  N   UNL     1      26.247  48.240  55.540  1.00  0.00    -0.254 NA
HETATM   10  O   UNL     1      25.461  47.825  53.471  1.00  0.00    -0.254 OA
HETATM   11  H   UNL     1      26.204  47.765  56.429  1.00  0.00     0.128 HD
HETATM   12  H   UNL     1      25.678  49.077  55.494  1.00  0.00     0.128 HD
HETATM   13  H   UNL     1      27.499  46.243  55.245  1.00  0.00     0.164 HD
ENDBRANCH   6   7
BRANCH   6  14
HETATM   14  C   UNL     1      28.017  44.432  53.617  1.00  0.00    -0.013 A 
HETATM   15  C   UNL     1      28.552  43.745  52.507  1.00  0.00     0.042 A 
HETATM   16 CL   UNL     1      27.805  43.781  50.947  1.00  0.00    -0.084 Cl
HETATM   17  C   UNL     1      29.739  43.011  52.617  1.00  0.00     0.024 A 
HETATM   18  C   UNL     1      30.419  42.951  53.830  1.00  0.00     0.002 A 
HETATM   19  C   UNL     1      29.920  43.633  54.934  1.00  0.00     0.001 A 
HETATM   20  C   UNL     1      28.737  44.372  54.827  1.00  0.00     0.011 A 
ENDBRANCH   6  14
ENDBRANCH   5   6
ENDBRANCH   2   5
BRANCH   1  21
HETATM   21  N   UNL     1      24.163  45.983  50.355  1.00  0.00    -0.266 N 
HETATM   22  C   UNL     1      24.034  47.271  49.864  1.00  0.00     0.260 C 
HETATM   23  O   UNL     1      24.239  48.274  50.548  1.00  0.00    -0.269 OA
HETATM   24  H   UNL     1      24.228  45.187  49.722  1.00  0.00     0.190 HD
BRANCH  22  25
HETATM   25  C   UNL     1      23.625  47.330  48.400  1.00  0.00     0.280 C 
BRANCH  25  26
HETATM   26  O   UNL     1      23.443  48.697  48.042  1.00  0.00    -0.342 OA
BRANCH  26  27
HETATM   27  C   UNL     1      22.141  49.105  47.946  1.00  0.00     0.069 A 
HETATM   28  C   UNL     1      21.678  50.378  48.287  1.00  0.00     0.043 A 
HETATM   29  C   UNL     1      20.320  50.702  48.137  1.00  0.00    -0.059 A 
HETATM   30  C   UNL     1      19.820  52.079  48.464  1.00  0.00     0.048 C 
HETATM   31  C   UNL     1      19.440  49.744  47.618  1.00  0.00     0.007 A 
HETATM   32  C   UNL     1      19.907  48.479  47.262  1.00  0.00     0.003 A 
HETATM   33  C   UNL     1      21.256  48.165  47.419  1.00  0.00     0.037 A 
ENDBRANCH  26  27
ENDBRANCH  25  26
ENDBRANCH  22  25
ENDBRANCH   1  21
TORSDOF 8
ENDMDL
MODEL 6
REMARK VINA RESULT:      -8.7      5.982      9.990
REMARK  8 active torsions:
REMARK  status: ('A' for Active; 'I' for Inactive)
REMARK    1  A    between atoms: C_4  and  O_5 
REMARK    2  A    between atoms: O_5  and  C_6 
REMARK    3  A    between atoms: C_6  and  C_7 
REMARK       I    between atoms: C_7  and  N_8 
REMARK    4  A    between atoms: N_8  and  N_9 
REMARK       I    between atoms: N_9  and  C_10 
REMARK    5  A    between atoms: C_10  and  C_11 
REMARK    6  A    between atoms: C_11  and  C_12 
REMARK    7  A    between atoms: C_12  and  N_13 
REMARK    8  A    between atoms: C_12  and  C_17 
REMARK       I    between atoms: N_13  and  C_14 
REMARK       I    between atoms: C_14  and  N_15 
ROOT
HETATM    1  N   UNL     1      26.602  41.011  51.827  1.00  0.00    -0.267 N 
HETATM    2  C   UNL     1      27.556  40.535  50.948  1.00  0.00     0.238 C 
HETATM    3  O   UNL     1      28.749  40.830  51.015  1.00  0.00    -0.272 OA
HETATM    4  H   UNL     1      25.711  40.541  51.959  1.00  0.00     0.190 HD
ENDROOT
BRANCH   2   5
HETATM    5  C   UNL     1      27.014  39.616  49.876  1.00  0.00     0.134 C 
BRANCH   5   6
HETATM    6  C   UNL     1      28.098  38.680  49.309  1.00  0.00     0.129 C 
BRANCH   6   7
HETATM    7  N   UNL     1      28.281  37.511  50.161  1.00  0.00    -0.339 N 
HETATM    8  C   UNL     1      29.481  37.228  50.737  1.00  0.00     0.292 C 
HETATM    9  N   UNL     1      29.445  36.087  51.467  1.00  0.00    -0.254 NA
HETATM   10  O   UNL     1      30.499  37.896  50.638  1.00  0.00    -0.254 OA
HETATM   11  H   UNL     1      28.606  35.933  52.006  1.00  0.00     0.128 HD
HETATM   12  H   UNL     1      30.301  35.934  51.987  1.00  0.00     0.128 HD
HETATM   13  H   UNL     1      27.656  36.726  50.040  1.00  0.00     0.164 HD
ENDBRANCH   6   7
BRANCH   6  14
HETATM   14  C   UNL     1      27.814  38.204  47.884  1.00  0.00    -0.013 A 
HETATM   15  C   UNL     1      27.943  39.070  46.779  1.00  0.00     0.042 A 
HETATM   16 CL   UNL     1      28.396  40.730  46.950  1.00  0.00    -0.084 Cl
HETATM   17  C   UNL     1      27.725  38.611  45.474  1.00  0.00     0.024 A 
HETATM   18  C   UNL     1      27.382  37.282  45.243  1.00  0.00     0.002 A 
HETATM   19  C   UNL     1      27.265  36.405  46.317  1.00  0.00     0.001 A 
HETATM   20  C   UNL     1      27.486  36.858  47.621  1.00  0.00     0.011 A 
ENDBRANCH   6  14
ENDBRANCH   5   6
ENDBRANCH   2   5
BRANCH   1  21
HETATM   21  N   UNL     1      27.038  41.809  52.892  1.00  0.00    -0.266 N 
HETATM   22  C   UNL     1      26.939  43.182  52.755  1.00  0.00     0.260 C 
HETATM   23  O   UNL     1      26.688  43.734  51.684  1.00  0.00    -0.269 OA
HETATM   24  H   UNL     1      27.002  41.371  53.811  1.00  0.00     0.190 HD
BRANCH  22  25
HETATM   25  C   UNL     1      27.158  43.944  54.054  1.00  0.00     0.280 C 
BRANCH  25  26
HETATM   26  O   UNL     1      28.330  44.742  53.912  1.00  0.00    -0.342 OA
BRANCH  26  27
HETATM   27  C   UNL     1      29.264  44.586  54.899  1.00  0.00     0.069 A 
HETATM   28  C   UNL     1      29.419  45.441  55.992  1.00  0.00     0.043 A 
HETATM   29  C   UNL     1      30.401  45.182  56.962  1.00  0.00    -0.059 A 
HETATM   30  C   UNL     1      30.549  46.073  58.160  1.00  0.00     0.048 C 
HETATM   31  C   UNL     1      31.207  44.044  56.833  1.00  0.00     0.007 A 
HETATM   32  C   UNL     1      31.040  43.182  55.750  1.00  0.00     0.003 A 
HETATM   33  C   UNL     1      30.065  43.450  54.790  1.00  0.00     0.037 A 
ENDBRANCH  26  27
ENDBRANCH  25  26
ENDBRANCH  22  25
ENDBRANCH   1  21
TORSDOF 8
ENDMDL
MODEL 7
REMARK VINA RESULT:      -8.6      3.222      9.692
REMARK  8 active torsions:
REMARK  status: ('A' for Active; 'I' for Inactive)
REMARK    1  A    between atoms: C_4  and  O_5 
REMARK    2  A    between atoms: O_5  and  C_6 
REMARK    3  A    between atoms: C_6  and  C_7 
REMARK       I    between atoms: C_7  and  N_8 
REMARK    4  A    between atoms: N_8  and  N_9 
REMARK       I    between atoms: N_9  and  C_10 
REMARK    5  A    between atoms: C_10  and  C_11 
REMARK    6  A    between atoms: C_11  and  C_12 
REMARK    7  A    between atoms: C_12  and  N_13 
REMARK    8  A    between atoms: C_12  and  C_17 
REMARK       I    between atoms: N_13  and  C_14 
REMARK       I    between atoms: C_14  and  N_15 
ROOT
HETATM    1  N   UNL     1      22.600  46.461  49.136  1.00  0.00    -0.267 N 
HETATM    2  C   UNL     1      21.329  46.430  48.595  1.00  0.00     0.238 C 
HETATM    3  O   UNL     1      20.581  45.455  48.673  1.00  0.00    -0.272 OA
HETATM    4  H   UNL     1      23.077  47.335  49.337  1.00  0.00     0.190 HD
ENDROOT
BRANCH   2   5
HETATM    5  C   UNL     1      20.922  47.701  47.882  1.00  0.00     0.134 C 
BRANCH   5   6
HETATM    6  C   UNL     1      21.446  48.962  48.594  1.00  0.00     0.129 C 
BRANCH   6   7
HETATM    7  N   UNL     1      22.539  49.571  47.846  1.00  0.00    -0.339 N 
HETATM    8  C   UNL     1      23.809  49.601  48.335  1.00  0.00     0.292 C 
HETATM    9  N   UNL     1      24.667  50.234  47.499  1.00  0.00    -0.254 NA
HETATM   10  O   UNL     1      24.180  49.124  49.397  1.00  0.00    -0.254 OA
HETATM   11  H   UNL     1      24.536  50.057  46.514  1.00  0.00     0.128 HD
HETATM   12  H   UNL     1      25.631  50.158  47.805  1.00  0.00     0.128 HD
HETATM   13  H   UNL     1      22.317  50.279  47.161  1.00  0.00     0.164 HD
ENDBRANCH   6   7
BRANCH   6  14
HETATM   14  C   UNL     1      20.371  50.022  48.835  1.00  0.00    -0.013 A 
HETATM   15  C   UNL     1      19.268  49.774  49.679  1.00  0.00     0.042 A 
HETATM   16 CL   UNL     1      19.031  48.255  50.472  1.00  0.00    -0.084 Cl
HETATM   17  C   UNL     1      18.315  50.768  49.929  1.00  0.00     0.024 A 
HETATM   18  C   UNL     1      18.443  52.028  49.352  1.00  0.00     0.002 A 
HETATM   19  C   UNL     1      19.531  52.301  48.529  1.00  0.00     0.001 A 
HETATM   20  C   UNL     1      20.488  51.312  48.280  1.00  0.00     0.011 A 
ENDBRANCH   6  14
ENDBRANCH   5   6
ENDBRANCH   2   5
BRANCH   1  21
HETATM   21  N   UNL     1      23.021  45.349  49.875  1.00  0.00    -0.266 N 
HETATM   22  C   UNL     1      24.378  45.199  50.103  1.00  0.00     0.260 C 
HETATM   23  O   UNL     1      25.235  45.864  49.520  1.00  0.00    -0.269 OA
HETATM   24  H   UNL     1      22.337  44.973  50.529  1.00  0.00     0.190 HD
BRANCH  22  25
HETATM   25  C   UNL     1      24.710  44.142  51.146  1.00  0.00     0.280 C 
BRANCH  25  26
HETATM   26  O   UNL     1      24.505  44.708  52.437  1.00  0.00    -0.342 OA
BRANCH  26  27
HETATM   27  C   UNL     1      25.644  44.947  53.155  1.00  0.00     0.069 A 
HETATM   28  C   UNL     1      26.643  44.003  53.404  1.00  0.00     0.043 A 
HETATM   29  C   UNL     1      27.784  44.356  54.142  1.00  0.00    -0.059 A 
HETATM   30  C   UNL     1      28.881  43.359  54.381  1.00  0.00     0.048 C 
HETATM   31  C   UNL     1      27.922  45.671  54.603  1.00  0.00     0.007 A 
HETATM   32  C   UNL     1      26.933  46.617  54.339  1.00  0.00     0.003 A 
HETATM   33  C   UNL     1      25.801  46.256  53.610  1.00  0.00     0.037 A 
ENDBRANCH  26  27
ENDBRANCH  25  26
ENDBRANCH  22  25
ENDBRANCH   1  21
TORSDOF 8
ENDMDL
MODEL 8
REMARK VINA RESULT:      -8.6      1.769      2.927
REMARK  8 active torsions:
REMARK  status: ('A' for Active; 'I' for Inactive)
REMARK    1  A    between atoms: C_4  and  O_5 
REMARK    2  A    between atoms: O_5  and  C_6 
REMARK    3  A    between atoms: C_6  and  C_7 
REMARK       I    between atoms: C_7  and  N_8 
REMARK    4  A    between atoms: N_8  and  N_9 
REMARK       I    between atoms: N_9  and  C_10 
REMARK    5  A    between atoms: C_10  and  C_11 
REMARK    6  A    between atoms: C_11  and  C_12 
REMARK    7  A    between atoms: C_12  and  N_13 
REMARK    8  A    between atoms: C_12  and  C_17 
REMARK       I    between atoms: N_13  and  C_14 
REMARK       I    between atoms: C_14  and  N_15 
ROOT
HETATM    1  N   UNL     1      24.725  46.259  52.028  1.00  0.00    -0.267 N 
HETATM    2  C   UNL     1      25.742  46.300  52.962  1.00  0.00     0.238 C 
HETATM    3  O   UNL     1      26.533  47.238  53.065  1.00  0.00    -0.272 OA
HETATM    4  H   UNL     1      23.914  45.659  52.142  1.00  0.00     0.190 HD
ENDROOT
BRANCH   2   5
HETATM    5  C   UNL     1      25.817  45.084  53.858  1.00  0.00     0.134 C 
BRANCH   5   6
HETATM    6  C   UNL     1      26.882  44.077  53.387  1.00  0.00     0.129 C 
BRANCH   6   7
HETATM    7  N   UNL     1      27.260  44.324  52.000  1.00  0.00    -0.339 N 
HETATM    8  C   UNL     1      26.774  43.563  50.982  1.00  0.00     0.292 C 
HETATM    9  N   UNL     1      27.268  43.939  49.777  1.00  0.00    -0.254 NA
HETATM   10  O   UNL     1      25.981  42.640  51.092  1.00  0.00    -0.254 OA
HETATM   11  H   UNL     1      27.365  44.933  49.630  1.00  0.00     0.128 HD
HETATM   12  H   UNL     1      26.823  43.452  49.008  1.00  0.00     0.128 HD
HETATM   13  H   UNL     1      28.135  44.794  51.817  1.00  0.00     0.164 HD
ENDBRANCH   6   7
BRANCH   6  14
HETATM   14  C   UNL     1      28.149  44.078  54.243  1.00  0.00    -0.013 A 
HETATM   15  C   UNL     1      29.013  42.964  54.281  1.00  0.00     0.042 A 
HETATM   16 CL   UNL     1      28.694  41.513  53.395  1.00  0.00    -0.084 Cl
HETATM   17  C   UNL     1      30.194  42.994  55.032  1.00  0.00     0.024 A 
HETATM   18  C   UNL     1      30.541  44.131  55.754  1.00  0.00     0.002 A 
HETATM   19  C   UNL     1      29.712  45.248  55.719  1.00  0.00     0.001 A 
HETATM   20  C   UNL     1      28.534  45.225  54.966  1.00  0.00     0.011 A 
ENDBRANCH   6  14
ENDBRANCH   5   6
ENDBRANCH   2   5
BRANCH   1  21
HETATM   21  N   UNL     1      24.546  47.383  51.211  1.00  0.00    -0.266 N 
HETATM   22  C   UNL     1      24.720  47.226  49.847  1.00  0.00     0.260 C 
HETATM   23  O   UNL     1      25.222  46.220  49.345  1.00  0.00    -0.269 OA
HETATM   24  H   UNL     1      23.919  48.097  51.579  1.00  0.00     0.190 HD
BRANCH  22  25
HETATM   25  C   UNL     1      24.225  48.408  49.027  1.00  0.00     0.280 C 
BRANCH  25  26
HETATM   26  O   UNL     1      23.243  49.103  49.790  1.00  0.00    -0.342 OA
BRANCH  26  27
HETATM   27  C   UNL     1      22.109  49.443  49.108  1.00  0.00     0.069 A 
HETATM   28  C   UNL     1      21.436  50.660  49.236  1.00  0.00     0.043 A 
HETATM   29  C   UNL     1      20.284  50.917  48.475  1.00  0.00    -0.059 A 
HETATM   30  C   UNL     1      19.577  52.237  48.576  1.00  0.00     0.048 C 
HETATM   31  C   UNL     1      19.832  49.950  47.568  1.00  0.00     0.007 A 
HETATM   32  C   UNL     1      20.514  48.742  47.429  1.00  0.00     0.003 A 
HETATM   33  C   UNL     1      21.654  48.494  48.192  1.00  0.00     0.037 A 
ENDBRANCH  26  27
ENDBRANCH  25  26
ENDBRANCH  22  25
ENDBRANCH   1  21
TORSDOF 8
ENDMDL
MODEL 9
REMARK VINA RESULT:      -8.5      4.506      7.484
REMARK  8 active torsions:
REMARK  status: ('A' for Active; 'I' for Inactive)
REMARK    1  A    between atoms: C_4  and  O_5 
REMARK    2  A    between atoms: O_5  and  C_6 
REMARK    3  A    between atoms: C_6  and  C_7 
REMARK       I    between atoms: C_7  and  N_8 
REMARK    4  A    between atoms: N_8  and  N_9 
REMARK       I    between atoms: N_9  and  C_10 
REMARK    5  A    between atoms: C_10  and  C_11 
REMARK    6  A    between atoms: C_11  and  C_12 
REMARK    7  A    between atoms: C_12  and  N_13 
REMARK    8  A    between atoms: C_12  and  C_17 
REMARK       I    between atoms: N_13  and  C_14 
REMARK       I    between atoms: C_14  and  N_15 
ROOT
HETATM    1  N   UNL     1      26.225  42.760  52.464  1.00  0.00    -0.267 N 
HETATM    2  C   UNL     1      25.588  43.815  53.088  1.00  0.00     0.238 C 
HETATM    3  O   UNL     1      24.649  44.434  52.586  1.00  0.00    -0.272 OA
HETATM    4  H   UNL     1      26.768  42.077  52.983  1.00  0.00     0.190 HD
ENDROOT
BRANCH   2   5
HETATM    5  C   UNL     1      26.142  44.162  54.452  1.00  0.00     0.134 C 
BRANCH   5   6
HETATM    6  C   UNL     1      27.127  45.346  54.396  1.00  0.00     0.129 C 
BRANCH   6   7
HETATM    7  N   UNL     1      26.492  46.578  54.847  1.00  0.00    -0.339 N 
HETATM    8  C   UNL     1      26.019  47.501  53.966  1.00  0.00     0.292 C 
HETATM    9  N   UNL     1      25.491  48.584  54.588  1.00  0.00    -0.254 NA
HETATM   10  O   UNL     1      26.044  47.409  52.748  1.00  0.00    -0.254 OA
HETATM   11  H   UNL     1      24.953  48.396  55.421  1.00  0.00     0.128 HD
HETATM   12  H   UNL     1      25.038  49.218  53.941  1.00  0.00     0.128 HD
HETATM   13  H   UNL     1      26.719  46.927  55.768  1.00  0.00     0.164 HD
ENDBRANCH   6   7
BRANCH   6  14
HETATM   14  C   UNL     1      28.398  45.125  55.216  1.00  0.00    -0.013 A 
HETATM   15  C   UNL     1      29.402  44.231  54.791  1.00  0.00     0.042 A 
HETATM   16 CL   UNL     1      29.261  43.300  53.340  1.00  0.00    -0.084 Cl
HETATM   17  C   UNL     1      30.583  44.072  55.526  1.00  0.00     0.024 A 
HETATM   18  C   UNL     1      30.791  44.803  56.692  1.00  0.00     0.002 A 
HETATM   19  C   UNL     1      29.821  45.702  57.122  1.00  0.00     0.001 A 
HETATM   20  C   UNL     1      28.643  45.868  56.389  1.00  0.00     0.011 A 
ENDBRANCH   6  14
ENDBRANCH   5   6
ENDBRANCH   2   5
BRANCH   1  21
HETATM   21  N   UNL     1      25.720  42.332  51.230  1.00  0.00    -0.266 N 
HETATM   22  C   UNL     1      26.477  42.582  50.099  1.00  0.00     0.260 C 
HETATM   23  O   UNL     1      27.452  43.334  50.095  1.00  0.00    -0.269 OA
HETATM   24  H   UNL     1      25.085  41.536  51.269  1.00  0.00     0.190 HD
BRANCH  22  25
HETATM   25  C   UNL     1      25.997  41.833  48.864  1.00  0.00     0.280 C 
BRANCH  25  26
HETATM   26  O   UNL     1      25.863  40.455  49.200  1.00  0.00    -0.342 OA
BRANCH  26  27
HETATM   27  C   UNL     1      26.973  39.689  48.969  1.00  0.00     0.069 A 
HETATM   28  C   UNL     1      27.858  39.251  49.957  1.00  0.00     0.043 A 
HETATM   29  C   UNL     1      28.962  38.453  49.616  1.00  0.00    -0.059 A 
HETATM   30  C   UNL     1      29.896  37.945  50.675  1.00  0.00     0.048 C 
HETATM   31  C   UNL     1      29.151  38.080  48.279  1.00  0.00     0.007 A 
HETATM   32  C   UNL     1      28.257  38.504  47.297  1.00  0.00     0.003 A 
HETATM   33  C   UNL     1      27.167  39.300  47.644  1.00  0.00     0.037 A 
ENDBRANCH  26  27
ENDBRANCH  25  26
ENDBRANCH  22  25
ENDBRANCH   1  21
TORSDOF 8
ENDMDL
MODEL 10
REMARK VINA RESULT:      -8.4      2.171      2.926
REMARK  8 active torsions:
REMARK  status: ('A' for Active; 'I' for Inactive)
REMARK    1  A    between atoms: C_4  and  O_5 
REMARK    2  A    between atoms: O_5  and  C_6 
REMARK    3  A    between atoms: C_6  and  C_7 
REMARK       I    between atoms: C_7  and  N_8 
REMARK    4  A    between atoms: N_8  and  N_9 
REMARK       I    between atoms: N_9  and  C_10 
REMARK    5  A    between atoms: C_10  and  C_11 
REMARK    6  A    between atoms: C_11  and  C_12 
REMARK    7  A    between atoms: C_12  and  N_13 
REMARK    8  A    between atoms: C_12  and  C_17 
REMARK       I    between atoms: N_13  and  C_14 
REMARK       I    between atoms: C_14  and  N_15 
ROOT
HETATM    1  N   UNL     1      25.982  46.937  50.440  1.00  0.00    -0.267 N 
HETATM    2  C   UNL     1      26.126  45.667  49.915  1.00  0.00     0.238 C 
HETATM    3  O   UNL     1      25.311  45.153  49.149  1.00  0.00    -0.272 OA
HETATM    4  H   UNL     1      26.772  47.460  50.805  1.00  0.00     0.190 HD
ENDROOT
BRANCH   2   5
HETATM    5  C   UNL     1      27.376  44.943  50.363  1.00  0.00     0.134 C 
BRANCH   5   6
HETATM    6  C   UNL     1      27.072  43.841  51.395  1.00  0.00     0.129 C 
BRANCH   6   7
HETATM    7  N   UNL     1      26.894  42.548  50.744  1.00  0.00    -0.339 N 
HETATM    8  C   UNL     1      25.666  41.975  50.620  1.00  0.00     0.292 C 
HETATM    9  N   UNL     1      25.722  40.765  50.011  1.00  0.00    -0.254 NA
HETATM   10  O   UNL     1      24.608  42.457  50.996  1.00  0.00    -0.254 OA
HETATM   11  H   UNL     1      26.367  40.689  49.239  1.00  0.00     0.128 HD
HETATM   12  H   UNL     1      24.802  40.389  49.815  1.00  0.00     0.128 HD
HETATM   13  H   UNL     1      27.679  41.913  50.714  1.00  0.00     0.164 HD
ENDBRANCH   6   7
BRANCH   6  14
HETATM   14  C   UNL     1      28.145  43.699  52.474  1.00  0.00    -0.013 A 
HETATM   15  C   UNL     1      28.076  44.426  53.680  1.00  0.00     0.042 A 
HETATM   16 CL   UNL     1      26.804  45.549  54.015  1.00  0.00    -0.084 Cl
HETATM   17  C   UNL     1      29.039  44.253  54.682  1.00  0.00     0.024 A 
HETATM   18  C   UNL     1      30.084  43.349  54.506  1.00  0.00     0.002 A 
HETATM   19  C   UNL     1      30.162  42.609  53.332  1.00  0.00     0.001 A 
HETATM   20  C   UNL     1      29.200  42.775  52.331  1.00  0.00     0.011 A 
ENDBRANCH   6  14
ENDBRANCH   5   6
ENDBRANCH   2   5
BRANCH   1  21
HETATM   21  N   UNL     1      24.887  47.699  50.013  1.00  0.00    -0.266 N 
HETATM   22  C   UNL     1      25.126  48.737  49.130  1.00  0.00     0.260 C 
HETATM   23  O   UNL     1      26.255  49.151  48.869  1.00  0.00    -0.269 OA
HETATM   24  H   UNL     1      23.988  47.220  50.026  1.00  0.00     0.190 HD
BRANCH  22  25
HETATM   25  C   UNL     1      23.863  49.311  48.504  1.00  0.00     0.280 C 
BRANCH  25  26
HETATM   26  O   UNL     1      23.180  50.075  49.494  1.00  0.00    -0.342 OA
BRANCH  26  27
HETATM   27  C   UNL     1      21.816  49.993  49.455  1.00  0.00     0.069 A 
HETATM   28  C   UNL     1      20.946  51.059  49.692  1.00  0.00     0.043 A 
HETATM   29  C   UNL     1      19.557  50.872  49.611  1.00  0.00    -0.059 A 
HETATM   30  C   UNL     1      18.615  52.021  49.825  1.00  0.00     0.048 C 
HETATM   31  C   UNL     1      19.054  49.611  49.267  1.00  0.00     0.007 A 
HETATM   32  C   UNL     1      19.924  48.551  49.014  1.00  0.00     0.003 A 
HETATM   33  C   UNL     1      21.302  48.745  49.101  1.00  0.00     0.037 A 
ENDBRANCH  26  27
ENDBRANCH  25  26
ENDBRANCH  22  25
ENDBRANCH   1  21
TORSDOF 8
ENDMDL
