MODEL 1
REMARK VINA RESULT:      -9.0      0.000      0.000
REMARK  5 active torsions:
REMARK  status: ('A' for Active; 'I' for Inactive)
REMARK    1  A    between atoms: C_3  and  N_4 
REMARK       I    between atoms: N_4  and  C_5 
REMARK       I    between atoms: C_5  and  N_6 
REMARK    2  A    between atoms: N_6  and  C_7 
REMARK    3  A    between atoms: C_7  and  C_8 
REMARK    4  A    between atoms: C_10  and  O_11 
REMARK    5  A    between atoms: O_11  and  C_12 
ROOT
HETATM    1  N   UNL     1      28.211  44.564  53.343  1.00  0.00    -0.308 N 
HETATM    2  C   UNL     1      26.914  44.095  53.304  1.00  0.00     0.321 C 
HETATM    3  N   UNL     1      26.367  44.277  52.053  1.00  0.00    -0.339 N 
HETATM    4  O   UNL     1      26.313  43.545  54.216  1.00  0.00    -0.247 OA
HETATM    5  H   UNL     1      28.687  44.420  52.467  1.00  0.00     0.170 HD
HETATM    6  H   UNL     1      26.797  44.968  51.457  1.00  0.00     0.164 HD
ENDROOT
BRANCH   3   7
HETATM    7  C   UNL     1      24.987  43.930  51.787  1.00  0.00     0.163 C 
BRANCH   7   8
HETATM    8  C   UNL     1      24.317  44.845  50.795  1.00  0.00    -0.035 A 
HETATM    9  C   UNL     1      24.567  46.221  50.763  1.00  0.00     0.066 A 
HETATM   10  C   UNL     1      23.959  46.989  49.781  1.00  0.00     0.164 A 
HETATM   11  N   UNL     1      23.141  46.492  48.831  1.00  0.00    -0.237 NA
HETATM   12  C   UNL     1      22.931  45.161  48.861  1.00  0.00     0.120 A 
HETATM   13  C   UNL     1      23.487  44.309  49.804  1.00  0.00     0.028 A 
BRANCH  10  14
HETATM   14  O   UNL     1      24.221  48.346  49.808  1.00  0.00    -0.329 OA
BRANCH  14  15
HETATM   15  C   UNL     1      23.501  49.152  48.851  1.00  0.00     0.130 C 
HETATM   16  C   UNL     1      22.739  50.389  49.396  1.00  0.00     0.032 C 
HETATM   17  C   UNL     1      23.208  51.151  48.144  1.00  0.00     0.005 C 
HETATM   18  C   UNL     1      24.380  50.158  48.063  1.00  0.00     0.032 C 
ENDBRANCH  14  15
ENDBRANCH  10  14
ENDBRANCH   7   8
ENDBRANCH   3   7
BRANCH   1  19
HETATM   19  C   UNL     1      29.027  44.626  54.502  1.00  0.00     0.048 A 
HETATM   20  C   UNL     1      30.018  43.625  54.663  1.00  0.00    -0.033 A 
HETATM   21  C   UNL     1      30.220  42.518  53.661  1.00  0.00     0.050 C 
HETATM   22  C   UNL     1      30.831  43.625  55.810  1.00  0.00     0.033 A 
HETATM   23  C   UNL     1      30.679  44.606  56.781  1.00  0.00     0.035 A 
HETATM   24  C   UNL     1      29.741  45.616  56.610  1.00  0.00     0.033 A 
HETATM   25 CL   UNL     1      31.672  44.584  58.186  1.00  0.00    -0.084 Cl
HETATM   26  C   UNL     1      28.929  45.663  55.460  1.00  0.00    -0.033 A 
HETATM   27  C   UNL     1      28.025  46.860  55.332  1.00  0.00     0.050 C 
ENDBRANCH   1  19
TORSDOF 5
ENDMDL
MODEL 2
REMARK VINA RESULT:      -8.7      1.652      2.746
REMARK  5 active torsions:
REMARK  status: ('A' for Active; 'I' for Inactive)
REMARK    1  A    between atoms: C_3  and  N_4 
REMARK       I    between atoms: N_4  and  C_5 
REMARK       I    between atoms: C_5  and  N_6 
REMARK    2  A    between atoms: N_6  and  C_7 
REMARK    3  A    between atoms: C_7  and  C_8 
REMARK    4  A    between atoms: C_10  and  O_11 
REMARK    5  A    between atoms: O_11  and  C_12 
ROOT
HETATM    1  N   UNL     1      27.150  44.641  53.686  1.00  0.00    -0.308 N 
HETATM    2  C   UNL     1      27.055  44.678  52.311  1.00  0.00     0.321 C 
HETATM    3  N   UNL     1      25.759  44.935  51.919  1.00  0.00    -0.339 N 
HETATM    4  O   UNL     1      27.975  44.552  51.515  1.00  0.00    -0.247 OA
HETATM    5  H   UNL     1      26.524  45.298  54.123  1.00  0.00     0.170 HD
HETATM    6  H   UNL     1      25.028  44.748  52.588  1.00  0.00     0.164 HD
ENDROOT
BRANCH   3   7
HETATM    7  C   UNL     1      25.395  44.948  50.517  1.00  0.00     0.163 C 
BRANCH   7   8
HETATM    8  C   UNL     1      25.169  46.332  49.968  1.00  0.00    -0.035 A 
HETATM    9  C   UNL     1      23.897  46.795  49.613  1.00  0.00     0.066 A 
HETATM   10  C   UNL     1      23.761  48.103  49.171  1.00  0.00     0.164 A 
HETATM   11  N   UNL     1      24.782  48.978  49.071  1.00  0.00    -0.237 NA
HETATM   12  C   UNL     1      25.996  48.523  49.441  1.00  0.00     0.120 A 
HETATM   13  C   UNL     1      26.237  47.233  49.889  1.00  0.00     0.028 A 
BRANCH  10  14
HETATM   14  O   UNL     1      22.487  48.504  48.813  1.00  0.00    -0.329 OA
BRANCH  14  15
HETATM   15  C   UNL     1      22.044  49.768  49.350  1.00  0.00     0.130 C 
HETATM   16  C   UNL     1      21.821  50.928  48.343  1.00  0.00     0.032 C 
HETATM   17  C   UNL     1      20.571  51.311  49.156  1.00  0.00     0.005 C 
HETATM   18  C   UNL     1      20.521  49.849  49.636  1.00  0.00     0.032 C 
ENDBRANCH  14  15
ENDBRANCH  10  14
ENDBRANCH   7   8
ENDBRANCH   3   7
BRANCH   1  19
HETATM   19  C   UNL     1      28.316  44.298  54.419  1.00  0.00     0.048 A 
HETATM   20  C   UNL     1      28.890  45.297  55.246  1.00  0.00    -0.033 A 
HETATM   21  C   UNL     1      28.311  46.684  55.361  1.00  0.00     0.050 C 
HETATM   22  C   UNL     1      30.063  45.017  55.968  1.00  0.00     0.033 A 
HETATM   23  C   UNL     1      30.657  43.764  55.887  1.00  0.00     0.035 A 
HETATM   24  C   UNL     1      30.077  42.766  55.116  1.00  0.00     0.033 A 
HETATM   25 CL   UNL     1      32.100  43.441  56.766  1.00  0.00    -0.084 Cl
HETATM   26  C   UNL     1      28.887  43.004  54.400  1.00  0.00    -0.033 A 
HETATM   27  C   UNL     1      28.292  41.820  53.685  1.00  0.00     0.050 C 
ENDBRANCH   1  19
TORSDOF 5
ENDMDL
MODEL 3
REMARK VINA RESULT:      -8.3      2.651      4.320
REMARK  5 active torsions:
REMARK  status: ('A' for Active; 'I' for Inactive)
REMARK    1  A    between atoms: C_3  and  N_4 
REMARK       I    between atoms: N_4  and  C_5 
REMARK       I    between atoms: C_5  and  N_6 
REMARK    2  A    between atoms: N_6  and  C_7 
REMARK    3  A    between atoms: C_7  and  C_8 
REMARK    4  A    between atoms: C_10  and  O_11 
REMARK    5  A    between atoms: O_11  and  C_12 
ROOT
HETATM    1  N   UNL     1      25.363  46.200  52.250  1.00  0.00    -0.308 N 
HETATM    2  C   UNL     1      25.432  47.168  51.270  1.00  0.00     0.321 C 
HETATM    3  N   UNL     1      24.201  47.351  50.678  1.00  0.00    -0.339 N 
HETATM    4  O   UNL     1      26.417  47.827  50.968  1.00  0.00    -0.247 OA
HETATM    5  H   UNL     1      24.477  46.217  52.730  1.00  0.00     0.170 HD
HETATM    6  H   UNL     1      23.529  46.606  50.770  1.00  0.00     0.164 HD
ENDROOT
BRANCH   3   7
HETATM    7  C   UNL     1      24.040  48.265  49.566  1.00  0.00     0.163 C 
BRANCH   7   8
HETATM    8  C   UNL     1      22.716  48.123  48.860  1.00  0.00    -0.035 A 
HETATM    9  C   UNL     1      21.914  49.226  48.550  1.00  0.00     0.066 A 
HETATM   10  C   UNL     1      20.738  49.021  47.845  1.00  0.00     0.164 A 
HETATM   11  N   UNL     1      20.313  47.814  47.417  1.00  0.00    -0.237 NA
HETATM   12  C   UNL     1      21.110  46.766  47.702  1.00  0.00     0.120 A 
HETATM   13  C   UNL     1      22.301  46.865  48.407  1.00  0.00     0.028 A 
BRANCH  10  14
HETATM   14  O   UNL     1      19.971  50.141  47.583  1.00  0.00    -0.329 OA
BRANCH  14  15
HETATM   15  C   UNL     1      19.837  51.087  48.665  1.00  0.00     0.130 C 
HETATM   16  C   UNL     1      19.050  52.392  48.374  1.00  0.00     0.032 C 
HETATM   17  C   UNL     1      18.432  52.258  49.777  1.00  0.00     0.005 C 
HETATM   18  C   UNL     1      18.716  50.749  49.682  1.00  0.00     0.032 C 
ENDBRANCH  14  15
ENDBRANCH  10  14
ENDBRANCH   7   8
ENDBRANCH   3   7
BRANCH   1  19
HETATM   19  C   UNL     1      26.467  45.693  52.983  1.00  0.00     0.048 A 
HETATM   20  C   UNL     1      26.865  46.400  54.146  1.00  0.00    -0.033 A 
HETATM   21  C   UNL     1      26.165  47.650  54.613  1.00  0.00     0.050 C 
HETATM   22  C   UNL     1      27.973  45.955  54.888  1.00  0.00     0.033 A 
HETATM   23  C   UNL     1      28.673  44.821  54.497  1.00  0.00     0.035 A 
HETATM   24  C   UNL     1      28.264  44.098  53.385  1.00  0.00     0.033 A 
HETATM   25 CL   UNL     1      30.036  44.298  55.408  1.00  0.00    -0.084 Cl
HETATM   26  C   UNL     1      27.141  44.499  52.634  1.00  0.00    -0.033 A 
HETATM   27  C   UNL     1      26.726  43.581  51.515  1.00  0.00     0.050 C 
ENDBRANCH   1  19
TORSDOF 5
ENDMDL
MODEL 4
REMARK VINA RESULT:      -8.3      1.767      2.822
REMARK  5 active torsions:
REMARK  status: ('A' for Active; 'I' for Inactive)
REMARK    1  A    between atoms: C_3  and  N_4 
REMARK       I    between atoms: N_4  and  C_5 
REMARK       I    between atoms: C_5  and  N_6 
REMARK    2  A    between atoms: N_6  and  C_7 
REMARK    3  A    between atoms: C_7  and  C_8 
REMARK    4  A    between atoms: C_10  and  O_11 
REMARK    5  A    between atoms: O_11  and  C_12 
ROOT
HETATM    1  N   UNL     1      26.402  43.312  53.018  1.00  0.00    -0.308 N 
HETATM    2  C   UNL     1      26.264  43.624  51.682  1.00  0.00     0.321 C 
HETATM    3  N   UNL     1      25.015  43.265  51.224  1.00  0.00    -0.339 N 
HETATM    4  O   UNL     1      27.092  44.184  50.978  1.00  0.00    -0.247 OA
HETATM    5  H   UNL     1      25.536  43.428  53.521  1.00  0.00     0.170 HD
HETATM    6  H   UNL     1      24.508  42.575  51.757  1.00  0.00     0.164 HD
ENDROOT
BRANCH   3   7
HETATM    7  C   UNL     1      24.660  43.425  49.829  1.00  0.00     0.163 C 
BRANCH   7   8
HETATM    8  C   UNL     1      23.932  44.711  49.538  1.00  0.00    -0.035 A 
HETATM    9  C   UNL     1      24.541  45.962  49.682  1.00  0.00     0.066 A 
HETATM   10  C   UNL     1      23.826  47.099  49.337  1.00  0.00     0.164 A 
HETATM   11  N   UNL     1      22.568  47.081  48.852  1.00  0.00    -0.237 NA
HETATM   12  C   UNL     1      22.005  45.867  48.696  1.00  0.00     0.120 A 
HETATM   13  C   UNL     1      22.634  44.673  49.018  1.00  0.00     0.028 A 
BRANCH  10  14
HETATM   14  O   UNL     1      24.466  48.310  49.518  1.00  0.00    -0.329 OA
BRANCH  14  15
HETATM   15  C   UNL     1      25.757  48.448  48.887  1.00  0.00     0.130 C 
HETATM   16  C   UNL     1      26.212  49.882  48.506  1.00  0.00     0.032 C 
HETATM   17  C   UNL     1      27.624  49.492  48.974  1.00  0.00     0.005 C 
HETATM   18  C   UNL     1      26.959  48.429  49.867  1.00  0.00     0.032 C 
ENDBRANCH  14  15
ENDBRANCH  10  14
ENDBRANCH   7   8
ENDBRANCH   3   7
BRANCH   1  19
HETATM   19  C   UNL     1      27.594  43.453  53.775  1.00  0.00     0.048 A 
HETATM   20  C   UNL     1      27.772  44.657  54.503  1.00  0.00    -0.033 A 
HETATM   21  C   UNL     1      26.756  45.770  54.491  1.00  0.00     0.050 C 
HETATM   22  C   UNL     1      28.951  44.858  55.243  1.00  0.00     0.033 A 
HETATM   23  C   UNL     1      29.936  43.879  55.277  1.00  0.00     0.035 A 
HETATM   24  C   UNL     1      29.750  42.679  54.604  1.00  0.00     0.033 A 
HETATM   25 CL   UNL     1      31.378  44.145  56.176  1.00  0.00    -0.084 Cl
HETATM   26  C   UNL     1      28.569  42.433  53.875  1.00  0.00    -0.033 A 
HETATM   27  C   UNL     1      28.431  41.059  53.276  1.00  0.00     0.050 C 
ENDBRANCH   1  19
TORSDOF 5
ENDMDL
MODEL 5
REMARK VINA RESULT:      -8.2      3.368      4.858
REMARK  5 active torsions:
REMARK  status: ('A' for Active; 'I' for Inactive)
REMARK    1  A    between atoms: C_3  and  N_4 
REMARK       I    between atoms: N_4  and  C_5 
REMARK       I    between atoms: C_5  and  N_6 
REMARK    2  A    between atoms: N_6  and  C_7 
REMARK    3  A    between atoms: C_7  and  C_8 
REMARK    4  A    between atoms: C_10  and  O_11 
REMARK    5  A    between atoms: O_11  and  C_12 
ROOT
HETATM    1  N   UNL     1      28.066  44.685  53.223  1.00  0.00    -0.308 N 
HETATM    2  C   UNL     1      26.749  44.277  53.229  1.00  0.00     0.321 C 
HETATM    3  N   UNL     1      26.121  44.636  52.056  1.00  0.00    -0.339 N 
HETATM    4  O   UNL     1      26.189  43.642  54.112  1.00  0.00    -0.247 OA
HETATM    5  H   UNL     1      28.469  44.633  52.301  1.00  0.00     0.170 HD
HETATM    6  H   UNL     1      26.540  45.378  51.517  1.00  0.00     0.164 HD
ENDROOT
BRANCH   3   7
HETATM    7  C   UNL     1      24.709  44.381  51.860  1.00  0.00     0.163 C 
BRANCH   7   8
HETATM    8  C   UNL     1      24.425  43.393  50.758  1.00  0.00    -0.035 A 
HETATM    9  C   UNL     1      25.390  42.492  50.297  1.00  0.00     0.066 A 
HETATM   10  C   UNL     1      25.035  41.573  49.321  1.00  0.00     0.164 A 
HETATM   11  N   UNL     1      23.800  41.476  48.787  1.00  0.00    -0.237 NA
HETATM   12  C   UNL     1      22.877  42.335  49.261  1.00  0.00     0.120 A 
HETATM   13  C   UNL     1      23.133  43.294  50.229  1.00  0.00     0.028 A 
BRANCH  10  14
HETATM   14  O   UNL     1      26.031  40.719  48.885  1.00  0.00    -0.329 OA
BRANCH  14  15
HETATM   15  C   UNL     1      26.880  41.219  47.829  1.00  0.00     0.130 C 
HETATM   16  C   UNL     1      28.306  40.618  47.720  1.00  0.00     0.032 C 
HETATM   17  C   UNL     1      28.129  40.637  46.191  1.00  0.00     0.005 C 
HETATM   18  C   UNL     1      26.610  40.593  46.436  1.00  0.00     0.032 C 
ENDBRANCH  14  15
ENDBRANCH  10  14
ENDBRANCH   7   8
ENDBRANCH   3   7
BRANCH   1  19
HETATM   19  C   UNL     1      28.967  44.569  54.313  1.00  0.00     0.048 A 
HETATM   20  C   UNL     1      29.857  43.465  54.315  1.00  0.00    -0.033 A 
HETATM   21  C   UNL     1      29.870  42.432  53.218  1.00  0.00     0.050 C 
HETATM   22  C   UNL     1      30.747  43.288  55.389  1.00  0.00     0.033 A 
HETATM   23  C   UNL     1      30.770  44.194  56.441  1.00  0.00     0.035 A 
HETATM   24  C   UNL     1      29.933  45.302  56.426  1.00  0.00     0.033 A 
HETATM   25 CL   UNL     1      31.856  43.956  57.755  1.00  0.00    -0.084 Cl
HETATM   26  C   UNL     1      29.048  45.525  55.353  1.00  0.00    -0.033 A 
HETATM   27  C   UNL     1      28.267  46.812  55.391  1.00  0.00     0.050 C 
ENDBRANCH   1  19
TORSDOF 5
ENDMDL
MODEL 6
REMARK VINA RESULT:      -8.1      4.531     10.159
REMARK  5 active torsions:
REMARK  status: ('A' for Active; 'I' for Inactive)
REMARK    1  A    between atoms: C_3  and  N_4 
REMARK       I    between atoms: N_4  and  C_5 
REMARK       I    between atoms: C_5  and  N_6 
REMARK    2  A    between atoms: N_6  and  C_7 
REMARK    3  A    between atoms: C_7  and  C_8 
REMARK    4  A    between atoms: C_10  and  O_11 
REMARK    5  A    between atoms: O_11  and  C_12 
ROOT
HETATM    1  N   UNL     1      21.614  48.315  49.340  1.00  0.00    -0.308 N 
HETATM    2  C   UNL     1      22.948  48.167  49.026  1.00  0.00     0.321 C 
HETATM    3  N   UNL     1      23.549  47.258  49.869  1.00  0.00    -0.339 N 
HETATM    4  O   UNL     1      23.543  48.712  48.107  1.00  0.00    -0.247 OA
HETATM    5  H   UNL     1      21.206  47.451  49.658  1.00  0.00     0.170 HD
HETATM    6  H   UNL     1      23.093  47.072  50.749  1.00  0.00     0.164 HD
ENDROOT
BRANCH   3   7
HETATM    7  C   UNL     1      24.970  46.991  49.783  1.00  0.00     0.163 C 
BRANCH   7   8
HETATM    8  C   UNL     1      25.382  45.708  50.458  1.00  0.00    -0.035 A 
HETATM    9  C   UNL     1      26.715  45.427  50.775  1.00  0.00     0.066 A 
HETATM   10  C   UNL     1      27.008  44.252  51.451  1.00  0.00     0.164 A 
HETATM   11  N   UNL     1      26.082  43.353  51.841  1.00  0.00    -0.237 NA
HETATM   12  C   UNL     1      24.801  43.651  51.548  1.00  0.00     0.120 A 
HETATM   13  C   UNL     1      24.405  44.795  50.872  1.00  0.00     0.028 A 
BRANCH  10  14
HETATM   14  O   UNL     1      28.342  44.012  51.722  1.00  0.00    -0.329 OA
BRANCH  14  15
HETATM   15  C   UNL     1      28.623  43.273  52.930  1.00  0.00     0.130 C 
HETATM   16  C   UNL     1      30.064  42.724  53.108  1.00  0.00     0.032 C 
HETATM   17  C   UNL     1      29.963  43.117  54.592  1.00  0.00     0.005 C 
HETATM   18  C   UNL     1      28.906  44.155  54.174  1.00  0.00     0.032 C 
ENDBRANCH  14  15
ENDBRANCH  10  14
ENDBRANCH   7   8
ENDBRANCH   3   7
BRANCH   1  19
HETATM   19  C   UNL     1      20.727  49.247  48.739  1.00  0.00     0.048 A 
HETATM   20  C   UNL     1      19.959  48.803  47.633  1.00  0.00    -0.033 A 
HETATM   21  C   UNL     1      20.058  47.402  47.087  1.00  0.00     0.050 C 
HETATM   22  C   UNL     1      19.089  49.698  46.984  1.00  0.00     0.033 A 
HETATM   23  C   UNL     1      18.969  51.009  47.426  1.00  0.00     0.035 A 
HETATM   24  C   UNL     1      19.684  51.438  48.536  1.00  0.00     0.033 A 
HETATM   25 CL   UNL     1      17.911  52.094  46.612  1.00  0.00    -0.084 Cl
HETATM   26  C   UNL     1      20.544  50.562  49.227  1.00  0.00    -0.033 A 
HETATM   27  C   UNL     1      21.184  51.106  50.477  1.00  0.00     0.050 C 
ENDBRANCH   1  19
TORSDOF 5
ENDMDL
MODEL 7
REMARK VINA RESULT:      -8.0      1.652      2.814
REMARK  5 active torsions:
REMARK  status: ('A' for Active; 'I' for Inactive)
REMARK    1  A    between atoms: C_3  and  N_4 
REMARK       I    between atoms: N_4  and  C_5 
REMARK       I    between atoms: C_5  and  N_6 
REMARK    2  A    between atoms: N_6  and  C_7 
REMARK    3  A    between atoms: C_7  and  C_8 
REMARK    4  A    between atoms: C_10  and  O_11 
REMARK    5  A    between atoms: O_11  and  C_12 
ROOT
HETATM    1  N   UNL     1      26.662  45.149  52.107  1.00  0.00    -0.308 N 
HETATM    2  C   UNL     1      25.401  44.610  51.954  1.00  0.00     0.321 C 
HETATM    3  N   UNL     1      24.984  44.709  50.645  1.00  0.00    -0.339 N 
HETATM    4  O   UNL     1      24.733  44.070  52.824  1.00  0.00    -0.247 OA
HETATM    5  H   UNL     1      27.236  44.992  51.294  1.00  0.00     0.170 HD
HETATM    6  H   UNL     1      25.442  45.394  50.064  1.00  0.00     0.164 HD
ENDROOT
BRANCH   3   7
HETATM    7  C   UNL     1      23.658  44.278  50.252  1.00  0.00     0.163 C 
BRANCH   7   8
HETATM    8  C   UNL     1      23.052  45.120  49.160  1.00  0.00    -0.035 A 
HETATM    9  C   UNL     1      23.291  46.495  49.058  1.00  0.00     0.066 A 
HETATM   10  C   UNL     1      22.746  47.191  47.991  1.00  0.00     0.164 A 
HETATM   11  N   UNL     1      22.000  46.625  47.020  1.00  0.00    -0.237 NA
HETATM   12  C   UNL     1      21.800  45.296  47.120  1.00  0.00     0.120 A 
HETATM   13  C   UNL     1      22.296  44.512  48.152  1.00  0.00     0.028 A 
BRANCH  10  14
HETATM   14  O   UNL     1      22.995  48.551  47.948  1.00  0.00    -0.329 OA
BRANCH  14  15
HETATM   15  C   UNL     1      22.047  49.393  48.638  1.00  0.00     0.130 C 
HETATM   16  C   UNL     1      22.518  50.819  49.030  1.00  0.00     0.032 C 
HETATM   17  C   UNL     1      21.120  51.323  48.630  1.00  0.00     0.005 C 
HETATM   18  C   UNL     1      21.014  50.090  47.714  1.00  0.00     0.032 C 
ENDBRANCH  14  15
ENDBRANCH  10  14
ENDBRANCH   7   8
ENDBRANCH   3   7
BRANCH   1  19
HETATM   19  C   UNL     1      27.345  45.304  53.341  1.00  0.00     0.048 A 
HETATM   20  C   UNL     1      26.989  46.410  54.154  1.00  0.00    -0.033 A 
HETATM   21  C   UNL     1      25.933  47.406  53.751  1.00  0.00     0.050 C 
HETATM   22  C   UNL     1      27.658  46.625  55.372  1.00  0.00     0.033 A 
HETATM   23  C   UNL     1      28.657  45.754  55.790  1.00  0.00     0.035 A 
HETATM   24  C   UNL     1      28.980  44.644  55.021  1.00  0.00     0.033 A 
HETATM   25 CL   UNL     1      29.476  46.039  57.276  1.00  0.00    -0.084 Cl
HETATM   26  C   UNL     1      28.311  44.383  53.809  1.00  0.00    -0.033 A 
HETATM   27  C   UNL     1      28.669  43.096  53.115  1.00  0.00     0.050 C 
ENDBRANCH   1  19
TORSDOF 5
ENDMDL
MODEL 8
REMARK VINA RESULT:      -7.9      5.625      7.855
REMARK  5 active torsions:
REMARK  status: ('A' for Active; 'I' for Inactive)
REMARK    1  A    between atoms: C_3  and  N_4 
REMARK       I    between atoms: N_4  and  C_5 
REMARK       I    between atoms: C_5  and  N_6 
REMARK    2  A    between atoms: N_6  and  C_7 
REMARK    3  A    between atoms: C_7  and  C_8 
REMARK    4  A    between atoms: C_10  and  O_11 
REMARK    5  A    between atoms: O_11  and  C_12 
ROOT
HETATM    1  N   UNL     1      22.467  47.818  49.403  1.00  0.00    -0.308 N 
HETATM    2  C   UNL     1      21.745  47.153  48.434  1.00  0.00     0.321 C 
HETATM    3  N   UNL     1      20.501  46.800  48.909  1.00  0.00    -0.339 N 
HETATM    4  O   UNL     1      22.103  46.930  47.287  1.00  0.00    -0.247 OA
HETATM    5  H   UNL     1      21.875  48.392  49.983  1.00  0.00     0.170 HD
HETATM    6  H   UNL     1      20.383  46.760  49.910  1.00  0.00     0.164 HD
ENDROOT
BRANCH   3   7
HETATM    7  C   UNL     1      19.587  46.025  48.096  1.00  0.00     0.163 C 
BRANCH   7   8
HETATM    8  C   UNL     1      18.551  46.862  47.392  1.00  0.00    -0.035 A 
HETATM    9  C   UNL     1      18.386  48.225  47.659  1.00  0.00     0.066 A 
HETATM   10  C   UNL     1      17.453  48.943  46.927  1.00  0.00     0.164 A 
HETATM   11  N   UNL     1      16.690  48.413  45.948  1.00  0.00    -0.237 NA
HETATM   12  C   UNL     1      16.879  47.105  45.687  1.00  0.00     0.120 A 
HETATM   13  C   UNL     1      17.782  46.300  46.367  1.00  0.00     0.028 A 
BRANCH  10  14
HETATM   14  O   UNL     1      17.314  50.281  47.245  1.00  0.00    -0.329 OA
BRANCH  14  15
HETATM   15  C   UNL     1      18.103  50.755  48.356  1.00  0.00     0.130 C 
HETATM   16  C   UNL     1      18.673  52.195  48.259  1.00  0.00     0.032 C 
HETATM   17  C   UNL     1      18.337  52.362  49.752  1.00  0.00     0.005 C 
HETATM   18  C   UNL     1      17.273  51.266  49.564  1.00  0.00     0.032 C 
ENDBRANCH  14  15
ENDBRANCH  10  14
ENDBRANCH   7   8
ENDBRANCH   3   7
BRANCH   1  19
HETATM   19  C   UNL     1      23.820  48.229  49.282  1.00  0.00     0.048 A 
HETATM   20  C   UNL     1      24.815  47.387  49.840  1.00  0.00    -0.033 A 
HETATM   21  C   UNL     1      24.483  46.099  50.548  1.00  0.00     0.050 C 
HETATM   22  C   UNL     1      26.167  47.766  49.773  1.00  0.00     0.033 A 
HETATM   23  C   UNL     1      26.536  48.953  49.153  1.00  0.00     0.035 A 
HETATM   24  C   UNL     1      25.573  49.760  48.564  1.00  0.00     0.033 A 
HETATM   25 CL   UNL     1      28.194  49.409  49.091  1.00  0.00    -0.084 Cl
HETATM   26  C   UNL     1      24.211  49.399  48.589  1.00  0.00    -0.033 A 
HETATM   27  C   UNL     1      23.270  50.294  47.827  1.00  0.00     0.050 C 
ENDBRANCH   1  19
TORSDOF 5
ENDMDL
MODEL 9
REMARK VINA RESULT:      -7.9      4.553     10.204
REMARK  5 active torsions:
REMARK  status: ('A' for Active; 'I' for Inactive)
REMARK    1  A    between atoms: C_3  and  N_4 
REMARK       I    between atoms: N_4  and  C_5 
REMARK       I    between atoms: C_5  and  N_6 
REMARK    2  A    between atoms: N_6  and  C_7 
REMARK    3  A    between atoms: C_7  and  C_8 
REMARK    4  A    between atoms: C_10  and  O_11 
REMARK    5  A    between atoms: O_11  and  C_12 
ROOT
HETATM    1  N   UNL     1      21.559  48.553  49.630  1.00  0.00    -0.308 N 
HETATM    2  C   UNL     1      22.583  47.891  48.984  1.00  0.00     0.321 C 
HETATM    3  N   UNL     1      23.450  47.328  49.894  1.00  0.00    -0.339 N 
HETATM    4  O   UNL     1      22.714  47.760  47.776  1.00  0.00    -0.247 OA
HETATM    5  H   UNL     1      21.294  48.088  50.484  1.00  0.00     0.170 HD
HETATM    6  H   UNL     1      23.445  47.703  50.831  1.00  0.00     0.164 HD
ENDROOT
BRANCH   3   7
HETATM    7  C   UNL     1      24.648  46.644  49.454  1.00  0.00     0.163 C 
BRANCH   7   8
HETATM    8  C   UNL     1      25.096  45.554  50.393  1.00  0.00    -0.035 A 
HETATM    9  C   UNL     1      26.155  45.730  51.290  1.00  0.00     0.066 A 
HETATM   10  C   UNL     1      26.470  44.700  52.164  1.00  0.00     0.164 A 
HETATM   11  N   UNL     1      25.807  43.527  52.220  1.00  0.00    -0.237 NA
HETATM   12  C   UNL     1      24.775  43.383  51.366  1.00  0.00     0.120 A 
HETATM   13  C   UNL     1      24.385  44.350  50.450  1.00  0.00     0.028 A 
BRANCH  10  14
HETATM   14  O   UNL     1      27.537  44.917  53.015  1.00  0.00    -0.329 OA
BRANCH  14  15
HETATM   15  C   UNL     1      28.241  43.740  53.465  1.00  0.00     0.130 C 
HETATM   16  C   UNL     1      29.452  43.268  52.617  1.00  0.00     0.032 C 
HETATM   17  C   UNL     1      30.176  42.954  53.938  1.00  0.00     0.005 C 
HETATM   18  C   UNL     1      29.260  43.996  54.607  1.00  0.00     0.032 C 
ENDBRANCH  14  15
ENDBRANCH  10  14
ENDBRANCH   7   8
ENDBRANCH   3   7
BRANCH   1  19
HETATM   19  C   UNL     1      20.554  49.328  48.997  1.00  0.00     0.048 A 
HETATM   20  C   UNL     1      20.886  50.655  48.621  1.00  0.00    -0.033 A 
HETATM   21  C   UNL     1      22.246  51.252  48.874  1.00  0.00     0.050 C 
HETATM   22  C   UNL     1      19.915  51.473  48.018  1.00  0.00     0.033 A 
HETATM   23  C   UNL     1      18.636  50.988  47.777  1.00  0.00     0.035 A 
HETATM   24  C   UNL     1      18.316  49.677  48.101  1.00  0.00     0.033 A 
HETATM   25 CL   UNL     1      17.455  52.007  47.051  1.00  0.00    -0.084 Cl
HETATM   26  C   UNL     1      19.271  48.820  48.681  1.00  0.00    -0.033 A 
HETATM   27  C   UNL     1      18.845  47.391  48.891  1.00  0.00     0.050 C 
ENDBRANCH   1  19
TORSDOF 5
ENDMDL
MODEL 10
REMARK VINA RESULT:      -7.8      4.370      9.633
REMARK  5 active torsions:
REMARK  status: ('A' for Active; 'I' for Inactive)
REMARK    1  A    between atoms: C_3  and  N_4 
REMARK       I    between atoms: N_4  and  C_5 
REMARK       I    between atoms: C_5  and  N_6 
REMARK    2  A    between atoms: N_6  and  C_7 
REMARK    3  A    between atoms: C_7  and  C_8 
REMARK    4  A    between atoms: C_10  and  O_11 
REMARK    5  A    between atoms: O_11  and  C_12 
ROOT
HETATM    1  N   UNL     1      21.872  48.298  49.648  1.00  0.00    -0.308 N 
HETATM    2  C   UNL     1      22.605  47.449  48.844  1.00  0.00     0.321 C 
HETATM    3  N   UNL     1      23.383  46.607  49.607  1.00  0.00    -0.339 N 
HETATM    4  O   UNL     1      22.563  47.389  47.624  1.00  0.00    -0.247 OA
HETATM    5  H   UNL     1      21.587  47.849  50.504  1.00  0.00     0.170 HD
HETATM    6  H   UNL     1      23.580  46.891  50.554  1.00  0.00     0.164 HD
ENDROOT
BRANCH   3   7
HETATM    7  C   UNL     1      24.299  45.673  48.985  1.00  0.00     0.163 C 
BRANCH   7   8
HETATM    8  C   UNL     1      25.307  45.092  49.942  1.00  0.00    -0.035 A 
HETATM    9  C   UNL     1      25.312  45.410  51.304  1.00  0.00     0.066 A 
HETATM   10  C   UNL     1      26.233  44.787  52.133  1.00  0.00     0.164 A 
HETATM   11  N   UNL     1      27.130  43.872  51.714  1.00  0.00    -0.237 NA
HETATM   12  C   UNL     1      27.096  43.560  50.404  1.00  0.00     0.120 A 
HETATM   13  C   UNL     1      26.219  44.130  49.493  1.00  0.00     0.028 A 
BRANCH  10  14
HETATM   14  O   UNL     1      26.209  45.152  53.467  1.00  0.00    -0.329 OA
BRANCH  14  15
HETATM   15  C   UNL     1      27.367  45.865  53.952  1.00  0.00     0.130 C 
HETATM   16  C   UNL     1      27.114  47.092  54.868  1.00  0.00     0.032 C 
HETATM   17  C   UNL     1      28.317  46.633  55.710  1.00  0.00     0.005 C 
HETATM   18  C   UNL     1      28.060  45.212  55.176  1.00  0.00     0.032 C 
ENDBRANCH  14  15
ENDBRANCH  10  14
ENDBRANCH   7   8
ENDBRANCH   3   7
BRANCH   1  19
HETATM   19  C   UNL     1      21.049  49.358  49.187  1.00  0.00     0.048 A 
HETATM   20  C   UNL     1      19.651  49.128  49.131  1.00  0.00    -0.033 A 
HETATM   21  C   UNL     1      19.029  47.816  49.534  1.00  0.00     0.050 C 
HETATM   22  C   UNL     1      18.796  50.136  48.651  1.00  0.00     0.033 A 
HETATM   23  C   UNL     1      19.310  51.360  48.244  1.00  0.00     0.035 A 
HETATM   24  C   UNL     1      20.672  51.610  48.338  1.00  0.00     0.033 A 
HETATM   25 CL   UNL     1      18.252  52.579  47.647  1.00  0.00    -0.084 Cl
HETATM   26  C   UNL     1      21.555  50.632  48.838  1.00  0.00    -0.033 A 
HETATM   27  C   UNL     1      22.993  51.051  48.994  1.00  0.00     0.050 C 
ENDBRANCH   1  19
TORSDOF 5
ENDMDL
