MODEL 1
REMARK VINA RESULT:      -8.4      0.000      0.000
REMARK  4 active torsions:
REMARK  status: ('A' for Active; 'I' for Inactive)
REMARK    1  A    between atoms: C_7  and  C_8 
REMARK    2  A    between atoms: C_8  and  N_9 
REMARK    3  A    between atoms: N_15  and  C_17 
REMARK    4  A    between atoms: C_21  and  C_22 
ROOT
HETATM    1  N   UNL     1      25.532  45.568  49.224  1.00  0.00    -0.067 N 
HETATM    2  H   UNL     1      25.614  46.217  48.427  1.00  0.00     0.280 HD
HETATM    3  C   UNL     1      26.937  45.156  49.556  1.00  0.00     0.236 C 
HETATM    4  C   UNL     1      26.945  44.044  50.602  1.00  0.00     0.039 C 
HETATM    5  C   UNL     1      26.094  42.797  50.232  1.00  0.00    -0.013 C 
HETATM    6  C   UNL     1      26.747  41.953  49.107  1.00  0.00     0.245 C 
HETATM    7  N   UNL     1      27.992  41.253  49.596  1.00  0.00    -0.065 N 
HETATM    8  H   UNL     1      28.670  41.944  49.943  1.00  0.00     0.280 HD
HETATM    9  C   UNL     1      27.704  40.302  50.756  1.00  0.00     0.244 C 
HETATM   10  C   UNL     1      27.128  41.081  51.952  1.00  0.00     0.045 C 
HETATM   11  C   UNL     1      25.881  41.870  51.470  1.00  0.00     0.022 C 
HETATM   12  C   UNL     1      24.684  43.294  49.783  1.00  0.00     0.039 C 
HETATM   13  C   UNL     1      24.687  44.423  48.753  1.00  0.00     0.236 C 
ENDROOT
BRANCH   7  14
HETATM   14  C   UNL     1      28.673  40.514  48.479  1.00  0.00     0.188 A 
HETATM   15  C   UNL     1      27.862  39.465  47.770  1.00  0.00     0.035 A 
HETATM   16  C   UNL     1      28.169  40.767  47.087  1.00  0.00     0.035 A 
ENDBRANCH   7  14
BRANCH  10  17
HETATM   17  C   UNL     1      28.108  41.929  52.759  1.00  0.00    -0.052 A 
HETATM   18  C   UNL     1      29.495  41.948  52.533  1.00  0.00     0.007 A 
HETATM   19  C   UNL     1      30.341  42.755  53.303  1.00  0.00     0.001 A 
HETATM   20  C   UNL     1      29.825  43.536  54.330  1.00  0.00     0.000 A 
HETATM   21  C   UNL     1      28.465  43.494  54.608  1.00  0.00     0.001 A 
HETATM   22  C   UNL     1      27.620  42.690  53.840  1.00  0.00     0.007 A 
ENDBRANCH  10  17
BRANCH   1  23
HETATM   23  C   UNL     1      24.853  46.446  50.276  1.00  0.00     0.277 C 
BRANCH  23  24
HETATM   24  C   UNL     1      24.545  47.800  49.755  1.00  0.00     0.011 A 
HETATM   25  C   UNL     1      25.467  48.785  49.302  1.00  0.00     0.060 A 
HETATM   26  C   UNL     1      26.952  48.743  49.288  1.00  0.00     0.073 C 
HETATM   27  N   UNL     1      24.836  49.849  48.803  1.00  0.00    -0.178 NA
HETATM   28  N   UNL     1      23.537  49.619  49.033  1.00  0.00    -0.284 N 
HETATM   29  C   UNL     1      22.552  50.610  48.661  1.00  0.00     0.179 C 
HETATM   30  C   UNL     1      23.304  48.386  49.576  1.00  0.00     0.122 A 
ENDBRANCH  23  24
ENDBRANCH   1  23
TORSDOF 4
ENDMDL
MODEL 2
REMARK VINA RESULT:      -8.2      5.996     12.583
REMARK  4 active torsions:
REMARK  status: ('A' for Active; 'I' for Inactive)
REMARK    1  A    between atoms: C_7  and  C_8 
REMARK    2  A    between atoms: C_8  and  N_9 
REMARK    3  A    between atoms: N_15  and  C_17 
REMARK    4  A    between atoms: C_21  and  C_22 
ROOT
HETATM    1  N   UNL     1      21.486  50.478  48.904  1.00  0.00    -0.067 N 
HETATM    2  H   UNL     1      22.241  50.930  49.443  1.00  0.00     0.280 HD
HETATM    3  C   UNL     1      20.647  51.600  48.367  1.00  0.00     0.236 C 
HETATM    4  C   UNL     1      19.380  51.063  47.705  1.00  0.00     0.039 C 
HETATM    5  C   UNL     1      18.520  50.132  48.605  1.00  0.00    -0.013 C 
HETATM    6  C   UNL     1      17.786  50.913  49.725  1.00  0.00     0.245 C 
HETATM    7  N   UNL     1      16.686  51.780  49.162  1.00  0.00    -0.065 N 
HETATM    8  H   UNL     1      17.076  52.445  48.480  1.00  0.00     0.280 HD
HETATM    9  C   UNL     1      15.628  50.965  48.421  1.00  0.00     0.244 C 
HETATM   10  C   UNL     1      16.265  50.220  47.234  1.00  0.00     0.045 C 
HETATM   11  C   UNL     1      17.448  49.368  47.767  1.00  0.00     0.022 C 
HETATM   12  C   UNL     1      19.466  49.059  49.229  1.00  0.00     0.039 C 
HETATM   13  C   UNL     1      20.742  49.606  49.868  1.00  0.00     0.236 C 
ENDROOT
BRANCH   7  14
HETATM   14  C   UNL     1      16.041  52.606  50.238  1.00  0.00     0.188 A 
HETATM   15  C   UNL     1      15.649  54.010  49.870  1.00  0.00     0.035 A 
HETATM   16  C   UNL     1      14.593  52.958  50.053  1.00  0.00     0.035 A 
ENDBRANCH   7  14
BRANCH  10  17
HETATM   17  C   UNL     1      16.623  51.056  46.008  1.00  0.00    -0.052 A 
HETATM   18  C   UNL     1      16.257  52.403  45.847  1.00  0.00     0.007 A 
HETATM   19  C   UNL     1      16.624  53.118  44.701  1.00  0.00     0.001 A 
HETATM   20  C   UNL     1      17.338  52.498  43.683  1.00  0.00     0.000 A 
HETATM   21  C   UNL     1      17.666  51.153  43.795  1.00  0.00     0.001 A 
HETATM   22  C   UNL     1      17.301  50.439  44.937  1.00  0.00     0.007 A 
ENDBRANCH  10  17
BRANCH   1  23
HETATM   23  C   UNL     1      22.275  49.702  47.849  1.00  0.00     0.277 C 
BRANCH  23  24
HETATM   24  C   UNL     1      23.661  49.412  48.292  1.00  0.00     0.011 A 
HETATM   25  C   UNL     1      24.130  48.251  48.970  1.00  0.00     0.060 A 
HETATM   26  C   UNL     1      23.362  47.075  49.455  1.00  0.00     0.073 C 
HETATM   27  N   UNL     1      25.454  48.280  49.123  1.00  0.00    -0.178 NA
HETATM   28  N   UNL     1      25.829  49.481  48.666  1.00  0.00    -0.284 N 
HETATM   29  C   UNL     1      27.218  49.876  48.730  1.00  0.00     0.179 C 
HETATM   30  C   UNL     1      24.792  50.191  48.127  1.00  0.00     0.122 A 
ENDBRANCH  23  24
ENDBRANCH   1  23
TORSDOF 4
ENDMDL
MODEL 3
REMARK VINA RESULT:      -7.8      7.373     11.906
REMARK  4 active torsions:
REMARK  status: ('A' for Active; 'I' for Inactive)
REMARK    1  A    between atoms: C_7  and  C_8 
REMARK    2  A    between atoms: C_8  and  N_9 
REMARK    3  A    between atoms: N_15  and  C_17 
REMARK    4  A    between atoms: C_21  and  C_22 
ROOT
HETATM    1  N   UNL     1      20.108  51.672  48.149  1.00  0.00    -0.067 N 
HETATM    2  H   UNL     1      20.847  52.283  47.770  1.00  0.00     0.280 HD
HETATM    3  C   UNL     1      19.750  50.733  47.035  1.00  0.00     0.236 C 
HETATM    4  C   UNL     1      18.528  49.893  47.402  1.00  0.00     0.039 C 
HETATM    5  C   UNL     1      17.281  50.713  47.834  1.00  0.00    -0.013 C 
HETATM    6  C   UNL     1      16.613  51.439  46.638  1.00  0.00     0.245 C 
HETATM    7  N   UNL     1      15.940  50.460  45.706  1.00  0.00    -0.065 N 
HETATM    8  H   UNL     1      16.629  49.781  45.354  1.00  0.00     0.280 HD
HETATM    9  C   UNL     1      14.849  49.652  46.404  1.00  0.00     0.244 C 
HETATM   10  C   UNL     1      15.449  48.832  47.560  1.00  0.00     0.045 C 
HETATM   11  C   UNL     1      16.209  49.800  48.506  1.00  0.00     0.022 C 
HETATM   12  C   UNL     1      17.737  51.752  48.906  1.00  0.00     0.039 C 
HETATM   13  C   UNL     1      18.974  52.571  48.538  1.00  0.00     0.236 C 
ENDROOT
BRANCH   7  14
HETATM   14  C   UNL     1      15.377  51.157  44.501  1.00  0.00     0.188 A 
HETATM   15  C   UNL     1      15.891  50.712  43.160  1.00  0.00     0.035 A 
HETATM   16  C   UNL     1      14.499  50.346  43.592  1.00  0.00     0.035 A 
ENDBRANCH   7  14
BRANCH  10  17
HETATM   17  C   UNL     1      16.259  47.596  47.179  1.00  0.00    -0.052 A 
HETATM   18  C   UNL     1      16.402  47.130  45.861  1.00  0.00     0.007 A 
HETATM   19  C   UNL     1      17.167  45.993  45.576  1.00  0.00     0.001 A 
HETATM   20  C   UNL     1      17.780  45.282  46.600  1.00  0.00     0.000 A 
HETATM   21  C   UNL     1      17.610  45.691  47.917  1.00  0.00     0.001 A 
HETATM   22  C   UNL     1      16.848  46.826  48.203  1.00  0.00     0.007 A 
ENDBRANCH  10  17
BRANCH   1  23
HETATM   23  C   UNL     1      20.817  51.021  49.337  1.00  0.00     0.277 C 
BRANCH  23  24
HETATM   24  C   UNL     1      22.074  50.347  48.932  1.00  0.00     0.011 A 
HETATM   25  C   UNL     1      22.266  48.964  48.651  1.00  0.00     0.060 A 
HETATM   26  C   UNL     1      21.292  47.845  48.745  1.00  0.00     0.073 C 
HETATM   27  N   UNL     1      23.502  48.723  48.215  1.00  0.00    -0.178 NA
HETATM   28  N   UNL     1      24.141  49.895  48.322  1.00  0.00    -0.284 N 
HETATM   29  C   UNL     1      25.542  49.988  47.978  1.00  0.00     0.179 C 
HETATM   30  C   UNL     1      23.319  50.913  48.721  1.00  0.00     0.122 A 
ENDBRANCH  23  24
ENDBRANCH   1  23
TORSDOF 4
ENDMDL
MODEL 4
REMARK VINA RESULT:      -7.8      5.039     11.028
REMARK  4 active torsions:
REMARK  status: ('A' for Active; 'I' for Inactive)
REMARK    1  A    between atoms: C_7  and  C_8 
REMARK    2  A    between atoms: C_8  and  N_9 
REMARK    3  A    between atoms: N_15  and  C_17 
REMARK    4  A    between atoms: C_21  and  C_22 
ROOT
HETATM    1  N   UNL     1      21.856  49.498  48.675  1.00  0.00    -0.067 N 
HETATM    2  H   UNL     1      22.656  50.077  48.381  1.00  0.00     0.280 HD
HETATM    3  C   UNL     1      21.027  49.296  47.441  1.00  0.00     0.236 C 
HETATM    4  C   UNL     1      19.706  48.609  47.779  1.00  0.00     0.039 C 
HETATM    5  C   UNL     1      18.867  49.318  48.879  1.00  0.00    -0.013 C 
HETATM    6  C   UNL     1      18.228  50.636  48.371  1.00  0.00     0.245 C 
HETATM    7  N   UNL     1      17.128  50.366  47.373  1.00  0.00    -0.065 N 
HETATM    8  H   UNL     1      17.502  49.837  46.574  1.00  0.00     0.280 HD
HETATM    9  C   UNL     1      16.001  49.524  47.966  1.00  0.00     0.244 C 
HETATM   10  C   UNL     1      16.541  48.156  48.421  1.00  0.00     0.045 C 
HETATM   11  C   UNL     1      17.722  48.394  49.400  1.00  0.00     0.022 C 
HETATM   12  C   UNL     1      19.809  49.608  50.089  1.00  0.00     0.039 C 
HETATM   13  C   UNL     1      21.138  50.275  49.737  1.00  0.00     0.236 C 
ENDROOT
BRANCH   7  14
HETATM   14  C   UNL     1      16.577  51.647  46.813  1.00  0.00     0.188 A 
HETATM   15  C   UNL     1      16.636  51.813  45.320  1.00  0.00     0.035 A 
HETATM   16  C   UNL     1      15.321  51.549  45.995  1.00  0.00     0.035 A 
ENDBRANCH   7  14
BRANCH  10  17
HETATM   17  C   UNL     1      16.857  47.141  47.325  1.00  0.00    -0.052 A 
HETATM   18  C   UNL     1      16.506  47.314  45.975  1.00  0.00     0.007 A 
HETATM   19  C   UNL     1      16.832  46.349  45.015  1.00  0.00     0.001 A 
HETATM   20  C   UNL     1      17.489  45.182  45.386  1.00  0.00     0.000 A 
HETATM   21  C   UNL     1      17.800  44.964  46.722  1.00  0.00     0.001 A 
HETATM   22  C   UNL     1      17.475  45.926  47.680  1.00  0.00     0.007 A 
ENDBRANCH  10  17
BRANCH   1  23
HETATM   23  C   UNL     1      22.554  48.240  49.195  1.00  0.00     0.277 C 
BRANCH  23  24
HETATM   24  C   UNL     1      24.025  48.416  49.279  1.00  0.00     0.011 A 
HETATM   25  C   UNL     1      24.961  47.580  49.952  1.00  0.00     0.060 A 
HETATM   26  C   UNL     1      24.712  46.372  50.780  1.00  0.00     0.073 C 
HETATM   27  N   UNL     1      26.214  47.980  49.734  1.00  0.00    -0.178 NA
HETATM   28  N   UNL     1      26.097  49.118  49.036  1.00  0.00    -0.284 N 
HETATM   29  C   UNL     1      27.280  49.862  48.667  1.00  0.00     0.179 C 
HETATM   30  C   UNL     1      24.802  49.409  48.710  1.00  0.00     0.122 A 
ENDBRANCH  23  24
ENDBRANCH   1  23
TORSDOF 4
ENDMDL
MODEL 5
REMARK VINA RESULT:      -7.8     17.921     21.459
REMARK  4 active torsions:
REMARK  status: ('A' for Active; 'I' for Inactive)
REMARK    1  A    between atoms: C_7  and  C_8 
REMARK    2  A    between atoms: C_8  and  N_9 
REMARK    3  A    between atoms: N_15  and  C_17 
REMARK    4  A    between atoms: C_21  and  C_22 
ROOT
HETATM    1  N   UNL     1      40.250  39.575  65.170  1.00  0.00    -0.067 N 
HETATM    2  H   UNL     1      40.079  38.856  65.889  1.00  0.00     0.280 HD
HETATM    3  C   UNL     1      40.171  40.891  65.889  1.00  0.00     0.236 C 
HETATM    4  C   UNL     1      40.219  42.054  64.901  1.00  0.00     0.039 C 
HETATM    5  C   UNL     1      39.150  41.995  63.774  1.00  0.00    -0.013 C 
HETATM    6  C   UNL     1      37.724  42.299  64.300  1.00  0.00     0.245 C 
HETATM    7  N   UNL     1      37.578  43.751  64.687  1.00  0.00    -0.065 N 
HETATM    8  H   UNL     1      38.269  43.993  65.410  1.00  0.00     0.280 HD
HETATM    9  C   UNL     1      37.830  44.692  63.510  1.00  0.00     0.244 C 
HETATM   10  C   UNL     1      39.264  44.510  62.980  1.00  0.00     0.045 C 
HETATM   11  C   UNL     1      39.473  43.011  62.635  1.00  0.00     0.022 C 
HETATM   12  C   UNL     1      39.198  40.568  63.143  1.00  0.00     0.039 C 
HETATM   13  C   UNL     1      39.173  39.411  64.141  1.00  0.00     0.236 C 
ENDROOT
BRANCH   7  14
HETATM   14  C   UNL     1      36.226  44.020  65.283  1.00  0.00     0.188 A 
HETATM   15  C   UNL     1      36.199  44.488  66.712  1.00  0.00     0.035 A 
HETATM   16  C   UNL     1      35.893  45.450  65.600  1.00  0.00     0.035 A 
ENDBRANCH   7  14
BRANCH  10  17
HETATM   17  C   UNL     1      40.390  45.102  63.824  1.00  0.00    -0.052 A 
HETATM   18  C   UNL     1      40.180  45.962  64.915  1.00  0.00     0.007 A 
HETATM   19  C   UNL     1      41.257  46.465  65.655  1.00  0.00     0.001 A 
HETATM   20  C   UNL     1      42.562  46.143  65.305  1.00  0.00     0.000 A 
HETATM   21  C   UNL     1      42.798  45.337  64.199  1.00  0.00     0.001 A 
HETATM   22  C   UNL     1      41.725  44.835  63.460  1.00  0.00     0.007 A 
ENDBRANCH  10  17
BRANCH   1  23
HETATM   23  C   UNL     1      41.645  39.196  64.672  1.00  0.00     0.277 C 
BRANCH  23  24
HETATM   24  C   UNL     1      41.998  37.798  65.019  1.00  0.00     0.011 A 
HETATM   25  C   UNL     1      43.289  37.199  64.997  1.00  0.00     0.060 A 
HETATM   26  C   UNL     1      44.587  37.784  64.574  1.00  0.00     0.073 C 
HETATM   27  N   UNL     1      43.254  35.953  65.470  1.00  0.00    -0.178 NA
HETATM   28  N   UNL     1      41.956  35.699  65.683  1.00  0.00    -0.284 N 
HETATM   29  C   UNL     1      41.543  34.398  66.155  1.00  0.00     0.179 C 
HETATM   30  C   UNL     1      41.160  36.788  65.456  1.00  0.00     0.122 A 
ENDBRANCH  23  24
ENDBRANCH   1  23
TORSDOF 4
ENDMDL
MODEL 6
REMARK VINA RESULT:      -7.6     17.497     21.009
REMARK  4 active torsions:
REMARK  status: ('A' for Active; 'I' for Inactive)
REMARK    1  A    between atoms: C_7  and  C_8 
REMARK    2  A    between atoms: C_8  and  N_9 
REMARK    3  A    between atoms: N_15  and  C_17 
REMARK    4  A    between atoms: C_21  and  C_22 
ROOT
HETATM    1  N   UNL     1      36.877  44.457  64.732  1.00  0.00    -0.067 N 
HETATM    2  H   UNL     1      36.316  43.642  65.025  1.00  0.00     0.280 HD
HETATM    3  C   UNL     1      37.884  44.668  65.825  1.00  0.00     0.236 C 
HETATM    4  C   UNL     1      38.659  45.965  65.607  1.00  0.00     0.039 C 
HETATM    5  C   UNL     1      37.774  47.232  65.441  1.00  0.00    -0.013 C 
HETATM    6  C   UNL     1      37.119  47.669  66.777  1.00  0.00     0.245 C 
HETATM    7  N   UNL     1      38.143  48.220  67.738  1.00  0.00    -0.065 N 
HETATM    8  H   UNL     1      38.865  47.512  67.927  1.00  0.00     0.280 HD
HETATM    9  C   UNL     1      38.866  49.442  67.176  1.00  0.00     0.244 C 
HETATM   10  C   UNL     1      39.617  49.070  65.885  1.00  0.00     0.045 C 
HETATM   11  C   UNL     1      38.605  48.435  64.894  1.00  0.00     0.022 C 
HETATM   12  C   UNL     1      36.674  46.914  64.381  1.00  0.00     0.039 C 
HETATM   13  C   UNL     1      35.920  45.602  64.595  1.00  0.00     0.236 C 
ENDROOT
BRANCH   7  14
HETATM   14  C   UNL     1      37.519  48.554  69.064  1.00  0.00     0.188 A 
HETATM   15  C   UNL     1      37.969  47.741  70.246  1.00  0.00     0.035 A 
HETATM   16  C   UNL     1      38.413  49.168  70.103  1.00  0.00     0.035 A 
ENDBRANCH   7  14
BRANCH  10  17
HETATM   17  C   UNL     1      40.901  48.259  66.044  1.00  0.00    -0.052 A 
HETATM   18  C   UNL     1      41.489  47.516  65.007  1.00  0.00     0.007 A 
HETATM   19  C   UNL     1      42.673  46.799  65.214  1.00  0.00     0.001 A 
HETATM   20  C   UNL     1      43.278  46.786  66.465  1.00  0.00     0.000 A 
HETATM   21  C   UNL     1      42.687  47.470  67.520  1.00  0.00     0.001 A 
HETATM   22  C   UNL     1      41.506  48.186  67.314  1.00  0.00     0.007 A 
ENDBRANCH  10  17
BRANCH   1  23
HETATM   23  C   UNL     1      37.460  43.975  63.403  1.00  0.00     0.277 C 
BRANCH  23  24
HETATM   24  C   UNL     1      38.369  42.817  63.582  1.00  0.00     0.011 A 
HETATM   25  C   UNL     1      39.792  42.820  63.553  1.00  0.00     0.060 A 
HETATM   26  C   UNL     1      40.722  43.946  63.283  1.00  0.00     0.073 C 
HETATM   27  N   UNL     1      40.286  41.618  63.855  1.00  0.00    -0.178 NA
HETATM   28  N   UNL     1      39.216  40.820  63.960  1.00  0.00    -0.284 N 
HETATM   29  C   UNL     1      39.389  39.412  64.233  1.00  0.00     0.179 C 
HETATM   30  C   UNL     1      38.035  41.498  63.835  1.00  0.00     0.122 A 
ENDBRANCH  23  24
ENDBRANCH   1  23
TORSDOF 4
ENDMDL
MODEL 7
REMARK VINA RESULT:      -7.5      7.575     12.489
REMARK  4 active torsions:
REMARK  status: ('A' for Active; 'I' for Inactive)
REMARK    1  A    between atoms: C_7  and  C_8 
REMARK    2  A    between atoms: C_8  and  N_9 
REMARK    3  A    between atoms: N_15  and  C_17 
REMARK    4  A    between atoms: C_21  and  C_22 
ROOT
HETATM    1  N   UNL     1      19.804  51.627  49.253  1.00  0.00    -0.067 N 
HETATM    2  H   UNL     1      20.491  52.386  49.375  1.00  0.00     0.280 HD
HETATM    3  C   UNL     1      19.666  51.441  47.770  1.00  0.00     0.236 C 
HETATM    4  C   UNL     1      18.533  50.471  47.446  1.00  0.00     0.039 C 
HETATM    5  C   UNL     1      17.159  50.843  48.070  1.00  0.00    -0.013 C 
HETATM    6  C   UNL     1      16.512  52.070  47.377  1.00  0.00     0.245 C 
HETATM    7  N   UNL     1      16.053  51.733  45.979  1.00  0.00    -0.065 N 
HETATM    8  H   UNL     1      16.849  51.403  45.417  1.00  0.00     0.280 HD
HETATM    9  C   UNL     1      15.014  50.614  45.964  1.00  0.00     0.244 C 
HETATM   10  C   UNL     1      15.610  49.327  46.564  1.00  0.00     0.045 C 
HETATM   11  C   UNL     1      16.155  49.652  47.980  1.00  0.00     0.022 C 
HETATM   12  C   UNL     1      17.385  51.140  49.586  1.00  0.00     0.039 C 
HETATM   13  C   UNL     1      18.536  52.094  49.901  1.00  0.00     0.236 C 
ENDROOT
BRANCH   7  14
HETATM   14  C   UNL     1      15.514  52.947  45.277  1.00  0.00     0.188 A 
HETATM   15  C   UNL     1      16.363  53.527  44.180  1.00  0.00     0.035 A 
HETATM   16  C   UNL     1      15.104  52.780  43.842  1.00  0.00     0.035 A 
ENDBRANCH   7  14
BRANCH  10  17
HETATM   17  C   UNL     1      16.599  48.555  45.695  1.00  0.00    -0.052 A 
HETATM   18  C   UNL     1      17.300  47.418  46.129  1.00  0.00     0.007 A 
HETATM   19  C   UNL     1      18.189  46.749  45.280  1.00  0.00     0.001 A 
HETATM   20  C   UNL     1      18.417  47.217  43.991  1.00  0.00     0.000 A 
HETATM   21  C   UNL     1      17.776  48.370  43.556  1.00  0.00     0.001 A 
HETATM   22  C   UNL     1      16.889  49.037  44.402  1.00  0.00     0.007 A 
ENDBRANCH  10  17
BRANCH   1  23
HETATM   23  C   UNL     1      20.483  50.469  49.986  1.00  0.00     0.277 C 
BRANCH  23  24
HETATM   24  C   UNL     1      21.694  49.994  49.274  1.00  0.00     0.011 A 
HETATM   25  C   UNL     1      21.839  48.801  48.510  1.00  0.00     0.060 A 
HETATM   26  C   UNL     1      20.857  47.712  48.278  1.00  0.00     0.073 C 
HETATM   27  N   UNL     1      23.035  48.743  47.924  1.00  0.00    -0.178 NA
HETATM   28  N   UNL     1      23.701  49.809  48.388  1.00  0.00    -0.284 N 
HETATM   29  C   UNL     1      25.073  50.031  47.993  1.00  0.00     0.179 C 
HETATM   30  C   UNL     1      22.929  50.612  49.181  1.00  0.00     0.122 A 
ENDBRANCH  23  24
ENDBRANCH   1  23
TORSDOF 4
ENDMDL
MODEL 8
REMARK VINA RESULT:      -7.4     17.876     20.611
REMARK  4 active torsions:
REMARK  status: ('A' for Active; 'I' for Inactive)
REMARK    1  A    between atoms: C_7  and  C_8 
REMARK    2  A    between atoms: C_8  and  N_9 
REMARK    3  A    between atoms: N_15  and  C_17 
REMARK    4  A    between atoms: C_21  and  C_22 
ROOT
HETATM    1  N   UNL     1      38.771  43.098  65.717  1.00  0.00    -0.067 N 
HETATM    2  H   UNL     1      39.184  42.304  66.230  1.00  0.00     0.280 HD
HETATM    3  C   UNL     1      38.984  44.299  66.592  1.00  0.00     0.236 C 
HETATM    4  C   UNL     1      38.250  45.516  66.033  1.00  0.00     0.039 C 
HETATM    5  C   UNL     1      36.732  45.300  65.779  1.00  0.00    -0.013 C 
HETATM    6  C   UNL     1      35.920  45.224  67.098  1.00  0.00     0.245 C 
HETATM    7  N   UNL     1      35.856  46.568  67.782  1.00  0.00    -0.065 N 
HETATM    8  H   UNL     1      36.806  46.905  67.984  1.00  0.00     0.280 HD
HETATM    9  C   UNL     1      35.191  47.631  66.910  1.00  0.00     0.244 C 
HETATM   10  C   UNL     1      35.989  47.827  65.609  1.00  0.00     0.045 C 
HETATM   11  C   UNL     1      36.135  46.449  64.909  1.00  0.00     0.022 C 
HETATM   12  C   UNL     1      36.565  43.976  64.968  1.00  0.00     0.039 C 
HETATM   13  C   UNL     1      37.322  42.770  65.522  1.00  0.00     0.236 C 
ENDROOT
BRANCH   7  14
HETATM   14  C   UNL     1      35.151  46.470  69.105  1.00  0.00     0.188 A 
HETATM   15  C   UNL     1      36.004  46.594  70.337  1.00  0.00     0.035 A 
HETATM   16  C   UNL     1      35.089  47.717  69.939  1.00  0.00     0.035 A 
ENDBRANCH   7  14
BRANCH  10  17
HETATM   17  C   UNL     1      37.304  48.595  65.716  1.00  0.00    -0.052 A 
HETATM   18  C   UNL     1      37.697  49.316  66.857  1.00  0.00     0.007 A 
HETATM   19  C   UNL     1      38.921  49.994  66.896  1.00  0.00     0.001 A 
HETATM   20  C   UNL     1      39.764  49.989  65.791  1.00  0.00     0.000 A 
HETATM   21  C   UNL     1      39.374  49.327  64.634  1.00  0.00     0.001 A 
HETATM   22  C   UNL     1      38.154  48.651  64.593  1.00  0.00     0.007 A 
ENDBRANCH  10  17
BRANCH   1  23
HETATM   23  C   UNL     1      39.586  43.092  64.423  1.00  0.00     0.277 C 
BRANCH  23  24
HETATM   24  C   UNL     1      39.799  41.718  63.906  1.00  0.00     0.011 A 
HETATM   25  C   UNL     1      40.564  40.676  64.503  1.00  0.00     0.060 A 
HETATM   26  C   UNL     1      41.383  40.707  65.742  1.00  0.00     0.073 C 
HETATM   27  N   UNL     1      40.453  39.538  63.818  1.00  0.00    -0.178 NA
HETATM   28  N   UNL     1      39.731  39.855  62.734  1.00  0.00    -0.284 N 
HETATM   29  C   UNL     1      39.458  38.853  61.730  1.00  0.00     0.179 C 
HETATM   30  C   UNL     1      39.287  41.148  62.754  1.00  0.00     0.122 A 
ENDBRANCH  23  24
ENDBRANCH   1  23
TORSDOF 4
ENDMDL
MODEL 9
REMARK VINA RESULT:      -7.3      7.579     10.996
REMARK  4 active torsions:
REMARK  status: ('A' for Active; 'I' for Inactive)
REMARK    1  A    between atoms: C_7  and  C_8 
REMARK    2  A    between atoms: C_8  and  N_9 
REMARK    3  A    between atoms: N_15  and  C_17 
REMARK    4  A    between atoms: C_21  and  C_22 
ROOT
HETATM    1  N   UNL     1      18.336  46.639  45.419  1.00  0.00    -0.067 N 
HETATM    2  H   UNL     1      18.445  46.382  44.426  1.00  0.00     0.280 HD
HETATM    3  C   UNL     1      18.800  48.063  45.520  1.00  0.00     0.236 C 
HETATM    4  C   UNL     1      18.869  48.509  46.979  1.00  0.00     0.039 C 
HETATM    5  C   UNL     1      19.729  47.598  47.898  1.00  0.00    -0.013 C 
HETATM    6  C   UNL     1      21.247  47.748  47.621  1.00  0.00     0.245 C 
HETATM    7  N   UNL     1      21.759  49.093  48.076  1.00  0.00    -0.065 N 
HETATM    8  H   UNL     1      21.247  49.845  47.596  1.00  0.00     0.280 HD
HETATM    9  C   UNL     1      21.556  49.314  49.573  1.00  0.00     0.244 C 
HETATM   10  C   UNL     1      20.057  49.263  49.921  1.00  0.00     0.045 C 
HETATM   11  C   UNL     1      19.479  47.918  49.405  1.00  0.00     0.022 C 
HETATM   12  C   UNL     1      19.283  46.121  47.662  1.00  0.00     0.039 C 
HETATM   13  C   UNL     1      19.195  45.691  46.198  1.00  0.00     0.236 C 
ENDROOT
BRANCH   7  14
HETATM   14  C   UNL     1      23.208  49.272  47.719  1.00  0.00     0.188 A 
HETATM   15  C   UNL     1      23.729  50.682  47.690  1.00  0.00     0.035 A 
HETATM   16  C   UNL     1      24.123  49.757  48.806  1.00  0.00     0.035 A 
ENDBRANCH   7  14
BRANCH  10  17
HETATM   17  C   UNL     1      19.218  50.475  49.527  1.00  0.00    -0.052 A 
HETATM   18  C   UNL     1      19.711  51.559  48.782  1.00  0.00     0.007 A 
HETATM   19  C   UNL     1      18.887  52.639  48.445  1.00  0.00     0.001 A 
HETATM   20  C   UNL     1      17.564  52.672  48.868  1.00  0.00     0.000 A 
HETATM   21  C   UNL     1      17.066  51.638  49.650  1.00  0.00     0.001 A 
HETATM   22  C   UNL     1      17.888  50.560  49.986  1.00  0.00     0.007 A 
ENDBRANCH  10  17
BRANCH   1  23
HETATM   23  C   UNL     1      16.835  46.434  45.633  1.00  0.00     0.277 C 
BRANCH  23  24
HETATM   24  C   UNL     1      16.030  47.479  44.956  1.00  0.00     0.011 A 
HETATM   25  C   UNL     1      15.313  48.550  45.562  1.00  0.00     0.060 A 
HETATM   26  C   UNL     1      15.137  48.862  47.004  1.00  0.00     0.073 C 
HETATM   27  N   UNL     1      14.785  49.361  44.646  1.00  0.00    -0.178 NA
HETATM   28  N   UNL     1      15.045  48.773  43.471  1.00  0.00    -0.284 N 
HETATM   29  C   UNL     1      14.563  49.364  42.244  1.00  0.00     0.179 C 
HETATM   30  C   UNL     1      15.818  47.652  43.600  1.00  0.00     0.122 A 
ENDBRANCH  23  24
ENDBRANCH   1  23
TORSDOF 4
ENDMDL
MODEL 10
REMARK VINA RESULT:      -7.3     10.831     13.331
REMARK  4 active torsions:
REMARK  status: ('A' for Active; 'I' for Inactive)
REMARK    1  A    between atoms: C_7  and  C_8 
REMARK    2  A    between atoms: C_8  and  N_9 
REMARK    3  A    between atoms: N_15  and  C_17 
REMARK    4  A    between atoms: C_21  and  C_22 
ROOT
HETATM    1  N   UNL     1      29.627  47.333  38.430  1.00  0.00    -0.067 N 
HETATM    2  H   UNL     1      29.886  46.824  37.571  1.00  0.00     0.280 HD
HETATM    3  C   UNL     1      30.386  48.626  38.378  1.00  0.00     0.236 C 
HETATM    4  C   UNL     1      30.238  49.397  39.688  1.00  0.00     0.039 C 
HETATM    5  C   UNL     1      30.629  48.596  40.961  1.00  0.00    -0.013 C 
HETATM    6  C   UNL     1      32.161  48.390  41.078  1.00  0.00     0.245 C 
HETATM    7  N   UNL     1      32.869  49.687  41.388  1.00  0.00    -0.065 N 
HETATM    8  H   UNL     1      32.672  50.379  40.653  1.00  0.00     0.280 HD
HETATM    9  C   UNL     1      32.401  50.302  42.705  1.00  0.00     0.244 C 
HETATM   10  C   UNL     1      30.895  50.617  42.640  1.00  0.00     0.045 C 
HETATM   11  C   UNL     1      30.138  49.317  42.255  1.00  0.00     0.022 C 
HETATM   12  C   UNL     1      29.903  47.215  40.902  1.00  0.00     0.039 C 
HETATM   13  C   UNL     1      30.038  46.463  39.578  1.00  0.00     0.236 C 
ENDROOT
BRANCH   7  14
HETATM   14  C   UNL     1      34.360  49.500  41.407  1.00  0.00     0.188 A 
HETATM   15  C   UNL     1      35.177  50.510  40.649  1.00  0.00     0.035 A 
HETATM   16  C   UNL     1      35.166  50.525  42.151  1.00  0.00     0.035 A 
ENDBRANCH   7  14
BRANCH  10  17
HETATM   17  C   UNL     1      30.480  51.829  41.810  1.00  0.00    -0.052 A 
HETATM   18  C   UNL     1      31.374  52.823  41.378  1.00  0.00     0.007 A 
HETATM   19  C   UNL     1      30.932  53.907  40.611  1.00  0.00     0.001 A 
HETATM   20  C   UNL     1      29.587  54.037  40.285  1.00  0.00     0.000 A 
HETATM   21  C   UNL     1      28.676  53.095  40.745  1.00  0.00     0.001 A 
HETATM   22  C   UNL     1      29.115  52.013  41.509  1.00  0.00     0.007 A 
ENDBRANCH  10  17
BRANCH   1  23
HETATM   23  C   UNL     1      28.112  47.468  38.268  1.00  0.00     0.277 C 
BRANCH  23  24
HETATM   24  C   UNL     1      27.432  46.150  38.278  1.00  0.00     0.011 A 
HETATM   25  C   UNL     1      26.620  45.601  39.310  1.00  0.00     0.060 A 
HETATM   26  C   UNL     1      26.294  46.164  40.646  1.00  0.00     0.073 C 
HETATM   27  N   UNL     1      26.084  44.438  38.939  1.00  0.00    -0.178 NA
HETATM   28  N   UNL     1      26.626  44.172  37.744  1.00  0.00    -0.284 N 
HETATM   29  C   UNL     1      26.302  42.940  37.061  1.00  0.00     0.179 C 
HETATM   30  C   UNL     1      27.422  45.186  37.286  1.00  0.00     0.122 A 
ENDBRANCH  23  24
ENDBRANCH   1  23
TORSDOF 4
ENDMDL
