MODEL 1
REMARK VINA RESULT:      -9.2      0.000      0.000
REMARK  8 active torsions:
REMARK  status: ('A' for Active; 'I' for Inactive)
REMARK    1  A    between atoms: C_7  and  C_8 
REMARK    2  A    between atoms: C_8  and  O_9 
REMARK    3  A    between atoms: O_9  and  C_10 
REMARK    4  A    between atoms: C_13  and  C_14 
REMARK       I    between atoms: C_14  and  N_15 
REMARK    5  A    between atoms: N_15  and  C_16 
REMARK    6  A    between atoms: C_16  and  C_17 
REMARK    7  A    between atoms: C_18  and  C_19 
REMARK    8  A    between atoms: C_19  and  N_20 
ROOT
HETATM    1  C   UNL     1      25.120  45.077  50.222  1.00  0.00     0.251 C 
HETATM    2  N   UNL     1      24.355  46.210  50.410  1.00  0.00    -0.353 N 
HETATM    3  O   UNL     1      25.076  44.401  49.201  1.00  0.00    -0.268 OA
HETATM    4  H   UNL     1      24.562  46.822  51.186  1.00  0.00     0.163 HD
ENDROOT
BRANCH   1   5
HETATM    5  C   UNL     1      26.024  44.688  51.335  1.00  0.00     0.032 A 
HETATM    6  C   UNL     1      25.581  44.648  52.662  1.00  0.00     0.020 A 
HETATM    7  C   UNL     1      26.439  44.192  53.666  1.00  0.00     0.038 A 
HETATM    8  C   UNL     1      27.730  43.757  53.355  1.00  0.00     0.069 A 
HETATM    9  C   UNL     1      28.183  43.825  52.038  1.00  0.00     0.038 A 
HETATM   10  C   UNL     1      27.326  44.277  51.028  1.00  0.00     0.020 A 
BRANCH   8  11
HETATM   11  O   UNL     1      28.449  43.295  54.419  1.00  0.00    -0.347 OA
BRANCH  11  12
HETATM   12  C   UNL     1      29.814  43.711  54.500  1.00  0.00     0.219 C 
BRANCH  12  13
HETATM   13  C   UNL     1      30.020  44.544  55.712  1.00  0.00     0.024 A 
HETATM   14  C   UNL     1      30.840  44.249  56.837  1.00  0.00     0.069 A 
HETATM   15  C   UNL     1      31.676  43.049  57.073  1.00  0.00     0.073 C 
HETATM   16  N   UNL     1      30.790  45.226  57.750  1.00  0.00    -0.133 NA
HETATM   17  O   UNL     1      29.926  46.174  57.239  1.00  0.00    -0.217 OA
HETATM   18  C   UNL     1      29.465  45.765  56.028  1.00  0.00     0.085 A 
HETATM   19  C   UNL     1      28.515  46.667  55.351  1.00  0.00     0.079 C 
ENDBRANCH  12  13
ENDBRANCH  11  12
ENDBRANCH   8  11
ENDBRANCH   1   5
BRANCH   2  20
HETATM   20  C   UNL     1      23.364  46.598  49.438  1.00  0.00     0.162 C 
BRANCH  20  21
HETATM   21  C   UNL     1      23.581  48.008  48.938  1.00  0.00    -0.033 A 
HETATM   22  C   UNL     1      22.565  48.843  48.421  1.00  0.00    -0.025 A 
HETATM   23  C   UNL     1      22.908  50.144  47.990  1.00  0.00     0.009 A 
HETATM   24  C   UNL     1      24.220  50.609  48.067  1.00  0.00     0.001 A 
HETATM   25  C   UNL     1      25.216  49.788  48.578  1.00  0.00     0.001 A 
HETATM   26  C   UNL     1      24.899  48.504  49.012  1.00  0.00     0.009 A 
BRANCH  22  27
HETATM   27  C   UNL     1      21.122  48.424  48.296  1.00  0.00     0.274 C 
BRANCH  27  28
HETATM   28  N   UNL     1      20.339  48.546  49.582  1.00  0.00    -0.067 N 
HETATM   29  H   UNL     1      20.927  48.137  50.321  1.00  0.00     0.280 HD
HETATM   30  C   UNL     1      19.030  47.784  49.549  1.00  0.00     0.235 C 
HETATM   31  C   UNL     1      17.987  48.866  49.386  1.00  0.00     0.029 C 
HETATM   32  C   UNL     1      18.518  49.970  50.275  1.00  0.00     0.029 C 
HETATM   33  C   UNL     1      20.012  49.970  50.000  1.00  0.00     0.235 C 
ENDBRANCH  27  28
ENDBRANCH  22  27
ENDBRANCH  20  21
ENDBRANCH   2  20
TORSDOF 8
ENDMDL
MODEL 2
REMARK VINA RESULT:      -9.2      1.552      2.202
REMARK  8 active torsions:
REMARK  status: ('A' for Active; 'I' for Inactive)
REMARK    1  A    between atoms: C_7  and  C_8 
REMARK    2  A    between atoms: C_8  and  O_9 
REMARK    3  A    between atoms: O_9  and  C_10 
REMARK    4  A    between atoms: C_13  and  C_14 
REMARK       I    between atoms: C_14  and  N_15 
REMARK    5  A    between atoms: N_15  and  C_16 
REMARK    6  A    between atoms: C_16  and  C_17 
REMARK    7  A    between atoms: C_18  and  C_19 
REMARK    8  A    between atoms: C_19  and  N_20 
ROOT
HETATM    1  C   UNL     1      24.663  45.610  50.800  1.00  0.00     0.251 C 
HETATM    2  N   UNL     1      24.178  46.825  50.360  1.00  0.00    -0.353 N 
HETATM    3  O   UNL     1      24.511  44.564  50.180  1.00  0.00    -0.268 OA
HETATM    4  H   UNL     1      24.486  47.672  50.815  1.00  0.00     0.163 HD
ENDROOT
BRANCH   1   5
HETATM    5  C   UNL     1      25.395  45.611  52.093  1.00  0.00     0.032 A 
HETATM    6  C   UNL     1      25.662  44.426  52.788  1.00  0.00     0.020 A 
HETATM    7  C   UNL     1      26.429  44.465  53.956  1.00  0.00     0.038 A 
HETATM    8  C   UNL     1      26.950  45.673  54.425  1.00  0.00     0.069 A 
HETATM    9  C   UNL     1      26.660  46.858  53.749  1.00  0.00     0.038 A 
HETATM   10  C   UNL     1      25.895  46.825  52.578  1.00  0.00     0.020 A 
BRANCH   8  11
HETATM   11  O   UNL     1      27.718  45.567  55.548  1.00  0.00    -0.347 OA
BRANCH  11  12
HETATM   12  C   UNL     1      29.077  45.997  55.439  1.00  0.00     0.219 C 
BRANCH  12  13
HETATM   13  C   UNL     1      29.984  44.957  55.987  1.00  0.00     0.024 A 
HETATM   14  C   UNL     1      30.645  44.961  57.247  1.00  0.00     0.069 A 
HETATM   15  C   UNL     1      30.594  45.997  58.306  1.00  0.00     0.073 C 
HETATM   16  N   UNL     1      31.386  43.860  57.416  1.00  0.00    -0.133 NA
HETATM   17  O   UNL     1      31.230  43.121  56.261  1.00  0.00    -0.217 OA
HETATM   18  C   UNL     1      30.398  43.776  55.409  1.00  0.00     0.085 A 
HETATM   19  C   UNL     1      30.136  43.119  54.115  1.00  0.00     0.079 C 
ENDBRANCH  12  13
ENDBRANCH  11  12
ENDBRANCH   8  11
ENDBRANCH   1   5
BRANCH   2  20
HETATM   20  C   UNL     1      23.355  46.904  49.180  1.00  0.00     0.162 C 
BRANCH  20  21
HETATM   21  C   UNL     1      22.928  48.323  48.880  1.00  0.00    -0.033 A 
HETATM   22  C   UNL     1      21.593  48.734  48.666  1.00  0.00    -0.025 A 
HETATM   23  C   UNL     1      21.335  50.095  48.397  1.00  0.00     0.009 A 
HETATM   24  C   UNL     1      22.369  51.030  48.341  1.00  0.00     0.001 A 
HETATM   25  C   UNL     1      23.679  50.625  48.555  1.00  0.00     0.001 A 
HETATM   26  C   UNL     1      23.955  49.288  48.825  1.00  0.00     0.009 A 
BRANCH  22  27
HETATM   27  C   UNL     1      20.414  47.794  48.703  1.00  0.00     0.274 C 
BRANCH  27  28
HETATM   28  N   UNL     1      19.101  48.450  48.345  1.00  0.00    -0.067 N 
HETATM   29  H   UNL     1      19.298  49.453  48.231  1.00  0.00     0.280 HD
HETATM   30  C   UNL     1      18.052  48.297  49.426  1.00  0.00     0.235 C 
HETATM   31  C   UNL     1      17.115  47.245  48.874  1.00  0.00     0.029 C 
HETATM   32  C   UNL     1      17.042  47.611  47.407  1.00  0.00     0.029 C 
HETATM   33  C   UNL     1      18.475  47.962  47.048  1.00  0.00     0.235 C 
ENDBRANCH  27  28
ENDBRANCH  22  27
ENDBRANCH  20  21
ENDBRANCH   2  20
TORSDOF 8
ENDMDL
MODEL 3
REMARK VINA RESULT:      -8.8      2.103      4.080
REMARK  8 active torsions:
REMARK  status: ('A' for Active; 'I' for Inactive)
REMARK    1  A    between atoms: C_7  and  C_8 
REMARK    2  A    between atoms: C_8  and  O_9 
REMARK    3  A    between atoms: O_9  and  C_10 
REMARK    4  A    between atoms: C_13  and  C_14 
REMARK       I    between atoms: C_14  and  N_15 
REMARK    5  A    between atoms: N_15  and  C_16 
REMARK    6  A    between atoms: C_16  and  C_17 
REMARK    7  A    between atoms: C_18  and  C_19 
REMARK    8  A    between atoms: C_19  and  N_20 
ROOT
HETATM    1  C   UNL     1      23.063  47.977  48.685  1.00  0.00     0.251 C 
HETATM    2  N   UNL     1      21.727  47.665  48.834  1.00  0.00    -0.353 N 
HETATM    3  O   UNL     1      23.471  48.812  47.888  1.00  0.00    -0.268 OA
HETATM    4  H   UNL     1      21.436  47.107  49.624  1.00  0.00     0.163 HD
ENDROOT
BRANCH   1   5
HETATM    5  C   UNL     1      24.022  47.238  49.548  1.00  0.00     0.032 A 
HETATM    6  C   UNL     1      23.839  45.887  49.860  1.00  0.00     0.020 A 
HETATM    7  C   UNL     1      24.810  45.209  50.602  1.00  0.00     0.038 A 
HETATM    8  C   UNL     1      25.973  45.862  51.017  1.00  0.00     0.069 A 
HETATM    9  C   UNL     1      26.143  47.217  50.731  1.00  0.00     0.038 A 
HETATM   10  C   UNL     1      25.175  47.899  49.986  1.00  0.00     0.020 A 
BRANCH   8  11
HETATM   11  O   UNL     1      26.860  45.076  51.693  1.00  0.00    -0.347 OA
BRANCH  11  12
HETATM   12  C   UNL     1      26.498  44.697  53.023  1.00  0.00     0.219 C 
BRANCH  12  13
HETATM   13  C   UNL     1      27.420  45.330  54.000  1.00  0.00     0.024 A 
HETATM   14  C   UNL     1      27.280  46.600  54.626  1.00  0.00     0.069 A 
HETATM   15  C   UNL     1      26.194  47.593  54.453  1.00  0.00     0.073 C 
HETATM   16  N   UNL     1      28.299  46.853  55.454  1.00  0.00    -0.133 NA
HETATM   17  O   UNL     1      29.130  45.754  55.375  1.00  0.00    -0.217 OA
HETATM   18  C   UNL     1      28.608  44.849  54.506  1.00  0.00     0.085 A 
HETATM   19  C   UNL     1      29.388  43.615  54.299  1.00  0.00     0.079 C 
ENDBRANCH  12  13
ENDBRANCH  11  12
ENDBRANCH   8  11
ENDBRANCH   1   5
BRANCH   2  20
HETATM   20  C   UNL     1      20.736  48.241  47.960  1.00  0.00     0.162 C 
BRANCH  20  21
HETATM   21  C   UNL     1      20.045  49.428  48.591  1.00  0.00    -0.033 A 
HETATM   22  C   UNL     1      19.002  49.341  49.541  1.00  0.00    -0.025 A 
HETATM   23  C   UNL     1      18.447  50.535  50.052  1.00  0.00     0.009 A 
HETATM   24  C   UNL     1      18.908  51.783  49.636  1.00  0.00     0.001 A 
HETATM   25  C   UNL     1      19.935  51.867  48.706  1.00  0.00     0.001 A 
HETATM   26  C   UNL     1      20.499  50.702  48.192  1.00  0.00     0.009 A 
BRANCH  22  27
HETATM   27  C   UNL     1      18.438  48.037  50.044  1.00  0.00     0.274 C 
BRANCH  27  28
HETATM   28  N   UNL     1      17.216  47.570  49.287  1.00  0.00    -0.067 N 
HETATM   29  H   UNL     1      16.524  47.290  49.995  1.00  0.00     0.280 HD
HETATM   30  C   UNL     1      17.495  46.372  48.403  1.00  0.00     0.235 C 
HETATM   31  C   UNL     1      17.533  46.953  47.008  1.00  0.00     0.029 C 
HETATM   32  C   UNL     1      16.412  47.971  47.048  1.00  0.00     0.029 C 
HETATM   33  C   UNL     1      16.565  48.626  48.410  1.00  0.00     0.235 C 
ENDBRANCH  27  28
ENDBRANCH  22  27
ENDBRANCH  20  21
ENDBRANCH   2  20
TORSDOF 8
ENDMDL
MODEL 4
REMARK VINA RESULT:      -8.6      2.073      3.923
REMARK  8 active torsions:
REMARK  status: ('A' for Active; 'I' for Inactive)
REMARK    1  A    between atoms: C_7  and  C_8 
REMARK    2  A    between atoms: C_8  and  O_9 
REMARK    3  A    between atoms: O_9  and  C_10 
REMARK    4  A    between atoms: C_13  and  C_14 
REMARK       I    between atoms: C_14  and  N_15 
REMARK    5  A    between atoms: N_15  and  C_16 
REMARK    6  A    between atoms: C_16  and  C_17 
REMARK    7  A    between atoms: C_18  and  C_19 
REMARK    8  A    between atoms: C_19  and  N_20 
ROOT
HETATM    1  C   UNL     1      23.587  47.829  49.647  1.00  0.00     0.251 C 
HETATM    2  N   UNL     1      22.483  47.207  49.100  1.00  0.00    -0.353 N 
HETATM    3  O   UNL     1      23.778  49.037  49.577  1.00  0.00    -0.268 OA
HETATM    4  H   UNL     1      22.289  46.246  49.342  1.00  0.00     0.163 HD
ENDROOT
BRANCH   1   5
HETATM    5  C   UNL     1      24.570  46.957  50.341  1.00  0.00     0.032 A 
HETATM    6  C   UNL     1      25.378  47.439  51.377  1.00  0.00     0.020 A 
HETATM    7  C   UNL     1      26.225  46.563  52.060  1.00  0.00     0.038 A 
HETATM    8  C   UNL     1      26.259  45.206  51.733  1.00  0.00     0.069 A 
HETATM    9  C   UNL     1      25.477  44.730  50.681  1.00  0.00     0.038 A 
HETATM   10  C   UNL     1      24.624  45.602  49.996  1.00  0.00     0.020 A 
BRANCH   8  11
HETATM   11  O   UNL     1      27.095  44.452  52.505  1.00  0.00    -0.347 OA
BRANCH  11  12
HETATM   12  C   UNL     1      26.853  44.466  53.914  1.00  0.00     0.219 C 
BRANCH  12  13
HETATM   13  C   UNL     1      28.099  44.822  54.639  1.00  0.00     0.024 A 
HETATM   14  C   UNL     1      28.398  46.046  55.301  1.00  0.00     0.069 A 
HETATM   15  C   UNL     1      27.548  47.254  55.421  1.00  0.00     0.073 C 
HETATM   16  N   UNL     1      29.616  46.021  55.852  1.00  0.00    -0.133 NA
HETATM   17  O   UNL     1      30.140  44.780  55.549  1.00  0.00    -0.217 OA
HETATM   18  C   UNL     1      29.238  44.068  54.825  1.00  0.00     0.085 A 
HETATM   19  C   UNL     1      29.654  42.716  54.409  1.00  0.00     0.079 C 
ENDBRANCH  12  13
ENDBRANCH  11  12
ENDBRANCH   8  11
ENDBRANCH   1   5
BRANCH   2  20
HETATM   20  C   UNL     1      21.538  47.951  48.307  1.00  0.00     0.162 C 
BRANCH  20  21
HETATM   21  C   UNL     1      20.186  47.276  48.255  1.00  0.00    -0.033 A 
HETATM   22  C   UNL     1      19.008  47.789  48.845  1.00  0.00    -0.025 A 
HETATM   23  C   UNL     1      17.809  47.055  48.717  1.00  0.00     0.009 A 
HETATM   24  C   UNL     1      17.772  45.845  48.025  1.00  0.00     0.001 A 
HETATM   25  C   UNL     1      18.929  45.345  47.444  1.00  0.00     0.001 A 
HETATM   26  C   UNL     1      20.121  46.055  47.555  1.00  0.00     0.009 A 
BRANCH  22  27
HETATM   27  C   UNL     1      18.955  49.085  49.614  1.00  0.00     0.274 C 
BRANCH  27  28
HETATM   28  N   UNL     1      18.212  50.188  48.898  1.00  0.00    -0.067 N 
HETATM   29  H   UNL     1      17.430  49.739  48.404  1.00  0.00     0.280 HD
HETATM   30  C   UNL     1      19.066  50.904  47.873  1.00  0.00     0.235 C 
HETATM   31  C   UNL     1      19.394  52.224  48.534  1.00  0.00     0.029 C 
HETATM   32  C   UNL     1      18.093  52.576  49.223  1.00  0.00     0.029 C 
HETATM   33  C   UNL     1      17.621  51.255  49.805  1.00  0.00     0.235 C 
ENDBRANCH  27  28
ENDBRANCH  22  27
ENDBRANCH  20  21
ENDBRANCH   2  20
TORSDOF 8
ENDMDL
MODEL 5
REMARK VINA RESULT:      -8.6      1.564      2.163
REMARK  8 active torsions:
REMARK  status: ('A' for Active; 'I' for Inactive)
REMARK    1  A    between atoms: C_7  and  C_8 
REMARK    2  A    between atoms: C_8  and  O_9 
REMARK    3  A    between atoms: O_9  and  C_10 
REMARK    4  A    between atoms: C_13  and  C_14 
REMARK       I    between atoms: C_14  and  N_15 
REMARK    5  A    between atoms: N_15  and  C_16 
REMARK    6  A    between atoms: C_16  and  C_17 
REMARK    7  A    between atoms: C_18  and  C_19 
REMARK    8  A    between atoms: C_19  and  N_20 
ROOT
HETATM    1  C   UNL     1      23.505  45.326  49.594  1.00  0.00     0.251 C 
HETATM    2  N   UNL     1      23.296  46.626  49.179  1.00  0.00    -0.353 N 
HETATM    3  O   UNL     1      22.729  44.410  49.343  1.00  0.00    -0.268 OA
HETATM    4  H   UNL     1      24.049  47.294  49.258  1.00  0.00     0.163 HD
ENDROOT
BRANCH   1   5
HETATM    5  C   UNL     1      24.736  45.065  50.383  1.00  0.00     0.032 A 
HETATM    6  C   UNL     1      24.683  44.737  51.742  1.00  0.00     0.020 A 
HETATM    7  C   UNL     1      25.859  44.414  52.424  1.00  0.00     0.038 A 
HETATM    8  C   UNL     1      27.086  44.395  51.757  1.00  0.00     0.069 A 
HETATM    9  C   UNL     1      27.145  44.750  50.409  1.00  0.00     0.038 A 
HETATM   10  C   UNL     1      25.970  45.071  49.721  1.00  0.00     0.020 A 
BRANCH   8  11
HETATM   11  O   UNL     1      28.149  44.020  52.525  1.00  0.00    -0.347 OA
BRANCH  11  12
HETATM   12  C   UNL     1      27.887  43.777  53.909  1.00  0.00     0.219 C 
BRANCH  12  13
HETATM   13  C   UNL     1      28.657  44.730  54.747  1.00  0.00     0.024 A 
HETATM   14  C   UNL     1      29.877  44.487  55.438  1.00  0.00     0.069 A 
HETATM   15  C   UNL     1      30.665  43.234  55.494  1.00  0.00     0.073 C 
HETATM   16  N   UNL     1      30.292  45.575  56.097  1.00  0.00    -0.133 NA
HETATM   17  O   UNL     1      29.342  46.547  55.855  1.00  0.00    -0.217 OA
HETATM   18  C   UNL     1      28.367  46.042  55.055  1.00  0.00     0.085 A 
HETATM   19  C   UNL     1      27.263  46.958  54.711  1.00  0.00     0.079 C 
ENDBRANCH  12  13
ENDBRANCH  11  12
ENDBRANCH   8  11
ENDBRANCH   1   5
BRANCH   2  20
HETATM   20  C   UNL     1      22.074  46.998  48.514  1.00  0.00     0.162 C 
BRANCH  20  21
HETATM   21  C   UNL     1      21.868  48.495  48.502  1.00  0.00    -0.033 A 
HETATM   22  C   UNL     1      20.732  49.147  47.971  1.00  0.00    -0.025 A 
HETATM   23  C   UNL     1      20.667  50.557  48.028  1.00  0.00     0.009 A 
HETATM   24  C   UNL     1      21.698  51.305  48.596  1.00  0.00     0.001 A 
HETATM   25  C   UNL     1      22.812  50.663  49.120  1.00  0.00     0.001 A 
HETATM   26  C   UNL     1      22.893  49.274  49.077  1.00  0.00     0.009 A 
BRANCH  22  27
HETATM   27  C   UNL     1      19.573  48.421  47.336  1.00  0.00     0.274 C 
BRANCH  27  28
HETATM   28  N   UNL     1      18.221  48.896  47.814  1.00  0.00    -0.067 N 
HETATM   29  H   UNL     1      18.285  49.919  47.899  1.00  0.00     0.280 HD
HETATM   30  C   UNL     1      17.845  48.334  49.169  1.00  0.00     0.235 C 
HETATM   31  C   UNL     1      16.813  47.276  48.848  1.00  0.00     0.029 C 
HETATM   32  C   UNL     1      16.012  47.926  47.740  1.00  0.00     0.029 C 
HETATM   33  C   UNL     1      17.066  48.592  46.873  1.00  0.00     0.235 C 
ENDBRANCH  27  28
ENDBRANCH  22  27
ENDBRANCH  20  21
ENDBRANCH   2  20
TORSDOF 8
ENDMDL
MODEL 6
REMARK VINA RESULT:      -8.5      1.462      2.585
REMARK  8 active torsions:
REMARK  status: ('A' for Active; 'I' for Inactive)
REMARK    1  A    between atoms: C_7  and  C_8 
REMARK    2  A    between atoms: C_8  and  O_9 
REMARK    3  A    between atoms: O_9  and  C_10 
REMARK    4  A    between atoms: C_13  and  C_14 
REMARK       I    between atoms: C_14  and  N_15 
REMARK    5  A    between atoms: N_15  and  C_16 
REMARK    6  A    between atoms: C_16  and  C_17 
REMARK    7  A    between atoms: C_18  and  C_19 
REMARK    8  A    between atoms: C_19  and  N_20 
ROOT
HETATM    1  C   UNL     1      23.695  45.143  49.370  1.00  0.00     0.251 C 
HETATM    2  N   UNL     1      23.421  46.495  49.357  1.00  0.00    -0.353 N 
HETATM    3  O   UNL     1      23.011  44.315  48.781  1.00  0.00    -0.268 OA
HETATM    4  H   UNL     1      24.113  47.142  49.706  1.00  0.00     0.163 HD
ENDROOT
BRANCH   1   5
HETATM    5  C   UNL     1      24.881  44.709  50.153  1.00  0.00     0.032 A 
HETATM    6  C   UNL     1      26.185  44.935  49.698  1.00  0.00     0.020 A 
HETATM    7  C   UNL     1      27.271  44.590  50.506  1.00  0.00     0.038 A 
HETATM    8  C   UNL     1      27.068  44.039  51.774  1.00  0.00     0.069 A 
HETATM    9  C   UNL     1      25.770  43.786  52.216  1.00  0.00     0.038 A 
HETATM   10  C   UNL     1      24.679  44.133  51.412  1.00  0.00     0.020 A 
BRANCH   8  11
HETATM   11  O   UNL     1      28.210  43.790  52.479  1.00  0.00    -0.347 OA
BRANCH  11  12
HETATM   12  C   UNL     1      28.052  43.465  53.862  1.00  0.00     0.219 C 
BRANCH  12  13
HETATM   13  C   UNL     1      28.723  44.489  54.703  1.00  0.00     0.024 A 
HETATM   14  C   UNL     1      28.314  45.834  54.922  1.00  0.00     0.069 A 
HETATM   15  C   UNL     1      27.134  46.536  54.365  1.00  0.00     0.073 C 
HETATM   16  N   UNL     1      29.156  46.475  55.740  1.00  0.00    -0.133 NA
HETATM   17  O   UNL     1      30.138  45.559  56.062  1.00  0.00    -0.217 OA
HETATM   18  C   UNL     1      29.881  44.378  55.442  1.00  0.00     0.085 A 
HETATM   19  C   UNL     1      30.851  43.292  55.675  1.00  0.00     0.079 C 
ENDBRANCH  12  13
ENDBRANCH  11  12
ENDBRANCH   8  11
ENDBRANCH   1   5
BRANCH   2  20
HETATM   20  C   UNL     1      22.226  46.997  48.726  1.00  0.00     0.162 C 
BRANCH  20  21
HETATM   21  C   UNL     1      22.220  48.506  48.643  1.00  0.00    -0.033 A 
HETATM   22  C   UNL     1      21.109  49.325  48.950  1.00  0.00    -0.025 A 
HETATM   23  C   UNL     1      21.243  50.725  48.831  1.00  0.00     0.009 A 
HETATM   24  C   UNL     1      22.443  51.305  48.419  1.00  0.00     0.001 A 
HETATM   25  C   UNL     1      23.533  50.500  48.121  1.00  0.00     0.001 A 
HETATM   26  C   UNL     1      23.424  49.117  48.235  1.00  0.00     0.009 A 
BRANCH  22  27
HETATM   27  C   UNL     1      19.774  48.786  49.398  1.00  0.00     0.274 C 
BRANCH  27  28
HETATM   28  N   UNL     1      18.905  48.294  48.264  1.00  0.00    -0.067 N 
HETATM   29  H   UNL     1      19.542  48.048  47.495  1.00  0.00     0.280 HD
HETATM   30  C   UNL     1      17.943  49.349  47.759  1.00  0.00     0.235 C 
HETATM   31  C   UNL     1      16.607  48.918  48.319  1.00  0.00     0.029 C 
HETATM   32  C   UNL     1      16.660  47.412  48.171  1.00  0.00     0.029 C 
HETATM   33  C   UNL     1      18.079  47.058  48.582  1.00  0.00     0.235 C 
ENDBRANCH  27  28
ENDBRANCH  22  27
ENDBRANCH  20  21
ENDBRANCH   2  20
TORSDOF 8
ENDMDL
MODEL 7
REMARK VINA RESULT:      -8.4      2.545      4.614
REMARK  8 active torsions:
REMARK  status: ('A' for Active; 'I' for Inactive)
REMARK    1  A    between atoms: C_7  and  C_8 
REMARK    2  A    between atoms: C_8  and  O_9 
REMARK    3  A    between atoms: O_9  and  C_10 
REMARK    4  A    between atoms: C_13  and  C_14 
REMARK       I    between atoms: C_14  and  N_15 
REMARK    5  A    between atoms: N_15  and  C_16 
REMARK    6  A    between atoms: C_16  and  C_17 
REMARK    7  A    between atoms: C_18  and  C_19 
REMARK    8  A    between atoms: C_19  and  N_20 
ROOT
HETATM    1  C   UNL     1      23.744  49.495  48.228  1.00  0.00     0.251 C 
HETATM    2  N   UNL     1      22.393  49.562  48.499  1.00  0.00    -0.353 N 
HETATM    3  O   UNL     1      24.282  50.141  47.336  1.00  0.00    -0.268 OA
HETATM    4  H   UNL     1      22.040  49.150  49.351  1.00  0.00     0.163 HD
ENDROOT
BRANCH   1   5
HETATM    5  C   UNL     1      24.551  48.579  49.075  1.00  0.00     0.032 A 
HETATM    6  C   UNL     1      25.930  48.753  49.240  1.00  0.00     0.020 A 
HETATM    7  C   UNL     1      26.634  47.922  50.115  1.00  0.00     0.038 A 
HETATM    8  C   UNL     1      25.971  46.932  50.844  1.00  0.00     0.069 A 
HETATM    9  C   UNL     1      24.602  46.738  50.659  1.00  0.00     0.038 A 
HETATM   10  C   UNL     1      23.892  47.569  49.786  1.00  0.00     0.020 A 
BRANCH   8  11
HETATM   11  O   UNL     1      26.766  46.221  51.696  1.00  0.00    -0.347 OA
BRANCH  11  12
HETATM   12  C   UNL     1      26.166  45.783  52.917  1.00  0.00     0.219 C 
BRANCH  12  13
HETATM   13  C   UNL     1      27.105  45.992  54.048  1.00  0.00     0.024 A 
HETATM   14  C   UNL     1      28.191  45.159  54.439  1.00  0.00     0.069 A 
HETATM   15  C   UNL     1      28.640  43.889  53.821  1.00  0.00     0.073 C 
HETATM   16  N   UNL     1      28.829  45.653  55.505  1.00  0.00    -0.133 NA
HETATM   17  O   UNL     1      28.163  46.816  55.836  1.00  0.00    -0.217 OA
HETATM   18  C   UNL     1      27.135  47.015  54.971  1.00  0.00     0.085 A 
HETATM   19  C   UNL     1      26.312  48.217  55.198  1.00  0.00     0.079 C 
ENDBRANCH  12  13
ENDBRANCH  11  12
ENDBRANCH   8  11
ENDBRANCH   1   5
BRANCH   2  20
HETATM   20  C   UNL     1      21.511  50.329  47.656  1.00  0.00     0.162 C 
BRANCH  20  21
HETATM   21  C   UNL     1      20.149  50.519  48.284  1.00  0.00    -0.033 A 
HETATM   22  C   UNL     1      19.098  49.575  48.228  1.00  0.00    -0.025 A 
HETATM   23  C   UNL     1      17.875  49.881  48.862  1.00  0.00     0.009 A 
HETATM   24  C   UNL     1      17.692  51.089  49.536  1.00  0.00     0.001 A 
HETATM   25  C   UNL     1      18.725  52.013  49.592  1.00  0.00     0.001 A 
HETATM   26  C   UNL     1      19.941  51.729  48.976  1.00  0.00     0.009 A 
BRANCH  22  27
HETATM   27  C   UNL     1      19.205  48.248  47.520  1.00  0.00     0.274 C 
BRANCH  27  28
HETATM   28  N   UNL     1      17.874  47.569  47.296  1.00  0.00    -0.067 N 
HETATM   29  H   UNL     1      17.157  48.202  47.674  1.00  0.00     0.280 HD
HETATM   30  C   UNL     1      17.760  46.243  48.020  1.00  0.00     0.235 C 
HETATM   31  C   UNL     1      17.915  45.217  46.921  1.00  0.00     0.029 C 
HETATM   32  C   UNL     1      17.140  45.841  45.779  1.00  0.00     0.029 C 
HETATM   33  C   UNL     1      17.526  47.309  45.839  1.00  0.00     0.235 C 
ENDBRANCH  27  28
ENDBRANCH  22  27
ENDBRANCH  20  21
ENDBRANCH   2  20
TORSDOF 8
ENDMDL
MODEL 8
REMARK VINA RESULT:      -8.4     12.348     14.192
REMARK  8 active torsions:
REMARK  status: ('A' for Active; 'I' for Inactive)
REMARK    1  A    between atoms: C_7  and  C_8 
REMARK    2  A    between atoms: C_8  and  O_9 
REMARK    3  A    between atoms: O_9  and  C_10 
REMARK    4  A    between atoms: C_13  and  C_14 
REMARK       I    between atoms: C_14  and  N_15 
REMARK    5  A    between atoms: N_15  and  C_16 
REMARK    6  A    between atoms: C_16  and  C_17 
REMARK    7  A    between atoms: C_18  and  C_19 
REMARK    8  A    between atoms: C_19  and  N_20 
ROOT
HETATM    1  C   UNL     1      32.541  48.678  40.827  1.00  0.00     0.251 C 
HETATM    2  N   UNL     1      31.709  49.210  39.862  1.00  0.00    -0.353 N 
HETATM    3  O   UNL     1      32.709  47.474  40.976  1.00  0.00    -0.268 OA
HETATM    4  H   UNL     1      31.748  50.201  39.670  1.00  0.00     0.163 HD
ENDROOT
BRANCH   1   5
HETATM    5  C   UNL     1      33.243  49.645  41.710  1.00  0.00     0.032 A 
HETATM    6  C   UNL     1      34.601  49.940  41.544  1.00  0.00     0.020 A 
HETATM    7  C   UNL     1      35.200  50.919  42.340  1.00  0.00     0.038 A 
HETATM    8  C   UNL     1      34.452  51.623  43.287  1.00  0.00     0.069 A 
HETATM    9  C   UNL     1      33.105  51.310  43.473  1.00  0.00     0.038 A 
HETATM   10  C   UNL     1      32.500  50.332  42.677  1.00  0.00     0.020 A 
BRANCH   8  11
HETATM   11  O   UNL     1      35.145  52.583  43.965  1.00  0.00    -0.347 OA
BRANCH  11  12
HETATM   12  C   UNL     1      36.564  52.425  44.030  1.00  0.00     0.219 C 
BRANCH  12  13
HETATM   13  C   UNL     1      37.232  53.723  43.760  1.00  0.00     0.024 A 
HETATM   14  C   UNL     1      37.489  54.318  42.493  1.00  0.00     0.069 A 
HETATM   15  C   UNL     1      37.161  53.790  41.148  1.00  0.00     0.073 C 
HETATM   16  N   UNL     1      38.110  55.496  42.622  1.00  0.00    -0.133 NA
HETATM   17  O   UNL     1      38.279  55.686  43.979  1.00  0.00    -0.217 OA
HETATM   18  C   UNL     1      37.759  54.628  44.655  1.00  0.00     0.085 A 
HETATM   19  C   UNL     1      37.872  54.672  46.125  1.00  0.00     0.079 C 
ENDBRANCH  12  13
ENDBRANCH  11  12
ENDBRANCH   8  11
ENDBRANCH   1   5
BRANCH   2  20
HETATM   20  C   UNL     1      30.895  48.352  39.040  1.00  0.00     0.162 C 
BRANCH  20  21
HETATM   21  C   UNL     1      29.503  48.178  39.605  1.00  0.00    -0.033 A 
HETATM   22  C   UNL     1      28.506  49.180  39.609  1.00  0.00    -0.025 A 
HETATM   23  C   UNL     1      27.245  48.881  40.169  1.00  0.00     0.009 A 
HETATM   24  C   UNL     1      26.973  47.625  40.711  1.00  0.00     0.001 A 
HETATM   25  C   UNL     1      27.953  46.642  40.703  1.00  0.00     0.001 A 
HETATM   26  C   UNL     1      29.202  46.915  40.153  1.00  0.00     0.009 A 
BRANCH  22  27
HETATM   27  C   UNL     1      28.711  50.565  39.050  1.00  0.00     0.274 C 
BRANCH  27  28
HETATM   28  N   UNL     1      28.499  51.668  40.061  1.00  0.00    -0.067 N 
HETATM   29  H   UNL     1      27.481  51.776  40.165  1.00  0.00     0.280 HD
HETATM   30  C   UNL     1      29.069  52.997  39.611  1.00  0.00     0.235 C 
HETATM   31  C   UNL     1      30.326  53.149  40.438  1.00  0.00     0.029 C 
HETATM   32  C   UNL     1      29.897  52.612  41.787  1.00  0.00     0.029 C 
HETATM   33  C   UNL     1      29.068  51.387  41.443  1.00  0.00     0.235 C 
ENDBRANCH  27  28
ENDBRANCH  22  27
ENDBRANCH  20  21
ENDBRANCH   2  20
TORSDOF 8
ENDMDL
MODEL 9
REMARK VINA RESULT:      -8.1     12.314     13.700
REMARK  8 active torsions:
REMARK  status: ('A' for Active; 'I' for Inactive)
REMARK    1  A    between atoms: C_7  and  C_8 
REMARK    2  A    between atoms: C_8  and  O_9 
REMARK    3  A    between atoms: O_9  and  C_10 
REMARK    4  A    between atoms: C_13  and  C_14 
REMARK       I    between atoms: C_14  and  N_15 
REMARK    5  A    between atoms: N_15  and  C_16 
REMARK    6  A    between atoms: C_16  and  C_17 
REMARK    7  A    between atoms: C_18  and  C_19 
REMARK    8  A    between atoms: C_19  and  N_20 
ROOT
HETATM    1  C   UNL     1      32.419  48.454  40.679  1.00  0.00     0.251 C 
HETATM    2  N   UNL     1      31.580  48.867  39.665  1.00  0.00    -0.353 N 
HETATM    3  O   UNL     1      32.571  47.278  40.986  1.00  0.00    -0.268 OA
HETATM    4  H   UNL     1      31.631  49.822  39.341  1.00  0.00     0.163 HD
ENDROOT
BRANCH   1   5
HETATM    5  C   UNL     1      33.153  49.517  41.414  1.00  0.00     0.032 A 
HETATM    6  C   UNL     1      32.518  50.329  42.360  1.00  0.00     0.020 A 
HETATM    7  C   UNL     1      33.264  51.257  43.091  1.00  0.00     0.038 A 
HETATM    8  C   UNL     1      34.644  51.367  42.901  1.00  0.00     0.069 A 
HETATM    9  C   UNL     1      35.274  50.579  41.938  1.00  0.00     0.038 A 
HETATM   10  C   UNL     1      34.531  49.646  41.206  1.00  0.00     0.020 A 
BRANCH   8  11
HETATM   11  O   UNL     1      35.261  52.278  43.709  1.00  0.00    -0.347 OA
BRANCH  11  12
HETATM   12  C   UNL     1      36.531  52.766  43.272  1.00  0.00     0.219 C 
BRANCH  12  13
HETATM   13  C   UNL     1      37.583  52.395  44.252  1.00  0.00     0.024 A 
HETATM   14  C   UNL     1      38.029  53.150  45.373  1.00  0.00     0.069 A 
HETATM   15  C   UNL     1      37.560  54.480  45.827  1.00  0.00     0.073 C 
HETATM   16  N   UNL     1      38.993  52.510  46.043  1.00  0.00    -0.133 NA
HETATM   17  O   UNL     1      39.202  51.327  45.362  1.00  0.00    -0.217 OA
HETATM   18  C   UNL     1      38.365  51.260  44.294  1.00  0.00     0.085 A 
HETATM   19  C   UNL     1      38.473  50.055  43.452  1.00  0.00     0.079 C 
ENDBRANCH  12  13
ENDBRANCH  11  12
ENDBRANCH   8  11
ENDBRANCH   1   5
BRANCH   2  20
HETATM   20  C   UNL     1      30.738  47.922  38.977  1.00  0.00     0.162 C 
BRANCH  20  21
HETATM   21  C   UNL     1      29.341  47.881  39.555  1.00  0.00    -0.033 A 
HETATM   22  C   UNL     1      28.384  48.913  39.421  1.00  0.00    -0.025 A 
HETATM   23  C   UNL     1      27.113  48.742  40.011  1.00  0.00     0.009 A 
HETATM   24  C   UNL     1      26.793  47.582  40.716  1.00  0.00     0.001 A 
HETATM   25  C   UNL     1      27.733  46.568  40.844  1.00  0.00     0.001 A 
HETATM   26  C   UNL     1      28.991  46.715  40.266  1.00  0.00     0.009 A 
BRANCH  22  27
HETATM   27  C   UNL     1      28.643  50.201  38.681  1.00  0.00     0.274 C 
BRANCH  27  28
HETATM   28  N   UNL     1      29.453  51.203  39.470  1.00  0.00    -0.067 N 
HETATM   29  H   UNL     1      30.435  50.907  39.396  1.00  0.00     0.280 HD
HETATM   30  C   UNL     1      29.081  51.236  40.938  1.00  0.00     0.235 C 
HETATM   31  C   UNL     1      28.279  52.510  41.079  1.00  0.00     0.029 C 
HETATM   32  C   UNL     1      29.029  53.470  40.181  1.00  0.00     0.029 C 
HETATM   33  C   UNL     1      29.373  52.634  38.961  1.00  0.00     0.235 C 
ENDBRANCH  27  28
ENDBRANCH  22  27
ENDBRANCH  20  21
ENDBRANCH   2  20
TORSDOF 8
ENDMDL
MODEL 10
REMARK VINA RESULT:      -8.0      2.620      5.296
REMARK  8 active torsions:
REMARK  status: ('A' for Active; 'I' for Inactive)
REMARK    1  A    between atoms: C_7  and  C_8 
REMARK    2  A    between atoms: C_8  and  O_9 
REMARK    3  A    between atoms: O_9  and  C_10 
REMARK    4  A    between atoms: C_13  and  C_14 
REMARK       I    between atoms: C_14  and  N_15 
REMARK    5  A    between atoms: N_15  and  C_16 
REMARK    6  A    between atoms: C_16  and  C_17 
REMARK    7  A    between atoms: C_18  and  C_19 
REMARK    8  A    between atoms: C_19  and  N_20 
ROOT
HETATM    1  C   UNL     1      23.558  49.598  48.123  1.00  0.00     0.251 C 
HETATM    2  N   UNL     1      22.220  49.690  48.453  1.00  0.00    -0.353 N 
HETATM    3  O   UNL     1      24.063  50.220  47.197  1.00  0.00    -0.268 OA
HETATM    4  H   UNL     1      21.901  49.298  49.327  1.00  0.00     0.163 HD
ENDROOT
BRANCH   1   5
HETATM    5  C   UNL     1      24.390  48.688  48.952  1.00  0.00     0.032 A 
HETATM    6  C   UNL     1      25.764  48.894  49.118  1.00  0.00     0.020 A 
HETATM    7  C   UNL     1      26.490  48.065  49.976  1.00  0.00     0.038 A 
HETATM    8  C   UNL     1      25.855  47.044  50.687  1.00  0.00     0.069 A 
HETATM    9  C   UNL     1      24.491  46.818  50.499  1.00  0.00     0.038 A 
HETATM   10  C   UNL     1      23.758  47.647  49.644  1.00  0.00     0.020 A 
BRANCH   8  11
HETATM   11  O   UNL     1      26.668  46.337  51.524  1.00  0.00    -0.347 OA
BRANCH  11  12
HETATM   12  C   UNL     1      26.031  45.418  52.414  1.00  0.00     0.219 C 
BRANCH  12  13
HETATM   13  C   UNL     1      26.807  44.154  52.480  1.00  0.00     0.024 A 
HETATM   14  C   UNL     1      26.587  42.963  51.733  1.00  0.00     0.069 A 
HETATM   15  C   UNL     1      25.538  42.695  50.721  1.00  0.00     0.073 C 
HETATM   16  N   UNL     1      27.480  42.017  52.046  1.00  0.00    -0.133 NA
HETATM   17  O   UNL     1      28.293  42.572  53.013  1.00  0.00    -0.217 OA
HETATM   18  C   UNL     1      27.890  43.843  53.274  1.00  0.00     0.085 A 
HETATM   19  C   UNL     1      28.654  44.574  54.301  1.00  0.00     0.079 C 
ENDBRANCH  12  13
ENDBRANCH  11  12
ENDBRANCH   8  11
ENDBRANCH   1   5
BRANCH   2  20
HETATM   20  C   UNL     1      21.312  50.452  47.634  1.00  0.00     0.162 C 
BRANCH  20  21
HETATM   21  C   UNL     1      19.964  50.628  48.296  1.00  0.00    -0.033 A 
HETATM   22  C   UNL     1      18.933  49.661  48.290  1.00  0.00    -0.025 A 
HETATM   23  C   UNL     1      17.721  49.956  48.952  1.00  0.00     0.009 A 
HETATM   24  C   UNL     1      17.530  51.174  49.603  1.00  0.00     0.001 A 
HETATM   25  C   UNL     1      18.545  52.121  49.611  1.00  0.00     0.001 A 
HETATM   26  C   UNL     1      19.750  51.849  48.967  1.00  0.00     0.009 A 
BRANCH  22  27
HETATM   27  C   UNL     1      19.049  48.321  47.609  1.00  0.00     0.274 C 
BRANCH  27  28
HETATM   28  N   UNL     1      17.717  47.685  47.286  1.00  0.00    -0.067 N 
HETATM   29  H   UNL     1      16.995  48.342  47.610  1.00  0.00     0.280 HD
HETATM   30  C   UNL     1      17.506  46.366  47.999  1.00  0.00     0.235 C 
HETATM   31  C   UNL     1      17.709  45.332  46.913  1.00  0.00     0.029 C 
HETATM   32  C   UNL     1      17.042  45.979  45.718  1.00  0.00     0.029 C 
HETATM   33  C   UNL     1      17.470  47.434  45.807  1.00  0.00     0.235 C 
ENDBRANCH  27  28
ENDBRANCH  22  27
ENDBRANCH  20  21
ENDBRANCH   2  20
TORSDOF 8
ENDMDL
