MODEL 1
REMARK VINA RESULT:     -10.1      0.000      0.000
REMARK  3 active torsions:
REMARK  status: ('A' for Active; 'I' for Inactive)
REMARK    1  A    between atoms: C_8  and  C_9 
REMARK    2  A    between atoms: C_14  and  C_15 
REMARK    3  A    between atoms: C_17  and  O_18 
ROOT
HETATM    1  C   UNL     1      25.968  46.737  50.114  1.00  0.00     0.143 A 
HETATM    2  N   UNL     1      26.420  45.681  49.470  1.00  0.00    -0.223 NA
HETATM    3  C   UNL     1      26.612  44.692  50.413  1.00  0.00     0.149 A 
HETATM    4  C   UNL     1      26.274  45.175  51.666  1.00  0.00     0.046 A 
HETATM    5  C   UNL     1      26.209  44.478  52.978  1.00  0.00     0.070 C 
HETATM    6  C   UNL     1      27.494  43.714  53.369  1.00  0.00     0.042 C 
HETATM    7  C   UNL     1      28.405  43.279  52.203  1.00  0.00     0.132 C 
HETATM    8  N   UNL     1      27.710  42.636  51.102  1.00  0.00    -0.355 N 
HETATM    9  C   UNL     1      27.069  43.337  50.097  1.00  0.00     0.272 C 
HETATM   10  O   UNL     1      26.912  42.799  49.003  1.00  0.00    -0.266 OA
HETATM   11  N   UNL     1      25.877  46.471  51.457  1.00  0.00    -0.341 N 
HETATM   12  H   UNL     1      25.528  47.110  52.155  1.00  0.00     0.167 HD
HETATM   13  H   UNL     1      28.076  41.758  50.757  1.00  0.00     0.162 HD
ENDROOT
BRANCH   1  14
HETATM   14  C   UNL     1      25.602  48.015  49.447  1.00  0.00     0.059 A 
HETATM   15  C   UNL     1      24.342  48.469  49.102  1.00  0.00     0.040 A 
HETATM   16  C   UNL     1      22.977  47.917  49.242  1.00  0.00     0.071 C 
HETATM   17  N   UNL     1      24.553  49.688  48.511  1.00  0.00    -0.281 N 
HETATM   18  H   UNL     1      23.864  50.323  48.124  1.00  0.00     0.189 HD
HETATM   19  N   UNL     1      25.839  50.056  48.455  1.00  0.00    -0.179 NA
HETATM   20  C   UNL     1      26.495  49.033  49.020  1.00  0.00     0.067 A 
HETATM   21  C   UNL     1      27.976  49.067  49.128  1.00  0.00     0.073 C 
ENDBRANCH   1  14
BRANCH   6  22
HETATM   22  C   UNL     1      28.315  44.471  54.410  1.00  0.00    -0.049 A 
HETATM   23  C   UNL     1      29.551  43.981  54.873  1.00  0.00     0.044 A 
HETATM   24  C   UNL     1      30.281  44.682  55.836  1.00  0.00     0.068 A 
HETATM   25  C   UNL     1      29.774  45.879  56.343  1.00  0.00     0.037 A 
HETATM   26  C   UNL     1      28.548  46.375  55.899  1.00  0.00     0.003 A 
HETATM   27  C   UNL     1      27.822  45.674  54.938  1.00  0.00     0.007 A 
BRANCH  24  28
HETATM   28  O   UNL     1      31.489  44.311  56.358  1.00  0.00    -0.356 OA
HETATM   29  C   UNL     1      31.510  43.151  57.181  1.00  0.00     0.210 C 
ENDBRANCH  24  28
ENDBRANCH   6  22
TORSDOF 3
ENDMDL
MODEL 2
REMARK VINA RESULT:      -9.8      1.181      1.994
REMARK  3 active torsions:
REMARK  status: ('A' for Active; 'I' for Inactive)
REMARK    1  A    between atoms: C_8  and  C_9 
REMARK    2  A    between atoms: C_14  and  C_15 
REMARK    3  A    between atoms: C_17  and  O_18 
ROOT
HETATM    1  C   UNL     1      25.375  47.174  50.131  1.00  0.00     0.143 A 
HETATM    2  N   UNL     1      25.193  45.951  49.676  1.00  0.00    -0.223 NA
HETATM    3  C   UNL     1      25.184  45.115  50.775  1.00  0.00     0.149 A 
HETATM    4  C   UNL     1      25.377  45.861  51.925  1.00  0.00     0.046 A 
HETATM    5  C   UNL     1      25.347  45.448  53.354  1.00  0.00     0.070 C 
HETATM    6  C   UNL     1      26.264  44.253  53.701  1.00  0.00     0.042 C 
HETATM    7  C   UNL     1      26.616  43.308  52.534  1.00  0.00     0.132 C 
HETATM    8  N   UNL     1      25.481  42.899  51.726  1.00  0.00    -0.355 N 
HETATM    9  C   UNL     1      24.962  43.669  50.702  1.00  0.00     0.272 C 
HETATM   10  O   UNL     1      24.347  43.116  49.793  1.00  0.00    -0.266 OA
HETATM   11  N   UNL     1      25.504  47.158  51.496  1.00  0.00    -0.341 N 
HETATM   12  H   UNL     1      25.620  47.972  52.080  1.00  0.00     0.167 HD
HETATM   13  H   UNL     1      25.366  41.912  51.533  1.00  0.00     0.162 HD
ENDROOT
BRANCH   1  14
HETATM   14  C   UNL     1      25.414  48.379  49.261  1.00  0.00     0.059 A 
HETATM   15  C   UNL     1      26.515  49.120  48.874  1.00  0.00     0.040 A 
HETATM   16  C   UNL     1      27.966  49.022  49.146  1.00  0.00     0.071 C 
HETATM   17  N   UNL     1      26.011  50.122  48.087  1.00  0.00    -0.281 N 
HETATM   18  H   UNL     1      26.517  50.868  47.623  1.00  0.00     0.189 HD
HETATM   19  N   UNL     1      24.682  50.083  47.931  1.00  0.00    -0.179 NA
HETATM   20  C   UNL     1      24.301  49.020  48.654  1.00  0.00     0.067 A 
HETATM   21  C   UNL     1      22.864  48.655  48.742  1.00  0.00     0.073 C 
ENDBRANCH   1  14
BRANCH   6  22
HETATM   22  C   UNL     1      27.541  44.699  54.407  1.00  0.00    -0.049 A 
HETATM   23  C   UNL     1      28.631  43.825  54.580  1.00  0.00     0.044 A 
HETATM   24  C   UNL     1      29.787  44.248  55.241  1.00  0.00     0.068 A 
HETATM   25  C   UNL     1      29.856  45.552  55.734  1.00  0.00     0.037 A 
HETATM   26  C   UNL     1      28.782  46.428  55.576  1.00  0.00     0.003 A 
HETATM   27  C   UNL     1      27.631  46.003  54.916  1.00  0.00     0.007 A 
BRANCH  24  28
HETATM   28  O   UNL     1      30.907  43.497  55.466  1.00  0.00    -0.356 OA
HETATM   29  C   UNL     1      31.392  43.442  56.802  1.00  0.00     0.210 C 
ENDBRANCH  24  28
ENDBRANCH   6  22
TORSDOF 3
ENDMDL
MODEL 3
REMARK VINA RESULT:      -9.5      2.086      3.040
REMARK  3 active torsions:
REMARK  status: ('A' for Active; 'I' for Inactive)
REMARK    1  A    between atoms: C_8  and  C_9 
REMARK    2  A    between atoms: C_14  and  C_15 
REMARK    3  A    between atoms: C_17  and  O_18 
ROOT
HETATM    1  C   UNL     1      25.694  44.107  50.977  1.00  0.00     0.143 A 
HETATM    2  N   UNL     1      26.451  43.276  50.291  1.00  0.00    -0.223 NA
HETATM    3  C   UNL     1      27.179  42.549  51.211  1.00  0.00     0.149 A 
HETATM    4  C   UNL     1      26.856  42.967  52.491  1.00  0.00     0.046 A 
HETATM    5  C   UNL     1      27.284  42.435  53.812  1.00  0.00     0.070 C 
HETATM    6  C   UNL     1      28.814  42.312  53.994  1.00  0.00     0.042 C 
HETATM    7  C   UNL     1      29.642  42.182  52.699  1.00  0.00     0.132 C 
HETATM    8  N   UNL     1      29.132  41.207  51.752  1.00  0.00    -0.355 N 
HETATM    9  C   UNL     1      28.115  41.480  50.855  1.00  0.00     0.272 C 
HETATM   10  O   UNL     1      28.042  40.823  49.819  1.00  0.00    -0.266 OA
HETATM   11  N   UNL     1      25.921  43.957  52.321  1.00  0.00    -0.341 N 
HETATM   12  H   UNL     1      25.441  44.459  53.053  1.00  0.00     0.167 HD
HETATM   13  H   UNL     1      29.781  40.530  51.371  1.00  0.00     0.162 HD
ENDROOT
BRANCH   1  14
HETATM   14  C   UNL     1      24.729  45.049  50.351  1.00  0.00     0.059 A 
HETATM   15  C   UNL     1      23.507  44.761  49.771  1.00  0.00     0.040 A 
HETATM   16  C   UNL     1      22.740  43.515  49.556  1.00  0.00     0.071 C 
HETATM   17  N   UNL     1      23.023  45.970  49.343  1.00  0.00    -0.281 N 
HETATM   18  H   UNL     1      22.149  46.161  48.865  1.00  0.00     0.189 HD
HETATM   19  N   UNL     1      23.826  47.008  49.606  1.00  0.00    -0.179 NA
HETATM   20  C   UNL     1      24.882  46.455  50.219  1.00  0.00     0.067 A 
HETATM   21  C   UNL     1      26.018  47.305  50.658  1.00  0.00     0.073 C 
ENDBRANCH   1  14
BRANCH   6  22
HETATM   22  C   UNL     1      29.380  43.436  54.858  1.00  0.00    -0.049 A 
HETATM   23  C   UNL     1      28.664  44.628  55.076  1.00  0.00     0.044 A 
HETATM   24  C   UNL     1      29.205  45.651  55.860  1.00  0.00     0.068 A 
HETATM   25  C   UNL     1      30.469  45.484  56.427  1.00  0.00     0.037 A 
HETATM   26  C   UNL     1      31.193  44.311  56.215  1.00  0.00     0.003 A 
HETATM   27  C   UNL     1      30.651  43.292  55.434  1.00  0.00     0.007 A 
BRANCH  24  28
HETATM   28  O   UNL     1      28.608  46.847  56.146  1.00  0.00    -0.356 OA
HETATM   29  C   UNL     1      27.708  47.371  55.177  1.00  0.00     0.210 C 
ENDBRANCH  24  28
ENDBRANCH   6  22
TORSDOF 3
ENDMDL
MODEL 4
REMARK VINA RESULT:      -8.6     11.158     13.471
REMARK  3 active torsions:
REMARK  status: ('A' for Active; 'I' for Inactive)
REMARK    1  A    between atoms: C_8  and  C_9 
REMARK    2  A    between atoms: C_14  and  C_15 
REMARK    3  A    between atoms: C_17  and  O_18 
ROOT
HETATM    1  C   UNL     1      31.254  51.007  41.960  1.00  0.00     0.143 A 
HETATM    2  N   UNL     1      30.311  51.862  41.623  1.00  0.00    -0.223 NA
HETATM    3  C   UNL     1      29.137  51.142  41.526  1.00  0.00     0.149 A 
HETATM    4  C   UNL     1      29.388  49.809  41.804  1.00  0.00     0.046 A 
HETATM    5  C   UNL     1      28.449  48.662  41.931  1.00  0.00     0.070 C 
HETATM    6  C   UNL     1      27.500  48.467  40.727  1.00  0.00     0.042 C 
HETATM    7  C   UNL     1      27.222  49.722  39.874  1.00  0.00     0.132 C 
HETATM    8  N   UNL     1      26.886  50.909  40.639  1.00  0.00    -0.355 N 
HETATM    9  C   UNL     1      27.835  51.736  41.212  1.00  0.00     0.272 C 
HETATM   10  O   UNL     1      27.548  52.911  41.431  1.00  0.00    -0.266 OA
HETATM   11  N   UNL     1      30.732  49.743  42.069  1.00  0.00    -0.341 N 
HETATM   12  H   UNL     1      31.248  48.921  42.346  1.00  0.00     0.167 HD
HETATM   13  H   UNL     1      26.064  51.433  40.367  1.00  0.00     0.162 HD
ENDROOT
BRANCH   1  14
HETATM   14  C   UNL     1      32.670  51.394  42.199  1.00  0.00     0.059 A 
HETATM   15  C   UNL     1      33.699  51.478  41.280  1.00  0.00     0.040 A 
HETATM   16  C   UNL     1      33.800  51.237  39.824  1.00  0.00     0.071 C 
HETATM   17  N   UNL     1      34.794  51.867  42.008  1.00  0.00    -0.281 N 
HETATM   18  H   UNL     1      35.739  52.031  41.678  1.00  0.00     0.189 HD
HETATM   19  N   UNL     1      34.552  52.046  43.312  1.00  0.00    -0.179 NA
HETATM   20  C   UNL     1      33.251  51.751  43.445  1.00  0.00     0.067 A 
HETATM   21  C   UNL     1      32.604  51.819  44.780  1.00  0.00     0.073 C 
ENDBRANCH   1  14
BRANCH   6  22
HETATM   22  C   UNL     1      27.946  47.319  39.826  1.00  0.00    -0.049 A 
HETATM   23  C   UNL     1      28.150  46.021  40.333  1.00  0.00     0.044 A 
HETATM   24  C   UNL     1      28.571  44.986  39.495  1.00  0.00     0.068 A 
HETATM   25  C   UNL     1      28.792  45.247  38.142  1.00  0.00     0.037 A 
HETATM   26  C   UNL     1      28.600  46.529  37.626  1.00  0.00     0.003 A 
HETATM   27  C   UNL     1      28.179  47.559  38.464  1.00  0.00     0.007 A 
BRANCH  24  28
HETATM   28  O   UNL     1      28.798  43.690  39.867  1.00  0.00    -0.356 OA
HETATM   29  C   UNL     1      27.715  42.989  40.467  1.00  0.00     0.210 C 
ENDBRANCH  24  28
ENDBRANCH   6  22
TORSDOF 3
ENDMDL
MODEL 5
REMARK VINA RESULT:      -8.4      3.153      4.952
REMARK  3 active torsions:
REMARK  status: ('A' for Active; 'I' for Inactive)
REMARK    1  A    between atoms: C_8  and  C_9 
REMARK    2  A    between atoms: C_14  and  C_15 
REMARK    3  A    between atoms: C_17  and  O_18 
ROOT
HETATM    1  C   UNL     1      25.204  47.655  49.985  1.00  0.00     0.143 A 
HETATM    2  N   UNL     1      24.990  47.694  51.283  1.00  0.00    -0.223 NA
HETATM    3  C   UNL     1      25.706  46.653  51.838  1.00  0.00     0.149 A 
HETATM    4  C   UNL     1      26.364  45.960  50.836  1.00  0.00     0.046 A 
HETATM    5  C   UNL     1      27.333  44.835  50.924  1.00  0.00     0.070 C 
HETATM    6  C   UNL     1      26.847  43.625  51.754  1.00  0.00     0.042 C 
HETATM    7  C   UNL     1      25.768  43.923  52.816  1.00  0.00     0.132 C 
HETATM    8  N   UNL     1      26.048  45.075  53.654  1.00  0.00    -0.355 N 
HETATM    9  C   UNL     1      25.769  46.375  53.274  1.00  0.00     0.272 C 
HETATM   10  O   UNL     1      25.593  47.225  54.144  1.00  0.00    -0.266 OA
HETATM   11  N   UNL     1      26.028  46.604  49.672  1.00  0.00    -0.341 N 
HETATM   12  H   UNL     1      26.363  46.381  48.747  1.00  0.00     0.167 HD
HETATM   13  H   UNL     1      25.968  44.964  54.657  1.00  0.00     0.162 HD
ENDROOT
BRANCH   1  14
HETATM   14  C   UNL     1      24.634  48.637  49.025  1.00  0.00     0.059 A 
HETATM   15  C   UNL     1      23.323  48.757  48.604  1.00  0.00     0.040 A 
HETATM   16  C   UNL     1      22.073  48.025  48.908  1.00  0.00     0.071 C 
HETATM   17  N   UNL     1      23.328  49.805  47.720  1.00  0.00    -0.281 N 
HETATM   18  H   UNL     1      22.547  50.189  47.200  1.00  0.00     0.189 HD
HETATM   19  N   UNL     1      24.529  50.370  47.544  1.00  0.00    -0.179 NA
HETATM   20  C   UNL     1      25.342  49.656  48.335  1.00  0.00     0.067 A 
HETATM   21  C   UNL     1      26.791  49.978  48.399  1.00  0.00     0.073 C 
ENDBRANCH   1  14
BRANCH   6  22
HETATM   22  C   UNL     1      26.394  42.468  50.868  1.00  0.00    -0.049 A 
HETATM   23  C   UNL     1      27.129  41.270  50.788  1.00  0.00     0.044 A 
HETATM   24  C   UNL     1      26.705  40.226  49.962  1.00  0.00     0.068 A 
HETATM   25  C   UNL     1      25.540  40.380  49.208  1.00  0.00     0.037 A 
HETATM   26  C   UNL     1      24.804  41.563  49.272  1.00  0.00     0.003 A 
HETATM   27  C   UNL     1      25.229  42.602  50.098  1.00  0.00     0.007 A 
BRANCH  24  28
HETATM   28  O   UNL     1      27.328  39.020  49.804  1.00  0.00    -0.356 OA
HETATM   29  C   UNL     1      28.730  38.980  50.036  1.00  0.00     0.210 C 
ENDBRANCH  24  28
ENDBRANCH   6  22
TORSDOF 3
ENDMDL
MODEL 6
REMARK VINA RESULT:      -8.2     15.829     18.255
REMARK  3 active torsions:
REMARK  status: ('A' for Active; 'I' for Inactive)
REMARK    1  A    between atoms: C_8  and  C_9 
REMARK    2  A    between atoms: C_14  and  C_15 
REMARK    3  A    between atoms: C_17  and  O_18 
ROOT
HETATM    1  C   UNL     1      38.700  41.235  64.421  1.00  0.00     0.143 A 
HETATM    2  N   UNL     1      37.588  41.056  65.103  1.00  0.00    -0.223 NA
HETATM    3  C   UNL     1      36.786  42.151  64.851  1.00  0.00     0.149 A 
HETATM    4  C   UNL     1      37.446  43.021  63.999  1.00  0.00     0.046 A 
HETATM    5  C   UNL     1      36.975  44.276  63.355  1.00  0.00     0.070 C 
HETATM    6  C   UNL     1      36.384  45.320  64.330  1.00  0.00     0.042 C 
HETATM    7  C   UNL     1      35.828  44.768  65.659  1.00  0.00     0.132 C 
HETATM    8  N   UNL     1      34.961  43.612  65.516  1.00  0.00    -0.355 N 
HETATM    9  C   UNL     1      35.435  42.319  65.390  1.00  0.00     0.272 C 
HETATM   10  O   UNL     1      34.712  41.384  65.728  1.00  0.00    -0.266 OA
HETATM   11  N   UNL     1      38.656  42.427  63.745  1.00  0.00    -0.341 N 
HETATM   12  H   UNL     1      39.375  42.774  63.128  1.00  0.00     0.167 HD
HETATM   13  H   UNL     1      34.067  43.627  65.990  1.00  0.00     0.162 HD
ENDROOT
BRANCH   1  14
HETATM   14  C   UNL     1      39.818  40.254  64.397  1.00  0.00     0.059 A 
HETATM   15  C   UNL     1      40.145  39.356  63.399  1.00  0.00     0.040 A 
HETATM   16  C   UNL     1      39.567  39.034  62.075  1.00  0.00     0.071 C 
HETATM   17  N   UNL     1      41.245  38.686  63.870  1.00  0.00    -0.281 N 
HETATM   18  H   UNL     1      41.768  37.945  63.417  1.00  0.00     0.189 HD
HETATM   19  N   UNL     1      41.653  39.084  65.081  1.00  0.00    -0.179 NA
HETATM   20  C   UNL     1      40.780  40.043  65.420  1.00  0.00     0.067 A 
HETATM   21  C   UNL     1      40.899  40.728  66.732  1.00  0.00     0.073 C 
ENDBRANCH   1  14
BRANCH   6  22
HETATM   22  C   UNL     1      37.362  46.457  64.613  1.00  0.00    -0.049 A 
HETATM   23  C   UNL     1      38.655  46.210  65.113  1.00  0.00     0.044 A 
HETATM   24  C   UNL     1      39.531  47.265  65.377  1.00  0.00     0.068 A 
HETATM   25  C   UNL     1      39.115  48.576  65.143  1.00  0.00     0.037 A 
HETATM   26  C   UNL     1      37.836  48.838  64.654  1.00  0.00     0.003 A 
HETATM   27  C   UNL     1      36.964  47.784  64.390  1.00  0.00     0.007 A 
BRANCH  24  28
HETATM   28  O   UNL     1      40.806  47.152  65.859  1.00  0.00    -0.356 OA
HETATM   29  C   UNL     1      41.830  46.858  64.916  1.00  0.00     0.210 C 
ENDBRANCH  24  28
ENDBRANCH   6  22
TORSDOF 3
ENDMDL
MODEL 7
REMARK VINA RESULT:      -8.1     11.357     13.687
REMARK  3 active torsions:
REMARK  status: ('A' for Active; 'I' for Inactive)
REMARK    1  A    between atoms: C_8  and  C_9 
REMARK    2  A    between atoms: C_14  and  C_15 
REMARK    3  A    between atoms: C_17  and  O_18 
ROOT
HETATM    1  C   UNL     1      31.411  51.419  41.521  1.00  0.00     0.143 A 
HETATM    2  N   UNL     1      30.919  52.107  40.512  1.00  0.00    -0.223 NA
HETATM    3  C   UNL     1      29.602  51.718  40.369  1.00  0.00     0.149 A 
HETATM    4  C   UNL     1      29.299  50.757  41.318  1.00  0.00     0.046 A 
HETATM    5  C   UNL     1      28.003  50.103  41.642  1.00  0.00     0.070 C 
HETATM    6  C   UNL     1      27.281  49.464  40.434  1.00  0.00     0.042 C 
HETATM    7  C   UNL     1      27.634  50.045  39.049  1.00  0.00     0.132 C 
HETATM    8  N   UNL     1      27.620  51.495  38.982  1.00  0.00    -0.355 N 
HETATM    9  C   UNL     1      28.683  52.284  39.379  1.00  0.00     0.272 C 
HETATM   10  O   UNL     1      28.807  53.406  38.893  1.00  0.00    -0.266 OA
HETATM   11  N   UNL     1      30.457  50.576  42.031  1.00  0.00    -0.341 N 
HETATM   12  H   UNL     1      30.581  49.969  42.826  1.00  0.00     0.167 HD
HETATM   13  H   UNL     1      27.107  51.930  38.225  1.00  0.00     0.162 HD
ENDROOT
BRANCH   1  14
HETATM   14  C   UNL     1      32.803  51.572  42.021  1.00  0.00     0.059 A 
HETATM   15  C   UNL     1      33.979  51.553  41.295  1.00  0.00     0.040 A 
HETATM   16  C   UNL     1      34.299  51.386  39.860  1.00  0.00     0.071 C 
HETATM   17  N   UNL     1      34.973  51.728  42.223  1.00  0.00    -0.281 N 
HETATM   18  H   UNL     1      35.975  51.765  42.068  1.00  0.00     0.189 HD
HETATM   19  N   UNL     1      34.533  51.865  43.480  1.00  0.00    -0.179 NA
HETATM   20  C   UNL     1      33.201  51.763  43.371  1.00  0.00     0.067 A 
HETATM   21  C   UNL     1      32.346  51.849  44.582  1.00  0.00     0.073 C 
ENDBRANCH   1  14
BRANCH   6  22
HETATM   22  C   UNL     1      27.435  47.946  40.413  1.00  0.00    -0.049 A 
HETATM   23  C   UNL     1      28.582  47.330  39.878  1.00  0.00     0.044 A 
HETATM   24  C   UNL     1      28.700  45.938  39.855  1.00  0.00     0.068 A 
HETATM   25  C   UNL     1      27.664  45.155  40.368  1.00  0.00     0.037 A 
HETATM   26  C   UNL     1      26.518  45.751  40.895  1.00  0.00     0.003 A 
HETATM   27  C   UNL     1      26.405  47.139  40.917  1.00  0.00     0.007 A 
BRANCH  24  28
HETATM   28  O   UNL     1      29.761  45.227  39.369  1.00  0.00    -0.356 OA
HETATM   29  C   UNL     1      29.481  44.236  38.387  1.00  0.00     0.210 C 
ENDBRANCH  24  28
ENDBRANCH   6  22
TORSDOF 3
ENDMDL
MODEL 8
REMARK VINA RESULT:      -7.8      6.883     11.124
REMARK  3 active torsions:
REMARK  status: ('A' for Active; 'I' for Inactive)
REMARK    1  A    between atoms: C_8  and  C_9 
REMARK    2  A    between atoms: C_14  and  C_15 
REMARK    3  A    between atoms: C_17  and  O_18 
ROOT
HETATM    1  C   UNL     1      21.310  46.786  47.945  1.00  0.00     0.143 A 
HETATM    2  N   UNL     1      22.197  47.630  47.459  1.00  0.00    -0.223 NA
HETATM    3  C   UNL     1      22.014  48.825  48.124  1.00  0.00     0.149 A 
HETATM    4  C   UNL     1      20.977  48.696  49.032  1.00  0.00     0.046 A 
HETATM    5  C   UNL     1      20.465  49.654  50.048  1.00  0.00     0.070 C 
HETATM    6  C   UNL     1      20.111  51.054  49.497  1.00  0.00     0.042 C 
HETATM    7  C   UNL     1      20.830  51.473  48.198  1.00  0.00     0.132 C 
HETATM    8  N   UNL     1      22.264  51.242  48.202  1.00  0.00    -0.355 N 
HETATM    9  C   UNL     1      22.836  50.018  47.906  1.00  0.00     0.272 C 
HETATM   10  O   UNL     1      23.989  49.987  47.482  1.00  0.00    -0.266 OA
HETATM   11  N   UNL     1      20.540  47.402  48.898  1.00  0.00    -0.341 N 
HETATM   12  H   UNL     1      19.814  46.957  49.437  1.00  0.00     0.167 HD
HETATM   13  H   UNL     1      22.868  52.003  47.921  1.00  0.00     0.162 HD
ENDROOT
BRANCH   1  14
HETATM   14  C   UNL     1      21.200  45.367  47.512  1.00  0.00     0.059 A 
HETATM   15  C   UNL     1      20.495  44.854  46.439  1.00  0.00     0.040 A 
HETATM   16  C   UNL     1      19.644  45.452  45.387  1.00  0.00     0.071 C 
HETATM   17  N   UNL     1      20.713  43.501  46.485  1.00  0.00    -0.281 N 
HETATM   18  H   UNL     1      20.354  42.788  45.860  1.00  0.00     0.189 HD
HETATM   19  N   UNL     1      21.503  43.106  47.491  1.00  0.00    -0.179 NA
HETATM   20  C   UNL     1      21.803  44.243  48.135  1.00  0.00     0.067 A 
HETATM   21  C   UNL     1      22.665  44.209  49.344  1.00  0.00     0.073 C 
ENDBRANCH   1  14
BRANCH   6  22
HETATM   22  C   UNL     1      18.605  51.240  49.336  1.00  0.00    -0.049 A 
HETATM   23  C   UNL     1      17.917  52.283  49.985  1.00  0.00     0.044 A 
HETATM   24  C   UNL     1      16.536  52.430  49.835  1.00  0.00     0.068 A 
HETATM   25  C   UNL     1      15.835  51.528  49.033  1.00  0.00     0.037 A 
HETATM   26  C   UNL     1      16.501  50.486  48.388  1.00  0.00     0.003 A 
HETATM   27  C   UNL     1      17.878  50.343  48.539  1.00  0.00     0.007 A 
BRANCH  24  28
HETATM   28  O   UNL     1      15.762  53.400  50.409  1.00  0.00    -0.356 OA
HETATM   29  C   UNL     1      14.358  53.174  50.438  1.00  0.00     0.210 C 
ENDBRANCH  24  28
ENDBRANCH   6  22
TORSDOF 3
ENDMDL
MODEL 9
REMARK VINA RESULT:      -7.6      6.877      9.937
REMARK  3 active torsions:
REMARK  status: ('A' for Active; 'I' for Inactive)
REMARK    1  A    between atoms: C_8  and  C_9 
REMARK    2  A    between atoms: C_14  and  C_15 
REMARK    3  A    between atoms: C_17  and  O_18 
ROOT
HETATM    1  C   UNL     1      18.232  47.989  47.023  1.00  0.00     0.143 A 
HETATM    2  N   UNL     1      17.688  48.695  47.993  1.00  0.00    -0.223 NA
HETATM    3  C   UNL     1      18.574  49.710  48.292  1.00  0.00     0.149 A 
HETATM    4  C   UNL     1      19.692  49.602  47.482  1.00  0.00     0.046 A 
HETATM    5  C   UNL     1      20.869  50.500  47.345  1.00  0.00     0.070 C 
HETATM    6  C   UNL     1      21.584  50.835  48.674  1.00  0.00     0.042 C 
HETATM    7  C   UNL     1      20.728  50.719  49.952  1.00  0.00     0.132 C 
HETATM    8  N   UNL     1      19.426  51.355  49.865  1.00  0.00    -0.355 N 
HETATM    9  C   UNL     1      18.322  50.749  49.293  1.00  0.00     0.272 C 
HETATM   10  O   UNL     1      17.199  51.104  49.643  1.00  0.00    -0.266 OA
HETATM   11  N   UNL     1      19.459  48.504  46.693  1.00  0.00    -0.341 N 
HETATM   12  H   UNL     1      20.058  48.157  45.959  1.00  0.00     0.167 HD
HETATM   13  H   UNL     1      19.151  51.979  50.613  1.00  0.00     0.162 HD
ENDROOT
BRANCH   1  14
HETATM   14  C   UNL     1      17.574  46.816  46.388  1.00  0.00     0.059 A 
HETATM   15  C   UNL     1      16.498  46.807  45.520  1.00  0.00     0.040 A 
HETATM   16  C   UNL     1      15.644  47.861  44.929  1.00  0.00     0.071 C 
HETATM   17  N   UNL     1      16.281  45.483  45.237  1.00  0.00    -0.281 N 
HETATM   18  H   UNL     1      15.571  45.079  44.637  1.00  0.00     0.189 HD
HETATM   19  N   UNL     1      17.131  44.645  45.844  1.00  0.00    -0.179 NA
HETATM   20  C   UNL     1      17.926  45.452  46.561  1.00  0.00     0.067 A 
HETATM   21  C   UNL     1      19.007  44.877  47.402  1.00  0.00     0.073 C 
ENDBRANCH   1  14
BRANCH   6  22
HETATM   22  C   UNL     1      22.877  50.041  48.844  1.00  0.00    -0.049 A 
HETATM   23  C   UNL     1      24.098  50.498  48.313  1.00  0.00     0.044 A 
HETATM   24  C   UNL     1      25.268  49.750  48.468  1.00  0.00     0.068 A 
HETATM   25  C   UNL     1      25.219  48.537  49.157  1.00  0.00     0.037 A 
HETATM   26  C   UNL     1      24.015  48.068  49.683  1.00  0.00     0.003 A 
HETATM   27  C   UNL     1      22.850  48.816  49.527  1.00  0.00     0.007 A 
BRANCH  24  28
HETATM   28  O   UNL     1      26.508  50.089  48.004  1.00  0.00    -0.356 OA
HETATM   29  C   UNL     1      27.623  49.716  48.804  1.00  0.00     0.210 C 
ENDBRANCH  24  28
ENDBRANCH   6  22
TORSDOF 3
ENDMDL
MODEL 10
REMARK VINA RESULT:      -7.6     15.847     18.980
REMARK  3 active torsions:
REMARK  status: ('A' for Active; 'I' for Inactive)
REMARK    1  A    between atoms: C_8  and  C_9 
REMARK    2  A    between atoms: C_14  and  C_15 
REMARK    3  A    between atoms: C_17  and  O_18 
ROOT
HETATM    1  C   UNL     1      40.496  45.788  65.454  1.00  0.00     0.143 A 
HETATM    2  N   UNL     1      39.522  46.246  64.695  1.00  0.00    -0.223 NA
HETATM    3  C   UNL     1      38.555  45.262  64.652  1.00  0.00     0.149 A 
HETATM    4  C   UNL     1      38.969  44.174  65.401  1.00  0.00     0.046 A 
HETATM    5  C   UNL     1      38.251  42.918  65.748  1.00  0.00     0.070 C 
HETATM    6  C   UNL     1      37.667  42.152  64.539  1.00  0.00     0.042 C 
HETATM    7  C   UNL     1      37.379  42.994  63.279  1.00  0.00     0.132 C 
HETATM    8  N   UNL     1      36.662  44.231  63.531  1.00  0.00    -0.355 N 
HETATM    9  C   UNL     1      37.281  45.397  63.942  1.00  0.00     0.272 C 
HETATM   10  O   UNL     1      36.743  46.475  63.700  1.00  0.00    -0.266 OA
HETATM   11  N   UNL     1      40.201  44.523  65.894  1.00  0.00    -0.341 N 
HETATM   12  H   UNL     1      40.775  43.973  66.514  1.00  0.00     0.167 HD
HETATM   13  H   UNL     1      35.848  44.432  62.963  1.00  0.00     0.162 HD
ENDROOT
BRANCH   1  14
HETATM   14  C   UNL     1      41.720  46.566  65.782  1.00  0.00     0.059 A 
HETATM   15  C   UNL     1      41.891  47.512  66.777  1.00  0.00     0.040 A 
HETATM   16  C   UNL     1      41.007  48.080  67.818  1.00  0.00     0.071 C 
HETATM   17  N   UNL     1      43.191  47.929  66.650  1.00  0.00    -0.281 N 
HETATM   18  H   UNL     1      43.682  48.622  67.204  1.00  0.00     0.189 HD
HETATM   19  N   UNL     1      43.868  47.327  65.665  1.00  0.00    -0.179 NA
HETATM   20  C   UNL     1      42.974  46.492  65.119  1.00  0.00     0.067 A 
HETATM   21  C   UNL     1      43.356  45.645  63.960  1.00  0.00     0.073 C 
ENDBRANCH   1  14
BRANCH   6  22
HETATM   22  C   UNL     1      38.515  40.939  64.167  1.00  0.00    -0.049 A 
HETATM   23  C   UNL     1      38.942  40.013  65.138  1.00  0.00     0.044 A 
HETATM   24  C   UNL     1      39.729  38.916  64.779  1.00  0.00     0.068 A 
HETATM   25  C   UNL     1      40.094  38.742  63.443  1.00  0.00     0.037 A 
HETATM   26  C   UNL     1      39.683  39.654  62.471  1.00  0.00     0.003 A 
HETATM   27  C   UNL     1      38.898  40.747  62.831  1.00  0.00     0.007 A 
BRANCH  24  28
HETATM   28  O   UNL     1      40.199  37.951  65.626  1.00  0.00    -0.356 OA
HETATM   29  C   UNL     1      41.603  37.917  65.853  1.00  0.00     0.210 C 
ENDBRANCH  24  28
ENDBRANCH   6  22
TORSDOF 3
ENDMDL
