MODEL 1
REMARK VINA RESULT:      -9.6      0.000      0.000
REMARK  8 active torsions:
REMARK  status: ('A' for Active; 'I' for Inactive)
REMARK    1  A    between atoms: C_5  and  C_6 
REMARK    2  A    between atoms: N_7  and  N_8 
REMARK       I    between atoms: N_8  and  C_9 
REMARK    3  A    between atoms: C_9  and  C_10 
REMARK    4  A    between atoms: N_13  and  C_14 
REMARK    5  A    between atoms: C_18  and  N_19 
REMARK    6  A    between atoms: C_20  and  C_21 
REMARK    7  A    between atoms: C_21  and  N_22 
REMARK    8  A    between atoms: C_30  and  O_31 
ROOT
HETATM    1  C   UNL     1      24.803  44.512  49.171  1.00  0.00     0.170 A 
HETATM    2  N   UNL     1      24.237  43.639  48.289  1.00  0.00    -0.152 NA
HETATM    3  N   UNL     1      23.172  44.218  47.762  1.00  0.00     0.012 NA
HETATM    4  N   UNL     1      23.008  45.448  48.318  1.00  0.00    -0.215 N 
HETATM    5  C   UNL     1      24.076  45.695  49.177  1.00  0.00     0.096 A 
ENDROOT
BRANCH   1   6
HETATM    6  C   UNL     1      25.985  44.205  49.963  1.00  0.00     0.293 C 
HETATM    7  N   UNL     1      25.713  43.845  51.271  1.00  0.00    -0.242 N 
HETATM    8  H   UNL     1      24.752  43.814  51.605  1.00  0.00     0.192 HD
HETATM    9  O   UNL     1      27.104  44.290  49.464  1.00  0.00    -0.264 OA
BRANCH   7  10
HETATM   10  N   UNL     1      26.740  43.493  52.092  1.00  0.00    -0.183 NA
HETATM   11  C   UNL     1      27.373  44.468  52.666  1.00  0.00     0.153 C 
BRANCH  11  12
HETATM   12  C   UNL     1      28.493  44.197  53.592  1.00  0.00     0.017 A 
HETATM   13  C   UNL     1      28.609  44.997  54.734  1.00  0.00     0.034 A 
HETATM   14  C   UNL     1      29.652  44.762  55.631  1.00  0.00     0.012 A 
HETATM   15  C   UNL     1      30.574  43.740  55.403  1.00  0.00     0.022 A 
HETATM   16 BR   UNL     1      29.815  45.840  57.175  1.00  0.00    -0.051 Br
HETATM   17  C   UNL     1      30.456  42.943  54.263  1.00  0.00     0.039 A 
HETATM   18  C   UNL     1      29.420  43.172  53.361  1.00  0.00     0.077 A 
BRANCH  18  19
HETATM   19  O   UNL     1      29.373  42.348  52.269  1.00  0.00    -0.360 OA
HETATM   20  H   UNL     1      29.058  41.467  52.566  1.00  0.00     0.217 HD
ENDBRANCH  18  19
ENDBRANCH  11  12
ENDBRANCH   7  10
ENDBRANCH   1   6
BRANCH   5  21
HETATM   21  C   UNL     1      24.361  46.983  49.852  1.00  0.00     0.296 C 
BRANCH  21  22
HETATM   22  N   UNL     1      25.359  47.871  49.148  1.00  0.00    -0.066 N 
HETATM   23  H   UNL     1      25.599  47.389  48.268  1.00  0.00     0.280 HD
HETATM   24  C   UNL     1      24.823  49.246  48.821  1.00  0.00     0.235 C 
HETATM   25  C   UNL     1      25.855  50.001  47.992  1.00  0.00     0.028 C 
HETATM   26  C   UNL     1      27.197  50.091  48.706  1.00  0.00     0.003 C 
HETATM   27  C   UNL     1      27.691  48.712  49.129  1.00  0.00     0.028 C 
HETATM   28  C   UNL     1      26.645  47.963  49.943  1.00  0.00     0.235 C 
ENDBRANCH  21  22
ENDBRANCH   5  21
BRANCH   4  29
HETATM   29  C   UNL     1      21.873  46.256  48.064  1.00  0.00     0.225 A 
HETATM   30  N   UNL     1      21.972  47.306  47.241  1.00  0.00    -0.081 NA
HETATM   31  O   UNL     1      20.685  47.856  47.255  1.00  0.00    -0.103 OA
HETATM   32  N   UNL     1      19.850  47.154  48.110  1.00  0.00    -0.083 NA
HETATM   33  C   UNL     1      20.583  46.163  48.613  1.00  0.00     0.201 A 
BRANCH  33  34
HETATM   34  N   UNL     1      20.136  45.254  49.491  1.00  0.00    -0.379 N 
HETATM   35  H   UNL     1      20.024  45.498  50.472  1.00  0.00     0.158 HD
HETATM   36  H   UNL     1      20.029  44.263  49.284  1.00  0.00     0.158 HD
ENDBRANCH  33  34
ENDBRANCH   4  29
TORSDOF 8
ENDMDL
MODEL 2
REMARK VINA RESULT:      -9.2      4.039      8.828
REMARK  8 active torsions:
REMARK  status: ('A' for Active; 'I' for Inactive)
REMARK    1  A    between atoms: C_5  and  C_6 
REMARK    2  A    between atoms: N_7  and  N_8 
REMARK       I    between atoms: N_8  and  C_9 
REMARK    3  A    between atoms: C_9  and  C_10 
REMARK    4  A    between atoms: N_13  and  C_14 
REMARK    5  A    between atoms: C_18  and  N_19 
REMARK    6  A    between atoms: C_20  and  C_21 
REMARK    7  A    between atoms: C_21  and  N_22 
REMARK    8  A    between atoms: C_30  and  O_31 
ROOT
HETATM    1  C   UNL     1      26.159  45.633  50.315  1.00  0.00     0.170 A 
HETATM    2  N   UNL     1      26.637  44.997  49.207  1.00  0.00    -0.152 NA
HETATM    3  N   UNL     1      27.221  43.876  49.596  1.00  0.00     0.012 NA
HETATM    4  N   UNL     1      27.168  43.789  50.952  1.00  0.00    -0.215 N 
HETATM    5  C   UNL     1      26.434  44.867  51.440  1.00  0.00     0.096 A 
ENDROOT
BRANCH   1   6
HETATM    6  C   UNL     1      25.474  46.917  50.275  1.00  0.00     0.293 C 
HETATM    7  N   UNL     1      24.296  46.909  49.551  1.00  0.00    -0.242 N 
HETATM    8  H   UNL     1      23.977  46.054  49.100  1.00  0.00     0.192 HD
HETATM    9  O   UNL     1      25.956  47.894  50.844  1.00  0.00    -0.264 OA
BRANCH   7  10
HETATM   10  N   UNL     1      23.548  48.044  49.483  1.00  0.00    -0.183 NA
HETATM   11  C   UNL     1      22.496  47.992  48.727  1.00  0.00     0.153 C 
BRANCH  11  12
HETATM   12  C   UNL     1      21.604  49.163  48.596  1.00  0.00     0.017 A 
HETATM   13  C   UNL     1      20.725  49.201  47.508  1.00  0.00     0.034 A 
HETATM   14  C   UNL     1      19.865  50.290  47.360  1.00  0.00     0.012 A 
HETATM   15  C   UNL     1      19.871  51.336  48.284  1.00  0.00     0.022 A 
HETATM   16 BR   UNL     1      18.676  50.347  45.891  1.00  0.00    -0.051 Br
HETATM   17  C   UNL     1      20.749  51.296  49.368  1.00  0.00     0.039 A 
HETATM   18  C   UNL     1      21.612  50.215  49.523  1.00  0.00     0.077 A 
BRANCH  18  19
HETATM   19  O   UNL     1      22.440  50.250  50.611  1.00  0.00    -0.360 OA
HETATM   20  H   UNL     1      22.011  50.799  51.303  1.00  0.00     0.217 HD
ENDBRANCH  18  19
ENDBRANCH  11  12
ENDBRANCH   7  10
ENDBRANCH   1   6
BRANCH   5  21
HETATM   21  C   UNL     1      26.006  45.053  52.846  1.00  0.00     0.296 C 
BRANCH  21  22
HETATM   22  N   UNL     1      27.027  45.705  53.747  1.00  0.00    -0.066 N 
HETATM   23  H   UNL     1      27.851  45.894  53.156  1.00  0.00     0.280 HD
HETATM   24  C   UNL     1      26.556  47.006  54.357  1.00  0.00     0.235 C 
HETATM   25  C   UNL     1      27.706  47.644  55.126  1.00  0.00     0.028 C 
HETATM   26  C   UNL     1      28.262  46.708  56.191  1.00  0.00     0.003 C 
HETATM   27  C   UNL     1      28.643  45.357  55.595  1.00  0.00     0.028 C 
HETATM   28  C   UNL     1      27.490  44.738  54.818  1.00  0.00     0.235 C 
ENDBRANCH  21  22
ENDBRANCH   5  21
BRANCH   4  29
HETATM   29  C   UNL     1      27.836  42.773  51.678  1.00  0.00     0.225 A 
HETATM   30  N   UNL     1      29.030  43.021  52.228  1.00  0.00    -0.081 NA
HETATM   31  O   UNL     1      29.374  41.805  52.829  1.00  0.00    -0.103 OA
HETATM   32  N   UNL     1      28.404  40.841  52.599  1.00  0.00    -0.083 NA
HETATM   33  C   UNL     1      27.451  41.438  51.885  1.00  0.00     0.201 A 
BRANCH  33  34
HETATM   34  N   UNL     1      26.333  40.837  51.455  1.00  0.00    -0.379 N 
HETATM   35  H   UNL     1      26.295  40.429  50.524  1.00  0.00     0.158 HD
HETATM   36  H   UNL     1      25.438  40.879  51.938  1.00  0.00     0.158 HD
ENDBRANCH  33  34
ENDBRANCH   4  29
TORSDOF 8
ENDMDL
MODEL 3
REMARK VINA RESULT:      -9.1      3.494      5.039
REMARK  8 active torsions:
REMARK  status: ('A' for Active; 'I' for Inactive)
REMARK    1  A    between atoms: C_5  and  C_6 
REMARK    2  A    between atoms: N_7  and  N_8 
REMARK       I    between atoms: N_8  and  C_9 
REMARK    3  A    between atoms: C_9  and  C_10 
REMARK    4  A    between atoms: N_13  and  C_14 
REMARK    5  A    between atoms: C_18  and  N_19 
REMARK    6  A    between atoms: C_20  and  C_21 
REMARK    7  A    between atoms: C_21  and  N_22 
REMARK    8  A    between atoms: C_30  and  O_31 
ROOT
HETATM    1  C   UNL     1      22.677  47.967  48.687  1.00  0.00     0.170 A 
HETATM    2  N   UNL     1      22.756  47.201  47.560  1.00  0.00    -0.152 NA
HETATM    3  N   UNL     1      21.570  47.207  46.975  1.00  0.00     0.012 NA
HETATM    4  N   UNL     1      20.702  47.934  47.726  1.00  0.00    -0.215 N 
HETATM    5  C   UNL     1      21.396  48.492  48.797  1.00  0.00     0.096 A 
ENDROOT
BRANCH   1   6
HETATM    6  C   UNL     1      23.789  48.170  49.603  1.00  0.00     0.293 C 
HETATM    7  N   UNL     1      23.969  47.144  50.513  1.00  0.00    -0.242 N 
HETATM    8  H   UNL     1      23.350  46.337  50.504  1.00  0.00     0.192 HD
HETATM    9  O   UNL     1      24.468  49.192  49.537  1.00  0.00    -0.264 OA
BRANCH   7  10
HETATM   10  N   UNL     1      25.008  47.206  51.390  1.00  0.00    -0.183 NA
HETATM   11  C   UNL     1      25.064  46.263  52.278  1.00  0.00     0.153 C 
BRANCH  11  12
HETATM   12  C   UNL     1      26.162  46.224  53.268  1.00  0.00     0.017 A 
HETATM   13  C   UNL     1      27.036  45.132  53.236  1.00  0.00     0.034 A 
HETATM   14  C   UNL     1      28.086  45.070  54.154  1.00  0.00     0.012 A 
HETATM   15  C   UNL     1      28.273  46.083  55.095  1.00  0.00     0.022 A 
HETATM   16 BR   UNL     1      29.270  43.597  54.117  1.00  0.00    -0.051 Br
HETATM   17  C   UNL     1      27.400  47.171  55.124  1.00  0.00     0.039 A 
HETATM   18  C   UNL     1      26.348  47.240  54.215  1.00  0.00     0.077 A 
BRANCH  18  19
HETATM   19  O   UNL     1      25.537  48.338  54.308  1.00  0.00    -0.360 OA
HETATM   20  H   UNL     1      25.543  48.796  53.439  1.00  0.00     0.217 HD
ENDBRANCH  18  19
ENDBRANCH  11  12
ENDBRANCH   7  10
ENDBRANCH   1   6
BRANCH   5  21
HETATM   21  C   UNL     1      20.853  49.482  49.756  1.00  0.00     0.296 C 
BRANCH  21  22
HETATM   22  N   UNL     1      19.707  50.318  49.237  1.00  0.00    -0.066 N 
HETATM   23  H   UNL     1      19.415  49.882  48.349  1.00  0.00     0.280 HD
HETATM   24  C   UNL     1      18.519  50.365  50.171  1.00  0.00     0.235 C 
HETATM   25  C   UNL     1      17.377  51.110  49.491  1.00  0.00     0.028 C 
HETATM   26  C   UNL     1      17.793  52.510  49.060  1.00  0.00     0.003 C 
HETATM   27  C   UNL     1      19.053  52.472  48.201  1.00  0.00     0.028 C 
HETATM   28  C   UNL     1      20.180  51.714  48.887  1.00  0.00     0.235 C 
ENDBRANCH  21  22
ENDBRANCH   5  21
BRANCH   4  29
HETATM   29  C   UNL     1      19.318  48.006  47.437  1.00  0.00     0.225 A 
HETATM   30  N   UNL     1      18.852  48.975  46.640  1.00  0.00    -0.081 NA
HETATM   31  O   UNL     1      17.473  48.738  46.606  1.00  0.00    -0.103 OA
HETATM   32  N   UNL     1      17.130  47.661  47.408  1.00  0.00    -0.083 NA
HETATM   33  C   UNL     1      18.270  47.206  47.925  1.00  0.00     0.201 A 
BRANCH  33  34
HETATM   34  N   UNL     1      18.365  46.165  48.764  1.00  0.00    -0.379 N 
HETATM   35  H   UNL     1      17.993  45.256  48.499  1.00  0.00     0.158 HD
HETATM   36  H   UNL     1      18.661  46.237  49.735  1.00  0.00     0.158 HD
ENDBRANCH  33  34
ENDBRANCH   4  29
TORSDOF 8
ENDMDL
MODEL 4
REMARK VINA RESULT:      -8.6      2.240      4.106
REMARK  8 active torsions:
REMARK  status: ('A' for Active; 'I' for Inactive)
REMARK    1  A    between atoms: C_5  and  C_6 
REMARK    2  A    between atoms: N_7  and  N_8 
REMARK       I    between atoms: N_8  and  C_9 
REMARK    3  A    between atoms: C_9  and  C_10 
REMARK    4  A    between atoms: N_13  and  C_14 
REMARK    5  A    between atoms: C_18  and  N_19 
REMARK    6  A    between atoms: C_20  and  C_21 
REMARK    7  A    between atoms: C_21  and  N_22 
REMARK    8  A    between atoms: C_30  and  O_31 
ROOT
HETATM    1  C   UNL     1      24.670  45.300  49.794  1.00  0.00     0.170 A 
HETATM    2  N   UNL     1      24.254  46.557  49.465  1.00  0.00    -0.152 NA
HETATM    3  N   UNL     1      23.015  46.474  49.010  1.00  0.00     0.012 NA
HETATM    4  N   UNL     1      22.626  45.172  48.999  1.00  0.00    -0.215 N 
HETATM    5  C   UNL     1      23.640  44.399  49.559  1.00  0.00     0.096 A 
ENDROOT
BRANCH   1   6
HETATM    6  C   UNL     1      25.998  44.999  50.307  1.00  0.00     0.293 C 
HETATM    7  N   UNL     1      26.119  45.128  51.679  1.00  0.00    -0.242 N 
HETATM    8  H   UNL     1      25.319  45.414  52.240  1.00  0.00     0.192 HD
HETATM    9  O   UNL     1      26.901  44.676  49.539  1.00  0.00    -0.264 OA
BRANCH   7  10
HETATM   10  N   UNL     1      27.306  44.828  52.275  1.00  0.00    -0.183 NA
HETATM   11  C   UNL     1      27.311  44.825  53.571  1.00  0.00     0.153 C 
BRANCH  11  12
HETATM   12  C   UNL     1      28.542  44.495  54.319  1.00  0.00     0.017 A 
HETATM   13  C   UNL     1      28.816  45.217  55.486  1.00  0.00     0.034 A 
HETATM   14  C   UNL     1      29.967  44.923  56.218  1.00  0.00     0.012 A 
HETATM   15  C   UNL     1      30.843  43.921  55.801  1.00  0.00     0.022 A 
HETATM   16 BR   UNL     1      30.342  45.897  57.795  1.00  0.00    -0.051 Br
HETATM   17  C   UNL     1      30.568  43.202  54.637  1.00  0.00     0.039 A 
HETATM   18  C   UNL     1      29.423  43.489  53.898  1.00  0.00     0.077 A 
BRANCH  18  19
HETATM   19  O   UNL     1      29.224  42.740  52.771  1.00  0.00    -0.360 OA
HETATM   20  H   UNL     1      28.257  42.653  52.629  1.00  0.00     0.217 HD
ENDBRANCH  18  19
ENDBRANCH  11  12
ENDBRANCH   7  10
ENDBRANCH   1   6
BRANCH   5  21
HETATM   21  C   UNL     1      23.547  42.955  49.881  1.00  0.00     0.296 C 
BRANCH  21  22
HETATM   22  N   UNL     1      24.639  42.094  49.292  1.00  0.00    -0.066 N 
HETATM   23  H   UNL     1      25.243  42.730  48.749  1.00  0.00     0.280 HD
HETATM   24  C   UNL     1      25.482  41.388  50.329  1.00  0.00     0.235 C 
HETATM   25  C   UNL     1      26.631  40.668  49.635  1.00  0.00     0.028 C 
HETATM   26  C   UNL     1      26.131  39.693  48.577  1.00  0.00     0.003 C 
HETATM   27  C   UNL     1      25.198  40.382  47.588  1.00  0.00     0.028 C 
HETATM   28  C   UNL     1      24.063  41.109  48.296  1.00  0.00     0.235 C 
ENDBRANCH  21  22
ENDBRANCH   5  21
BRANCH   4  29
HETATM   29  C   UNL     1      21.402  44.746  48.430  1.00  0.00     0.225 A 
HETATM   30  N   UNL     1      21.392  43.748  47.539  1.00  0.00    -0.081 NA
HETATM   31  O   UNL     1      20.041  43.627  47.196  1.00  0.00    -0.103 OA
HETATM   32  N   UNL     1      19.271  44.574  47.853  1.00  0.00    -0.083 NA
HETATM   33  C   UNL     1      20.111  45.269  48.617  1.00  0.00     0.201 A 
BRANCH  33  34
HETATM   34  N   UNL     1      19.754  46.286  49.414  1.00  0.00    -0.379 N 
HETATM   35  H   UNL     1      19.976  46.264  50.407  1.00  0.00     0.158 HD
HETATM   36  H   UNL     1      19.133  47.042  49.133  1.00  0.00     0.158 HD
ENDBRANCH  33  34
ENDBRANCH   4  29
TORSDOF 8
ENDMDL
MODEL 5
REMARK VINA RESULT:      -8.6      3.938      8.894
REMARK  8 active torsions:
REMARK  status: ('A' for Active; 'I' for Inactive)
REMARK    1  A    between atoms: C_5  and  C_6 
REMARK    2  A    between atoms: N_7  and  N_8 
REMARK       I    between atoms: N_8  and  C_9 
REMARK    3  A    between atoms: C_9  and  C_10 
REMARK    4  A    between atoms: N_13  and  C_14 
REMARK    5  A    between atoms: C_18  and  N_19 
REMARK    6  A    between atoms: C_20  and  C_21 
REMARK    7  A    between atoms: C_21  and  N_22 
REMARK    8  A    between atoms: C_30  and  O_31 
ROOT
HETATM    1  C   UNL     1      22.826  45.442  48.656  1.00  0.00     0.170 A 
HETATM    2  N   UNL     1      22.822  44.092  48.458  1.00  0.00    -0.152 NA
HETATM    3  N   UNL     1      23.872  43.582  49.079  1.00  0.00     0.012 NA
HETATM    4  N   UNL     1      24.589  44.587  49.649  1.00  0.00    -0.215 N 
HETATM    5  C   UNL     1      23.909  45.787  49.454  1.00  0.00     0.096 A 
ENDROOT
BRANCH   1   6
HETATM    6  C   UNL     1      21.829  46.342  48.094  1.00  0.00     0.293 C 
HETATM    7  N   UNL     1      20.638  46.378  48.797  1.00  0.00    -0.242 N 
HETATM    8  H   UNL     1      20.516  45.805  49.629  1.00  0.00     0.192 HD
HETATM    9  O   UNL     1      22.075  46.979  47.073  1.00  0.00    -0.264 OA
BRANCH   7  10
HETATM   10  N   UNL     1      19.649  47.219  48.389  1.00  0.00    -0.183 NA
HETATM   11  C   UNL     1      18.913  47.733  49.323  1.00  0.00     0.153 C 
BRANCH  11  12
HETATM   12  C   UNL     1      17.822  48.674  48.992  1.00  0.00     0.017 A 
HETATM   13  C   UNL     1      17.960  50.007  49.393  1.00  0.00     0.034 A 
HETATM   14  C   UNL     1      16.950  50.921  49.088  1.00  0.00     0.012 A 
HETATM   15  C   UNL     1      15.811  50.521  48.390  1.00  0.00     0.022 A 
HETATM   16 BR   UNL     1      17.131  52.724  49.628  1.00  0.00    -0.051 Br
HETATM   17  C   UNL     1      15.675  49.190  47.992  1.00  0.00     0.039 A 
HETATM   18  C   UNL     1      16.676  48.271  48.293  1.00  0.00     0.077 A 
BRANCH  18  19
HETATM   19  O   UNL     1      16.469  46.987  47.867  1.00  0.00    -0.360 OA
HETATM   20  H   UNL     1      16.566  46.970  46.891  1.00  0.00     0.217 HD
ENDBRANCH  18  19
ENDBRANCH  11  12
ENDBRANCH   7  10
ENDBRANCH   1   6
BRANCH   5  21
HETATM   21  C   UNL     1      24.268  47.091  50.058  1.00  0.00     0.296 C 
BRANCH  21  22
HETATM   22  N   UNL     1      25.242  47.923  49.258  1.00  0.00    -0.066 N 
HETATM   23  H   UNL     1      25.455  47.376  48.410  1.00  0.00     0.280 HD
HETATM   24  C   UNL     1      24.695  49.270  48.845  1.00  0.00     0.235 C 
HETATM   25  C   UNL     1      25.699  49.960  47.930  1.00  0.00     0.028 C 
HETATM   26  C   UNL     1      27.063  50.101  48.593  1.00  0.00     0.003 C 
HETATM   27  C   UNL     1      27.572  48.757  49.102  1.00  0.00     0.028 C 
HETATM   28  C   UNL     1      26.553  48.073  50.003  1.00  0.00     0.235 C 
ENDBRANCH  21  22
ENDBRANCH   5  21
BRANCH   4  29
HETATM   29  C   UNL     1      25.846  44.374  50.264  1.00  0.00     0.225 A 
HETATM   30  N   UNL     1      26.971  44.552  49.561  1.00  0.00    -0.081 NA
HETATM   31  O   UNL     1      27.983  44.237  50.475  1.00  0.00    -0.103 OA
HETATM   32  N   UNL     1      27.452  43.840  51.692  1.00  0.00    -0.083 NA
HETATM   33  C   UNL     1      26.129  43.923  51.564  1.00  0.00     0.201 A 
BRANCH  33  34
HETATM   34  N   UNL     1      25.249  43.620  52.529  1.00  0.00    -0.379 N 
HETATM   35  H   UNL     1      25.345  44.025  53.457  1.00  0.00     0.158 HD
HETATM   36  H   UNL     1      24.550  42.884  52.455  1.00  0.00     0.158 HD
ENDBRANCH  33  34
ENDBRANCH   4  29
TORSDOF 8
ENDMDL
MODEL 6
REMARK VINA RESULT:      -8.4      2.049      2.663
REMARK  8 active torsions:
REMARK  status: ('A' for Active; 'I' for Inactive)
REMARK    1  A    between atoms: C_5  and  C_6 
REMARK    2  A    between atoms: N_7  and  N_8 
REMARK       I    between atoms: N_8  and  C_9 
REMARK    3  A    between atoms: C_9  and  C_10 
REMARK    4  A    between atoms: N_13  and  C_14 
REMARK    5  A    between atoms: C_18  and  N_19 
REMARK    6  A    between atoms: C_20  and  C_21 
REMARK    7  A    between atoms: C_21  and  N_22 
REMARK    8  A    between atoms: C_30  and  O_31 
ROOT
HETATM    1  C   UNL     1      24.768  44.165  51.187  1.00  0.00     0.170 A 
HETATM    2  N   UNL     1      24.567  43.040  50.442  1.00  0.00    -0.152 NA
HETATM    3  N   UNL     1      24.022  43.399  49.292  1.00  0.00     0.012 NA
HETATM    4  N   UNL     1      23.826  44.744  49.289  1.00  0.00    -0.215 N 
HETATM    5  C   UNL     1      24.355  45.275  50.463  1.00  0.00     0.096 A 
ENDROOT
BRANCH   1   6
HETATM    6  C   UNL     1      25.330  44.154  52.530  1.00  0.00     0.293 C 
HETATM    7  N   UNL     1      26.710  44.062  52.566  1.00  0.00    -0.242 N 
HETATM    8  H   UNL     1      27.243  44.006  51.701  1.00  0.00     0.192 HD
HETATM    9  O   UNL     1      24.593  44.210  53.510  1.00  0.00    -0.264 OA
BRANCH   7  10
HETATM   10  N   UNL     1      27.348  44.088  53.768  1.00  0.00    -0.183 NA
HETATM   11  C   UNL     1      28.101  45.118  53.994  1.00  0.00     0.153 C 
BRANCH  11  12
HETATM   12  C   UNL     1      28.825  45.255  55.275  1.00  0.00     0.017 A 
HETATM   13  C   UNL     1      29.869  44.361  55.539  1.00  0.00     0.034 A 
HETATM   14  C   UNL     1      30.576  44.470  56.738  1.00  0.00     0.012 A 
HETATM   15  C   UNL     1      30.255  45.458  57.669  1.00  0.00     0.022 A 
HETATM   16 BR   UNL     1      31.986  43.264  57.101  1.00  0.00    -0.051 Br
HETATM   17  C   UNL     1      29.214  46.348  57.404  1.00  0.00     0.039 A 
HETATM   18  C   UNL     1      28.501  46.246  56.212  1.00  0.00     0.077 A 
BRANCH  18  19
HETATM   19  O   UNL     1      27.497  47.156  56.026  1.00  0.00    -0.360 OA
HETATM   20  H   UNL     1      27.163  47.427  56.909  1.00  0.00     0.217 HD
ENDBRANCH  18  19
ENDBRANCH  11  12
ENDBRANCH   7  10
ENDBRANCH   1   6
BRANCH   5  21
HETATM   21  C   UNL     1      24.491  46.718  50.773  1.00  0.00     0.296 C 
BRANCH  21  22
HETATM   22  N   UNL     1      25.238  47.529  49.741  1.00  0.00    -0.066 N 
HETATM   23  H   UNL     1      25.318  46.927  48.907  1.00  0.00     0.280 HD
HETATM   24  C   UNL     1      24.536  48.810  49.352  1.00  0.00     0.235 C 
HETATM   25  C   UNL     1      25.299  49.472  48.211  1.00  0.00     0.028 C 
HETATM   26  C   UNL     1      26.753  49.733  48.580  1.00  0.00     0.003 C 
HETATM   27  C   UNL     1      27.435  48.461  49.071  1.00  0.00     0.028 C 
HETATM   28  C   UNL     1      26.656  47.803  50.200  1.00  0.00     0.235 C 
ENDBRANCH  21  22
ENDBRANCH   5  21
BRANCH   4  29
HETATM   29  C   UNL     1      23.126  45.411  48.254  1.00  0.00     0.225 A 
HETATM   30  N   UNL     1      22.449  46.533  48.522  1.00  0.00    -0.081 NA
HETATM   31  O   UNL     1      21.888  46.880  47.287  1.00  0.00    -0.103 OA
HETATM   32  N   UNL     1      22.203  45.946  46.313  1.00  0.00    -0.083 NA
HETATM   33  C   UNL     1      22.969  45.034  46.909  1.00  0.00     0.201 A 
BRANCH  33  34
HETATM   34  N   UNL     1      23.483  43.955  46.302  1.00  0.00    -0.379 N 
HETATM   35  H   UNL     1      23.159  43.023  46.549  1.00  0.00     0.158 HD
HETATM   36  H   UNL     1      24.299  43.974  45.694  1.00  0.00     0.158 HD
ENDBRANCH  33  34
ENDBRANCH   4  29
TORSDOF 8
ENDMDL
MODEL 7
REMARK VINA RESULT:      -8.4      2.754      4.553
REMARK  8 active torsions:
REMARK  status: ('A' for Active; 'I' for Inactive)
REMARK    1  A    between atoms: C_5  and  C_6 
REMARK    2  A    between atoms: N_7  and  N_8 
REMARK       I    between atoms: N_8  and  C_9 
REMARK    3  A    between atoms: C_9  and  C_10 
REMARK    4  A    between atoms: N_13  and  C_14 
REMARK    5  A    between atoms: C_18  and  N_19 
REMARK    6  A    between atoms: C_20  and  C_21 
REMARK    7  A    between atoms: C_21  and  N_22 
REMARK    8  A    between atoms: C_30  and  O_31 
ROOT
HETATM    1  C   UNL     1      23.285  46.441  48.854  1.00  0.00     0.170 A 
HETATM    2  N   UNL     1      22.879  47.462  48.046  1.00  0.00    -0.152 NA
HETATM    3  N   UNL     1      21.805  47.062  47.386  1.00  0.00     0.012 NA
HETATM    4  N   UNL     1      21.525  45.775  47.721  1.00  0.00    -0.215 N 
HETATM    5  C   UNL     1      22.416  45.368  48.712  1.00  0.00     0.096 A 
ENDROOT
BRANCH   1   6
HETATM    6  C   UNL     1      24.458  46.511  49.713  1.00  0.00     0.293 C 
HETATM    7  N   UNL     1      24.253  47.200  50.896  1.00  0.00    -0.242 N 
HETATM    8  H   UNL     1      23.344  47.607  51.101  1.00  0.00     0.192 HD
HETATM    9  O   UNL     1      25.516  45.997  49.361  1.00  0.00    -0.264 OA
BRANCH   7  10
HETATM   10  N   UNL     1      25.269  47.291  51.798  1.00  0.00    -0.183 NA
HETATM   11  C   UNL     1      25.322  46.357  52.695  1.00  0.00     0.153 C 
BRANCH  11  12
HETATM   12  C   UNL     1      26.396  46.349  53.711  1.00  0.00     0.017 A 
HETATM   13  C   UNL     1      27.291  45.274  53.713  1.00  0.00     0.034 A 
HETATM   14  C   UNL     1      28.319  45.242  54.657  1.00  0.00     0.012 A 
HETATM   15  C   UNL     1      28.464  46.267  55.591  1.00  0.00     0.022 A 
HETATM   16 BR   UNL     1      29.532  43.791  54.664  1.00  0.00    -0.051 Br
HETATM   17  C   UNL     1      27.569  47.338  55.588  1.00  0.00     0.039 A 
HETATM   18  C   UNL     1      26.539  47.378  54.652  1.00  0.00     0.077 A 
BRANCH  18  19
HETATM   19  O   UNL     1      25.705  48.461  54.714  1.00  0.00    -0.360 OA
HETATM   20  H   UNL     1      25.389  48.655  53.805  1.00  0.00     0.217 HD
ENDBRANCH  18  19
ENDBRANCH  11  12
ENDBRANCH   7  10
ENDBRANCH   1   6
BRANCH   5  21
HETATM   21  C   UNL     1      22.347  44.093  49.464  1.00  0.00     0.296 C 
BRANCH  21  22
HETATM   22  N   UNL     1      23.618  43.277  49.463  1.00  0.00    -0.066 N 
HETATM   23  H   UNL     1      24.293  43.801  48.885  1.00  0.00     0.280 HD
HETATM   24  C   UNL     1      24.209  43.071  50.839  1.00  0.00     0.235 C 
HETATM   25  C   UNL     1      25.552  42.364  50.706  1.00  0.00     0.028 C 
HETATM   26  C   UNL     1      25.423  41.042  49.961  1.00  0.00     0.003 C 
HETATM   27  C   UNL     1      24.734  41.233  48.614  1.00  0.00     0.028 C 
HETATM   28  C   UNL     1      23.401  41.953  48.760  1.00  0.00     0.235 C 
ENDBRANCH  21  22
ENDBRANCH   5  21
BRANCH   4  29
HETATM   29  C   UNL     1      20.519  45.018  47.073  1.00  0.00     0.225 A 
HETATM   30  N   UNL     1      20.761  44.475  45.874  1.00  0.00    -0.081 NA
HETATM   31  O   UNL     1      19.557  43.838  45.554  1.00  0.00    -0.103 OA
HETATM   32  N   UNL     1      18.605  44.039  46.541  1.00  0.00    -0.083 NA
HETATM   33  C   UNL     1      19.198  44.771  47.483  1.00  0.00     0.201 A 
BRANCH  33  34
HETATM   34  N   UNL     1      18.606  45.183  48.613  1.00  0.00    -0.379 N 
HETATM   35  H   UNL     1      17.738  45.712  48.575  1.00  0.00     0.158 HD
HETATM   36  H   UNL     1      19.037  45.137  49.534  1.00  0.00     0.158 HD
ENDBRANCH  33  34
ENDBRANCH   4  29
TORSDOF 8
ENDMDL
MODEL 8
REMARK VINA RESULT:      -8.4      3.802      8.517
REMARK  8 active torsions:
REMARK  status: ('A' for Active; 'I' for Inactive)
REMARK    1  A    between atoms: C_5  and  C_6 
REMARK    2  A    between atoms: N_7  and  N_8 
REMARK       I    between atoms: N_8  and  C_9 
REMARK    3  A    between atoms: C_9  and  C_10 
REMARK    4  A    between atoms: N_13  and  C_14 
REMARK    5  A    between atoms: C_18  and  N_19 
REMARK    6  A    between atoms: C_20  and  C_21 
REMARK    7  A    between atoms: C_21  and  N_22 
REMARK    8  A    between atoms: C_30  and  O_31 
ROOT
HETATM    1  C   UNL     1      25.264  43.525  50.671  1.00  0.00     0.170 A 
HETATM    2  N   UNL     1      24.446  42.471  50.387  1.00  0.00    -0.152 NA
HETATM    3  N   UNL     1      25.201  41.400  50.210  1.00  0.00     0.012 NA
HETATM    4  N   UNL     1      26.510  41.748  50.335  1.00  0.00    -0.215 N 
HETATM    5  C   UNL     1      26.582  43.091  50.697  1.00  0.00     0.096 A 
ENDROOT
BRANCH   1   6
HETATM    6  C   UNL     1      24.782  44.880  50.901  1.00  0.00     0.293 C 
HETATM    7  N   UNL     1      24.587  45.615  49.746  1.00  0.00    -0.242 N 
HETATM    8  H   UNL     1      24.779  45.202  48.836  1.00  0.00     0.192 HD
HETATM    9  O   UNL     1      24.597  45.286  52.045  1.00  0.00    -0.264 OA
BRANCH   7  10
HETATM   10  N   UNL     1      24.095  46.881  49.838  1.00  0.00    -0.183 NA
HETATM   11  C   UNL     1      23.141  47.186  49.016  1.00  0.00     0.153 C 
BRANCH  11  12
HETATM   12  C   UNL     1      22.522  48.528  49.043  1.00  0.00     0.017 A 
HETATM   13  C   UNL     1      21.125  48.608  49.043  1.00  0.00     0.034 A 
HETATM   14  C   UNL     1      20.512  49.862  49.075  1.00  0.00     0.012 A 
HETATM   15  C   UNL     1      21.274  51.029  49.109  1.00  0.00     0.022 A 
HETATM   16 BR   UNL     1      18.624  49.976  49.075  1.00  0.00    -0.051 Br
HETATM   17  C   UNL     1      22.667  50.947  49.108  1.00  0.00     0.039 A 
HETATM   18  C   UNL     1      23.288  49.701  49.074  1.00  0.00     0.077 A 
BRANCH  18  19
HETATM   19  O   UNL     1      24.656  49.705  49.076  1.00  0.00    -0.360 OA
HETATM   20  H   UNL     1      24.960  49.701  50.010  1.00  0.00     0.217 HD
ENDBRANCH  18  19
ENDBRANCH  11  12
ENDBRANCH   7  10
ENDBRANCH   1   6
BRANCH   5  21
HETATM   21  C   UNL     1      27.814  43.814  51.090  1.00  0.00     0.296 C 
BRANCH  21  22
HETATM   22  N   UNL     1      28.241  43.623  52.526  1.00  0.00    -0.066 N 
HETATM   23  H   UNL     1      27.694  42.825  52.883  1.00  0.00     0.280 HD
HETATM   24  C   UNL     1      29.712  43.317  52.687  1.00  0.00     0.235 C 
HETATM   25  C   UNL     1      30.002  43.005  54.150  1.00  0.00     0.028 C 
HETATM   26  C   UNL     1      29.575  44.144  55.066  1.00  0.00     0.003 C 
HETATM   27  C   UNL     1      28.116  44.523  54.833  1.00  0.00     0.028 C 
HETATM   28  C   UNL     1      27.838  44.818  53.366  1.00  0.00     0.235 C 
ENDBRANCH  21  22
ENDBRANCH   5  21
BRANCH   4  29
HETATM   29  C   UNL     1      27.568  40.849  50.058  1.00  0.00     0.225 A 
HETATM   30  N   UNL     1      27.845  40.516  48.792  1.00  0.00    -0.081 NA
HETATM   31  O   UNL     1      28.912  39.618  48.915  1.00  0.00    -0.103 OA
HETATM   32  N   UNL     1      29.231  39.399  50.247  1.00  0.00    -0.083 NA
HETATM   33  C   UNL     1      28.399  40.159  50.956  1.00  0.00     0.201 A 
BRANCH  33  34
HETATM   34  N   UNL     1      28.385  40.228  52.295  1.00  0.00    -0.379 N 
HETATM   35  H   UNL     1      28.789  39.480  52.853  1.00  0.00     0.158 HD
HETATM   36  H   UNL     1      27.860  40.920  52.827  1.00  0.00     0.158 HD
ENDBRANCH  33  34
ENDBRANCH   4  29
TORSDOF 8
ENDMDL
MODEL 9
REMARK VINA RESULT:      -8.4      3.966      5.475
REMARK  8 active torsions:
REMARK  status: ('A' for Active; 'I' for Inactive)
REMARK    1  A    between atoms: C_5  and  C_6 
REMARK    2  A    between atoms: N_7  and  N_8 
REMARK       I    between atoms: N_8  and  C_9 
REMARK    3  A    between atoms: C_9  and  C_10 
REMARK    4  A    between atoms: N_13  and  C_14 
REMARK    5  A    between atoms: C_18  and  N_19 
REMARK    6  A    between atoms: C_20  and  C_21 
REMARK    7  A    between atoms: C_21  and  N_22 
REMARK    8  A    between atoms: C_30  and  O_31 
ROOT
HETATM    1  C   UNL     1      24.362  43.237  50.620  1.00  0.00     0.170 A 
HETATM    2  N   UNL     1      23.032  42.933  50.596  1.00  0.00    -0.152 NA
HETATM    3  N   UNL     1      22.786  42.254  49.488  1.00  0.00     0.012 NA
HETATM    4  N   UNL     1      23.932  42.144  48.764  1.00  0.00    -0.215 N 
HETATM    5  C   UNL     1      24.976  42.706  49.495  1.00  0.00     0.096 A 
ENDROOT
BRANCH   1   6
HETATM    6  C   UNL     1      24.994  44.005  51.683  1.00  0.00     0.293 C 
HETATM    7  N   UNL     1      25.785  43.253  52.533  1.00  0.00    -0.242 N 
HETATM    8  H   UNL     1      25.884  42.251  52.388  1.00  0.00     0.192 HD
HETATM    9  O   UNL     1      24.794  45.214  51.778  1.00  0.00    -0.264 OA
BRANCH   7  10
HETATM   10  N   UNL     1      26.461  43.874  53.538  1.00  0.00    -0.183 NA
HETATM   11  C   UNL     1      27.754  43.812  53.481  1.00  0.00     0.153 C 
BRANCH  11  12
HETATM   12  C   UNL     1      28.586  44.468  54.512  1.00  0.00     0.017 A 
HETATM   13  C   UNL     1      29.610  43.720  55.104  1.00  0.00     0.034 A 
HETATM   14  C   UNL     1      30.417  44.314  56.076  1.00  0.00     0.012 A 
HETATM   15  C   UNL     1      30.216  45.640  56.459  1.00  0.00     0.022 A 
HETATM   16 BR   UNL     1      31.801  43.308  56.880  1.00  0.00    -0.051 Br
HETATM   17  C   UNL     1      29.194  46.384  55.867  1.00  0.00     0.039 A 
HETATM   18  C   UNL     1      28.382  45.799  54.898  1.00  0.00     0.077 A 
BRANCH  18  19
HETATM   19  O   UNL     1      27.404  46.594  54.366  1.00  0.00    -0.360 OA
HETATM   20  H   UNL     1      27.688  47.530  54.458  1.00  0.00     0.217 HD
ENDBRANCH  18  19
ENDBRANCH  11  12
ENDBRANCH   7  10
ENDBRANCH   1   6
BRANCH   5  21
HETATM   21  C   UNL     1      26.412  42.644  49.134  1.00  0.00     0.296 C 
BRANCH  21  22
HETATM   22  N   UNL     1      26.983  41.252  49.003  1.00  0.00    -0.066 N 
HETATM   23  H   UNL     1      26.181  40.606  49.081  1.00  0.00     0.280 HD
HETATM   24  C   UNL     1      27.682  41.004  47.686  1.00  0.00     0.235 C 
HETATM   25  C   UNL     1      28.089  39.538  47.604  1.00  0.00     0.028 C 
HETATM   26  C   UNL     1      28.969  39.129  48.779  1.00  0.00     0.003 C 
HETATM   27  C   UNL     1      28.308  39.473  50.109  1.00  0.00     0.028 C 
HETATM   28  C   UNL     1      27.894  40.936  50.171  1.00  0.00     0.235 C 
ENDBRANCH  21  22
ENDBRANCH   5  21
BRANCH   4  29
HETATM   29  C   UNL     1      23.960  41.596  47.459  1.00  0.00     0.225 A 
HETATM   30  N   UNL     1      24.154  40.283  47.292  1.00  0.00    -0.081 NA
HETATM   31  O   UNL     1      24.139  40.124  45.901  1.00  0.00    -0.103 OA
HETATM   32  N   UNL     1      23.977  41.341  45.260  1.00  0.00    -0.083 NA
HETATM   33  C   UNL     1      23.867  42.255  46.222  1.00  0.00     0.201 A 
BRANCH  33  34
HETATM   34  N   UNL     1      23.699  43.568  46.011  1.00  0.00    -0.379 N 
HETATM   35  H   UNL     1      23.531  44.197  46.793  1.00  0.00     0.158 HD
HETATM   36  H   UNL     1      23.577  43.990  45.092  1.00  0.00     0.158 HD
ENDBRANCH  33  34
ENDBRANCH   4  29
TORSDOF 8
ENDMDL
MODEL 10
REMARK VINA RESULT:      -8.3      2.976      4.288
REMARK  8 active torsions:
REMARK  status: ('A' for Active; 'I' for Inactive)
REMARK    1  A    between atoms: C_5  and  C_6 
REMARK    2  A    between atoms: N_7  and  N_8 
REMARK       I    between atoms: N_8  and  C_9 
REMARK    3  A    between atoms: C_9  and  C_10 
REMARK    4  A    between atoms: N_13  and  C_14 
REMARK    5  A    between atoms: C_18  and  N_19 
REMARK    6  A    between atoms: C_20  and  C_21 
REMARK    7  A    between atoms: C_21  and  N_22 
REMARK    8  A    between atoms: C_30  and  O_31 
ROOT
HETATM    1  C   UNL     1      22.724  45.294  49.076  1.00  0.00     0.170 A 
HETATM    2  N   UNL     1      22.635  43.937  48.962  1.00  0.00    -0.152 NA
HETATM    3  N   UNL     1      21.582  43.656  48.214  1.00  0.00     0.012 NA
HETATM    4  N   UNL     1      20.954  44.811  47.869  1.00  0.00    -0.215 N 
HETATM    5  C   UNL     1      21.700  45.885  48.350  1.00  0.00     0.096 A 
ENDROOT
BRANCH   1   6
HETATM    6  C   UNL     1      23.751  45.972  49.854  1.00  0.00     0.293 C 
HETATM    7  N   UNL     1      24.415  45.154  50.751  1.00  0.00    -0.242 N 
HETATM    8  H   UNL     1      24.169  44.170  50.827  1.00  0.00     0.192 HD
HETATM    9  O   UNL     1      23.958  47.172  49.694  1.00  0.00    -0.264 OA
BRANCH   7  10
HETATM   10  N   UNL     1      25.427  45.671  51.500  1.00  0.00    -0.183 NA
HETATM   11  C   UNL     1      25.543  45.205  52.704  1.00  0.00     0.153 C 
BRANCH  11  12
HETATM   12  C   UNL     1      26.619  45.684  53.597  1.00  0.00     0.017 A 
HETATM   13  C   UNL     1      27.635  44.785  53.942  1.00  0.00     0.034 A 
HETATM   14  C   UNL     1      28.669  45.210  54.778  1.00  0.00     0.012 A 
HETATM   15  C   UNL     1      28.701  46.515  55.269  1.00  0.00     0.022 A 
HETATM   16 BR   UNL     1      30.043  44.000  55.249  1.00  0.00    -0.051 Br
HETATM   17  C   UNL     1      27.687  47.410  54.924  1.00  0.00     0.039 A 
HETATM   18  C   UNL     1      26.650  46.995  54.092  1.00  0.00     0.077 A 
BRANCH  18  19
HETATM   19  O   UNL     1      25.695  47.930  53.800  1.00  0.00    -0.360 OA
HETATM   20  H   UNL     1      24.857  47.655  54.230  1.00  0.00     0.217 HD
ENDBRANCH  18  19
ENDBRANCH  11  12
ENDBRANCH   7  10
ENDBRANCH   1   6
BRANCH   5  21
HETATM   21  C   UNL     1      21.448  47.314  48.049  1.00  0.00     0.296 C 
BRANCH  21  22
HETATM   22  N   UNL     1      20.802  48.101  49.164  1.00  0.00    -0.066 N 
HETATM   23  H   UNL     1      21.243  47.774  50.037  1.00  0.00     0.280 HD
HETATM   24  C   UNL     1      21.001  49.595  49.047  1.00  0.00     0.235 C 
HETATM   25  C   UNL     1      20.436  50.274  50.288  1.00  0.00     0.028 C 
HETATM   26  C   UNL     1      18.967  49.930  50.502  1.00  0.00     0.003 C 
HETATM   27  C   UNL     1      18.750  48.421  50.518  1.00  0.00     0.028 C 
HETATM   28  C   UNL     1      19.331  47.755  49.279  1.00  0.00     0.235 C 
ENDBRANCH  21  22
ENDBRANCH   5  21
BRANCH   4  29
HETATM   29  C   UNL     1      19.712  44.831  47.189  1.00  0.00     0.225 A 
HETATM   30  N   UNL     1      18.594  44.477  47.833  1.00  0.00    -0.081 NA
HETATM   31  O   UNL     1      17.600  44.601  46.856  1.00  0.00    -0.103 OA
HETATM   32  N   UNL     1      18.139  44.988  45.639  1.00  0.00    -0.083 NA
HETATM   33  C   UNL     1      19.447  45.131  45.842  1.00  0.00     0.201 A 
BRANCH  33  34
HETATM   34  N   UNL     1      20.329  45.496  44.901  1.00  0.00    -0.379 N 
HETATM   35  H   UNL     1      20.174  45.249  43.927  1.00  0.00     0.158 HD
HETATM   36  H   UNL     1      21.247  45.890  45.099  1.00  0.00     0.158 HD
ENDBRANCH  33  34
ENDBRANCH   4  29
TORSDOF 8
ENDMDL
