MODEL 1
REMARK VINA RESULT:      -9.7      0.000      0.000
REMARK  5 active torsions:
REMARK  status: ('A' for Active; 'I' for Inactive)
REMARK       I    between atoms: C_2  and  N_3 
REMARK    1  A    between atoms: N_3  and  C_4 
REMARK    2  A    between atoms: N_7  and  C_8 
REMARK    3  A    between atoms: C_8  and  C_9 
REMARK       I    between atoms: C_9  and  N_10 
REMARK    4  A    between atoms: C_13  and  O_14 
REMARK    5  A    between atoms: C_13  and  C_15 
ROOT
HETATM    1  C   UNL     1      26.748  45.980  50.165  1.00  0.00     0.238 C 
HETATM    2  N   UNL     1      26.762  45.059  51.221  1.00  0.00    -0.350 N 
HETATM    3  C   UNL     1      26.097  45.316  52.497  1.00  0.00     0.129 C 
HETATM    4  C   UNL     1      25.890  44.045  53.305  1.00  0.00     0.063 C 
HETATM    5  C   UNL     1      27.229  43.340  53.573  1.00  0.00     0.088 C 
HETATM    6  C   UNL     1      27.825  42.985  52.200  1.00  0.00     0.063 C 
HETATM    7  C   UNL     1      27.918  44.165  51.237  1.00  0.00     0.129 C 
HETATM    8  O   UNL     1      27.360  45.762  49.114  1.00  0.00    -0.272 OA
ENDROOT
BRANCH   1   9
HETATM    9  C   UNL     1      26.026  47.307  50.347  1.00  0.00     0.231 C 
BRANCH   9  10
HETATM   10  N   UNL     1      24.725  47.307  49.685  1.00  0.00    -0.347 N 
HETATM   11  C   UNL     1      24.133  48.379  49.042  1.00  0.00     0.047 A 
HETATM   12  C   UNL     1      22.897  47.935  48.546  1.00  0.00     0.019 A 
HETATM   13  C   UNL     1      24.566  49.700  48.853  1.00  0.00     0.031 A 
HETATM   14  C   UNL     1      22.047  48.836  47.849  1.00  0.00     0.047 A 
HETATM   15  C   UNL     1      22.770  46.567  48.931  1.00  0.00     0.033 A 
HETATM   16  C   UNL     1      22.500  50.145  47.646  1.00  0.00     0.030 A 
HETATM   17  C   UNL     1      23.734  50.567  48.144  1.00  0.00     0.005 A 
HETATM   18  C   UNL     1      23.889  46.219  49.644  1.00  0.00     0.092 A 
BRANCH  14  19
HETATM   19  N   UNL     1      20.822  48.336  47.367  1.00  0.00    -0.327 N 
HETATM   20  C   UNL     1      19.569  48.260  47.893  1.00  0.00     0.218 C 
HETATM   21  C   UNL     1      19.309  48.565  49.339  1.00  0.00     0.117 C 
HETATM   22  O   UNL     1      18.648  47.881  47.163  1.00  0.00    -0.274 OA
HETATM   23  H   UNL     1      20.852  47.923  46.442  1.00  0.00     0.169 HD
ENDBRANCH  14  19
ENDBRANCH   9  10
ENDBRANCH   1   9
BRANCH   5  24
HETATM   24  O   UNL     1      26.932  42.089  54.216  1.00  0.00    -0.385 OA
HETATM   25  H   UNL     1      27.095  41.380  53.569  1.00  0.00     0.211 HD
ENDBRANCH   5  24
BRANCH   5  26
HETATM   26  C   UNL     1      28.104  44.132  54.550  1.00  0.00    -0.024 A 
HETATM   27  C   UNL     1      29.448  43.739  54.732  1.00  0.00     0.012 A 
HETATM   28  C   UNL     1      30.283  44.385  55.648  1.00  0.00     0.024 A 
HETATM   29  C   UNL     1      29.790  45.449  56.392  1.00  0.00     0.034 A 
HETATM   30 CL   UNL     1      30.804  46.238  57.535  1.00  0.00    -0.084 Cl
HETATM   31  C   UNL     1      28.482  45.884  56.208  1.00  0.00     0.024 A 
HETATM   32  C   UNL     1      27.649  45.238  55.283  1.00  0.00     0.012 A 
ENDBRANCH   5  26
TORSDOF 5
ENDMDL
MODEL 2
REMARK VINA RESULT:      -8.9      5.386      9.014
REMARK  5 active torsions:
REMARK  status: ('A' for Active; 'I' for Inactive)
REMARK       I    between atoms: C_2  and  N_3 
REMARK    1  A    between atoms: N_3  and  C_4 
REMARK    2  A    between atoms: N_7  and  C_8 
REMARK    3  A    between atoms: C_8  and  C_9 
REMARK       I    between atoms: C_9  and  N_10 
REMARK    4  A    between atoms: C_13  and  O_14 
REMARK    5  A    between atoms: C_13  and  C_15 
ROOT
HETATM    1  C   UNL     1      26.391  43.167  49.884  1.00  0.00     0.238 C 
HETATM    2  N   UNL     1      26.435  41.983  49.135  1.00  0.00    -0.350 N 
HETATM    3  C   UNL     1      25.737  40.766  49.546  1.00  0.00     0.129 C 
HETATM    4  C   UNL     1      25.581  39.777  48.401  1.00  0.00     0.063 C 
HETATM    5  C   UNL     1      26.949  39.395  47.815  1.00  0.00     0.088 C 
HETATM    6  C   UNL     1      27.585  40.694  47.290  1.00  0.00     0.063 C 
HETATM    7  C   UNL     1      27.634  41.823  48.315  1.00  0.00     0.129 C 
HETATM    8  O   UNL     1      27.031  44.167  49.543  1.00  0.00    -0.272 OA
ENDROOT
BRANCH   1   9
HETATM    9  C   UNL     1      25.601  43.193  51.184  1.00  0.00     0.231 C 
BRANCH   9  10
HETATM   10  N   UNL     1      26.368  43.799  52.268  1.00  0.00    -0.347 N 
HETATM   11  C   UNL     1      27.599  43.377  52.738  1.00  0.00     0.047 A 
HETATM   12  C   UNL     1      27.968  44.248  53.775  1.00  0.00     0.019 A 
HETATM   13  C   UNL     1      28.421  42.309  52.350  1.00  0.00     0.031 A 
HETATM   14  C   UNL     1      29.192  44.045  54.469  1.00  0.00     0.047 A 
HETATM   15  C   UNL     1      26.907  45.191  53.916  1.00  0.00     0.033 A 
HETATM   16  C   UNL     1      30.015  42.990  54.058  1.00  0.00     0.030 A 
HETATM   17  C   UNL     1      29.632  42.138  53.021  1.00  0.00     0.005 A 
HETATM   18  C   UNL     1      25.935  44.877  53.000  1.00  0.00     0.092 A 
BRANCH  14  19
HETATM   19  N   UNL     1      29.517  44.952  55.496  1.00  0.00    -0.327 N 
HETATM   20  C   UNL     1      30.447  44.947  56.492  1.00  0.00     0.218 C 
HETATM   21  C   UNL     1      31.249  43.718  56.806  1.00  0.00     0.117 C 
HETATM   22  O   UNL     1      30.582  45.968  57.172  1.00  0.00    -0.274 OA
HETATM   23  H   UNL     1      28.945  45.787  55.540  1.00  0.00     0.169 HD
ENDBRANCH  14  19
ENDBRANCH   9  10
ENDBRANCH   1   9
BRANCH   5  24
HETATM   24  O   UNL     1      26.705  38.573  46.661  1.00  0.00    -0.385 OA
HETATM   25  H   UNL     1      26.784  39.141  45.874  1.00  0.00     0.211 HD
ENDBRANCH   5  24
BRANCH   5  26
HETATM   26  C   UNL     1      27.768  38.542  48.790  1.00  0.00    -0.024 A 
HETATM   27  C   UNL     1      27.179  37.383  49.340  1.00  0.00     0.012 A 
HETATM   28  C   UNL     1      27.852  36.593  50.275  1.00  0.00     0.024 A 
HETATM   29  C   UNL     1      29.137  36.941  50.670  1.00  0.00     0.034 A 
HETATM   30 CL   UNL     1      29.965  35.986  51.835  1.00  0.00    -0.084 Cl
HETATM   31  C   UNL     1      29.758  38.057  50.118  1.00  0.00     0.024 A 
HETATM   32  C   UNL     1      29.083  38.844  49.175  1.00  0.00     0.012 A 
ENDBRANCH   5  26
TORSDOF 5
ENDMDL
MODEL 3
REMARK VINA RESULT:      -8.8      4.431      7.740
REMARK  5 active torsions:
REMARK  status: ('A' for Active; 'I' for Inactive)
REMARK       I    between atoms: C_2  and  N_3 
REMARK    1  A    between atoms: N_3  and  C_4 
REMARK    2  A    between atoms: N_7  and  C_8 
REMARK    3  A    between atoms: C_8  and  C_9 
REMARK       I    between atoms: C_9  and  N_10 
REMARK    4  A    between atoms: C_13  and  O_14 
REMARK    5  A    between atoms: C_13  and  C_15 
ROOT
HETATM    1  C   UNL     1      25.003  43.803  51.234  1.00  0.00     0.238 C 
HETATM    2  N   UNL     1      25.491  44.768  52.127  1.00  0.00    -0.350 N 
HETATM    3  C   UNL     1      26.750  45.477  51.906  1.00  0.00     0.129 C 
HETATM    4  C   UNL     1      26.857  46.737  52.752  1.00  0.00     0.063 C 
HETATM    5  C   UNL     1      26.723  46.407  54.247  1.00  0.00     0.088 C 
HETATM    6  C   UNL     1      25.334  45.775  54.439  1.00  0.00     0.063 C 
HETATM    7  C   UNL     1      25.051  44.599  53.509  1.00  0.00     0.129 C 
HETATM    8  O   UNL     1      23.962  43.180  51.467  1.00  0.00    -0.272 OA
ENDROOT
BRANCH   1   9
HETATM    9  C   UNL     1      25.814  43.464  49.992  1.00  0.00     0.231 C 
BRANCH   9  10
HETATM   10  N   UNL     1      26.721  42.344  50.230  1.00  0.00    -0.347 N 
HETATM   11  C   UNL     1      27.244  41.494  49.272  1.00  0.00     0.047 A 
HETATM   12  C   UNL     1      28.067  40.574  49.939  1.00  0.00     0.019 A 
HETATM   13  C   UNL     1      27.067  41.447  47.882  1.00  0.00     0.031 A 
HETATM   14  C   UNL     1      28.730  39.554  49.203  1.00  0.00     0.047 A 
HETATM   15  C   UNL     1      28.002  40.896  51.327  1.00  0.00     0.033 A 
HETATM   16  C   UNL     1      28.565  39.531  47.814  1.00  0.00     0.030 A 
HETATM   17  C   UNL     1      27.745  40.458  47.169  1.00  0.00     0.005 A 
HETATM   18  C   UNL     1      27.155  41.965  51.476  1.00  0.00     0.092 A 
BRANCH  14  19
HETATM   19  N   UNL     1      29.550  38.661  49.921  1.00  0.00    -0.327 N 
HETATM   20  C   UNL     1      29.378  37.388  50.372  1.00  0.00     0.218 C 
HETATM   21  C   UNL     1      28.035  36.720  50.334  1.00  0.00     0.117 C 
HETATM   22  O   UNL     1      30.348  36.805  50.865  1.00  0.00    -0.274 OA
HETATM   23  H   UNL     1      30.459  39.020  50.187  1.00  0.00     0.169 HD
ENDBRANCH  14  19
ENDBRANCH   9  10
ENDBRANCH   1   9
BRANCH   5  24
HETATM   24  O   UNL     1      26.697  47.656  54.959  1.00  0.00    -0.385 OA
HETATM   25  H   UNL     1      27.529  48.123  54.763  1.00  0.00     0.211 HD
ENDBRANCH   5  24
BRANCH   5  26
HETATM   26  C   UNL     1      27.939  45.635  54.770  1.00  0.00    -0.024 A 
HETATM   27  C   UNL     1      28.765  46.243  55.741  1.00  0.00     0.012 A 
HETATM   28  C   UNL     1      29.918  45.615  56.219  1.00  0.00     0.024 A 
HETATM   29  C   UNL     1      30.261  44.357  55.742  1.00  0.00     0.034 A 
HETATM   30 CL   UNL     1      31.689  43.585  56.309  1.00  0.00    -0.084 Cl
HETATM   31  C   UNL     1      29.448  43.717  54.813  1.00  0.00     0.024 A 
HETATM   32  C   UNL     1      28.288  44.346  54.341  1.00  0.00     0.012 A 
ENDBRANCH   5  26
TORSDOF 5
ENDMDL
MODEL 4
REMARK VINA RESULT:      -8.8      5.508      9.067
REMARK  5 active torsions:
REMARK  status: ('A' for Active; 'I' for Inactive)
REMARK       I    between atoms: C_2  and  N_3 
REMARK    1  A    between atoms: N_3  and  C_4 
REMARK    2  A    between atoms: N_7  and  C_8 
REMARK    3  A    between atoms: C_8  and  C_9 
REMARK       I    between atoms: C_9  and  N_10 
REMARK    4  A    between atoms: C_13  and  O_14 
REMARK    5  A    between atoms: C_13  and  C_15 
ROOT
HETATM    1  C   UNL     1      26.851  43.671  50.488  1.00  0.00     0.238 C 
HETATM    2  N   UNL     1      26.539  42.506  49.774  1.00  0.00    -0.350 N 
HETATM    3  C   UNL     1      25.751  41.418  50.350  1.00  0.00     0.129 C 
HETATM    4  C   UNL     1      25.196  40.483  49.287  1.00  0.00     0.063 C 
HETATM    5  C   UNL     1      26.327  39.885  48.436  1.00  0.00     0.088 C 
HETATM    6  C   UNL     1      27.044  41.065  47.759  1.00  0.00     0.063 C 
HETATM    7  C   UNL     1      27.494  42.157  48.725  1.00  0.00     0.129 C 
HETATM    8  O   UNL     1      27.561  44.554  49.997  1.00  0.00    -0.272 OA
ENDROOT
BRANCH   1   9
HETATM    9  C   UNL     1      26.367  43.812  51.923  1.00  0.00     0.231 C 
BRANCH   9  10
HETATM   10  N   UNL     1      27.470  43.719  52.875  1.00  0.00    -0.347 N 
HETATM   11  C   UNL     1      27.842  44.680  53.798  1.00  0.00     0.047 A 
HETATM   12  C   UNL     1      28.942  44.172  54.507  1.00  0.00     0.019 A 
HETATM   13  C   UNL     1      27.316  45.951  54.073  1.00  0.00     0.031 A 
HETATM   14  C   UNL     1      29.557  44.959  55.518  1.00  0.00     0.047 A 
HETATM   15  C   UNL     1      29.220  42.884  53.963  1.00  0.00     0.033 A 
HETATM   16  C   UNL     1      29.010  46.216  55.799  1.00  0.00     0.030 A 
HETATM   17  C   UNL     1      27.912  46.701  55.086  1.00  0.00     0.005 A 
HETATM   18  C   UNL     1      28.322  42.644  52.954  1.00  0.00     0.092 A 
BRANCH  14  19
HETATM   19  N   UNL     1      30.653  44.398  56.203  1.00  0.00    -0.327 N 
HETATM   20  C   UNL     1      31.062  44.430  57.502  1.00  0.00     0.218 C 
HETATM   21  C   UNL     1      30.425  45.353  58.499  1.00  0.00     0.117 C 
HETATM   22  O   UNL     1      32.011  43.715  57.835  1.00  0.00    -0.274 OA
HETATM   23  H   UNL     1      31.300  43.867  55.633  1.00  0.00     0.169 HD
ENDBRANCH  14  19
ENDBRANCH   9  10
ENDBRANCH   1   9
BRANCH   5  24
HETATM   24  O   UNL     1      25.713  39.129  47.379  1.00  0.00    -0.385 OA
HETATM   25  H   UNL     1      26.307  39.167  46.608  1.00  0.00     0.211 HD
ENDBRANCH   5  24
BRANCH   5  26
HETATM   26  C   UNL     1      27.179  38.895  49.237  1.00  0.00    -0.024 A 
HETATM   27  C   UNL     1      28.426  39.323  49.743  1.00  0.00     0.012 A 
HETATM   28  C   UNL     1      29.274  38.454  50.434  1.00  0.00     0.024 A 
HETATM   29  C   UNL     1      28.884  37.138  50.645  1.00  0.00     0.034 A 
HETATM   30 CL   UNL     1      29.930  36.056  51.477  1.00  0.00    -0.084 Cl
HETATM   31  C   UNL     1      27.646  36.696  50.190  1.00  0.00     0.024 A 
HETATM   32  C   UNL     1      26.794  37.572  49.504  1.00  0.00     0.012 A 
ENDBRANCH   5  26
TORSDOF 5
ENDMDL
MODEL 5
REMARK VINA RESULT:      -8.4      4.492     10.566
REMARK  5 active torsions:
REMARK  status: ('A' for Active; 'I' for Inactive)
REMARK       I    between atoms: C_2  and  N_3 
REMARK    1  A    between atoms: N_3  and  C_4 
REMARK    2  A    between atoms: N_7  and  C_8 
REMARK    3  A    between atoms: C_8  and  C_9 
REMARK       I    between atoms: C_9  and  N_10 
REMARK    4  A    between atoms: C_13  and  O_14 
REMARK    5  A    between atoms: C_13  and  C_15 
ROOT
HETATM    1  C   UNL     1      22.248  48.722  48.097  1.00  0.00     0.238 C 
HETATM    2  N   UNL     1      21.149  49.370  48.677  1.00  0.00    -0.350 N 
HETATM    3  C   UNL     1      20.135  48.657  49.453  1.00  0.00     0.129 C 
HETATM    4  C   UNL     1      19.304  49.595  50.313  1.00  0.00     0.063 C 
HETATM    5  C   UNL     1      18.614  50.664  49.452  1.00  0.00     0.088 C 
HETATM    6  C   UNL     1      19.730  51.460  48.755  1.00  0.00     0.063 C 
HETATM    7  C   UNL     1      20.733  50.595  47.998  1.00  0.00     0.129 C 
HETATM    8  O   UNL     1      23.064  49.337  47.403  1.00  0.00    -0.272 OA
ENDROOT
BRANCH   1   9
HETATM    9  C   UNL     1      22.394  47.216  48.263  1.00  0.00     0.231 C 
BRANCH   9  10
HETATM   10  N   UNL     1      23.406  46.880  49.259  1.00  0.00    -0.347 N 
HETATM   11  C   UNL     1      23.734  45.610  49.699  1.00  0.00     0.047 A 
HETATM   12  C   UNL     1      24.759  45.751  50.648  1.00  0.00     0.019 A 
HETATM   13  C   UNL     1      23.222  44.351  49.354  1.00  0.00     0.031 A 
HETATM   14  C   UNL     1      25.289  44.602  51.294  1.00  0.00     0.047 A 
HETATM   15  C   UNL     1      25.017  47.149  50.767  1.00  0.00     0.033 A 
HETATM   16  C   UNL     1      24.787  43.348  50.926  1.00  0.00     0.030 A 
HETATM   17  C   UNL     1      23.770  43.229  49.977  1.00  0.00     0.005 A 
HETATM   18  C   UNL     1      24.161  47.813  49.926  1.00  0.00     0.092 A 
BRANCH  14  19
HETATM   19  N   UNL     1      26.321  44.799  52.232  1.00  0.00    -0.327 N 
HETATM   20  C   UNL     1      26.398  44.657  53.585  1.00  0.00     0.218 C 
HETATM   21  C   UNL     1      25.172  44.421  54.417  1.00  0.00     0.117 C 
HETATM   22  O   UNL     1      27.501  44.780  54.125  1.00  0.00    -0.274 OA
HETATM   23  H   UNL     1      27.198  45.134  51.853  1.00  0.00     0.169 HD
ENDBRANCH  14  19
ENDBRANCH   9  10
ENDBRANCH   1   9
BRANCH   5  24
HETATM   24  O   UNL     1      17.966  51.583  50.349  1.00  0.00    -0.385 OA
HETATM   25  H   UNL     1      18.638  52.219  50.651  1.00  0.00     0.211 HD
ENDBRANCH   5  24
BRANCH   5  26
HETATM   26  C   UNL     1      17.510  50.064  48.575  1.00  0.00    -0.024 A 
HETATM   27  C   UNL     1      16.938  50.860  47.559  1.00  0.00     0.012 A 
HETATM   28  C   UNL     1      15.891  50.391  46.762  1.00  0.00     0.024 A 
HETATM   29  C   UNL     1      15.402  49.105  46.959  1.00  0.00     0.034 A 
HETATM   30 CL   UNL     1      14.101  48.526  45.996  1.00  0.00    -0.084 Cl
HETATM   31  C   UNL     1      15.970  48.284  47.927  1.00  0.00     0.024 A 
HETATM   32  C   UNL     1      17.025  48.755  48.720  1.00  0.00     0.012 A 
ENDBRANCH   5  26
TORSDOF 5
ENDMDL
MODEL 6
REMARK VINA RESULT:      -8.4      4.399     10.368
REMARK  5 active torsions:
REMARK  status: ('A' for Active; 'I' for Inactive)
REMARK       I    between atoms: C_2  and  N_3 
REMARK    1  A    between atoms: N_3  and  C_4 
REMARK    2  A    between atoms: N_7  and  C_8 
REMARK    3  A    between atoms: C_8  and  C_9 
REMARK       I    between atoms: C_9  and  N_10 
REMARK    4  A    between atoms: C_13  and  O_14 
REMARK    5  A    between atoms: C_13  and  C_15 
ROOT
HETATM    1  C   UNL     1      23.072  49.057  49.136  1.00  0.00     0.238 C 
HETATM    2  N   UNL     1      21.741  49.408  49.400  1.00  0.00    -0.350 N 
HETATM    3  C   UNL     1      20.637  48.460  49.266  1.00  0.00     0.129 C 
HETATM    4  C   UNL     1      19.385  48.927  49.993  1.00  0.00     0.063 C 
HETATM    5  C   UNL     1      18.930  50.301  49.476  1.00  0.00     0.088 C 
HETATM    6  C   UNL     1      20.082  51.282  49.753  1.00  0.00     0.063 C 
HETATM    7  C   UNL     1      21.433  50.824  49.213  1.00  0.00     0.129 C 
HETATM    8  O   UNL     1      23.982  49.890  49.207  1.00  0.00    -0.272 OA
ENDROOT
BRANCH   1   9
HETATM    9  C   UNL     1      23.389  47.642  48.678  1.00  0.00     0.231 C 
BRANCH   9  10
HETATM   10  N   UNL     1      24.009  46.858  49.742  1.00  0.00    -0.347 N 
HETATM   11  C   UNL     1      23.948  45.484  49.892  1.00  0.00     0.047 A 
HETATM   12  C   UNL     1      24.688  45.158  51.039  1.00  0.00     0.019 A 
HETATM   13  C   UNL     1      23.309  44.498  49.126  1.00  0.00     0.031 A 
HETATM   14  C   UNL     1      24.786  43.803  51.458  1.00  0.00     0.047 A 
HETATM   15  C   UNL     1      25.176  46.386  51.575  1.00  0.00     0.033 A 
HETATM   16  C   UNL     1      24.163  42.825  50.674  1.00  0.00     0.030 A 
HETATM   17  C   UNL     1      23.436  43.169  49.533  1.00  0.00     0.005 A 
HETATM   18  C   UNL     1      24.726  47.407  50.776  1.00  0.00     0.092 A 
BRANCH  14  19
HETATM   19  N   UNL     1      25.546  43.531  52.612  1.00  0.00    -0.327 N 
HETATM   20  C   UNL     1      26.883  43.445  52.855  1.00  0.00     0.218 C 
HETATM   21  C   UNL     1      27.882  43.437  51.735  1.00  0.00     0.117 C 
HETATM   22  O   UNL     1      27.260  43.321  54.023  1.00  0.00    -0.274 OA
HETATM   23  H   UNL     1      25.013  43.337  53.451  1.00  0.00     0.169 HD
ENDBRANCH  14  19
ENDBRANCH   9  10
ENDBRANCH   1   9
BRANCH   5  24
HETATM   24  O   UNL     1      17.834  50.726  50.303  1.00  0.00    -0.385 OA
HETATM   25  H   UNL     1      18.161  51.439  50.880  1.00  0.00     0.211 HD
ENDBRANCH   5  24
BRANCH   5  26
HETATM   26  C   UNL     1      18.388  50.219  48.046  1.00  0.00    -0.024 A 
HETATM   27  C   UNL     1      17.393  49.263  47.748  1.00  0.00     0.012 A 
HETATM   28  C   UNL     1      16.897  49.101  46.452  1.00  0.00     0.024 A 
HETATM   29  C   UNL     1      17.378  49.906  45.427  1.00  0.00     0.034 A 
HETATM   30 CL   UNL     1      16.787  49.701  43.826  1.00  0.00    -0.084 Cl
HETATM   31  C   UNL     1      18.331  50.883  45.697  1.00  0.00     0.024 A 
HETATM   32  C   UNL     1      18.822  51.047  47.000  1.00  0.00     0.012 A 
ENDBRANCH   5  26
TORSDOF 5
ENDMDL
MODEL 7
REMARK VINA RESULT:      -8.4      2.088      2.848
REMARK  5 active torsions:
REMARK  status: ('A' for Active; 'I' for Inactive)
REMARK       I    between atoms: C_2  and  N_3 
REMARK    1  A    between atoms: N_3  and  C_4 
REMARK    2  A    between atoms: N_7  and  C_8 
REMARK    3  A    between atoms: C_8  and  C_9 
REMARK       I    between atoms: C_9  and  N_10 
REMARK    4  A    between atoms: C_13  and  O_14 
REMARK    5  A    between atoms: C_13  and  C_15 
ROOT
HETATM    1  C   UNL     1      25.946  42.912  50.419  1.00  0.00     0.238 C 
HETATM    2  N   UNL     1      26.745  43.033  51.564  1.00  0.00    -0.350 N 
HETATM    3  C   UNL     1      26.188  43.016  52.916  1.00  0.00     0.129 C 
HETATM    4  C   UNL     1      27.248  42.740  53.971  1.00  0.00     0.063 C 
HETATM    5  C   UNL     1      28.372  43.786  53.907  1.00  0.00     0.088 C 
HETATM    6  C   UNL     1      29.000  43.676  52.507  1.00  0.00     0.063 C 
HETATM    7  C   UNL     1      27.994  43.765  51.364  1.00  0.00     0.129 C 
HETATM    8  O   UNL     1      26.434  42.981  49.286  1.00  0.00    -0.272 OA
ENDROOT
BRANCH   1   9
HETATM    9  C   UNL     1      24.440  42.770  50.577  1.00  0.00     0.231 C 
BRANCH   9  10
HETATM   10  N   UNL     1      23.720  43.774  49.799  1.00  0.00    -0.347 N 
HETATM   11  C   UNL     1      23.884  45.146  49.879  1.00  0.00     0.047 A 
HETATM   12  C   UNL     1      23.000  45.724  48.954  1.00  0.00     0.019 A 
HETATM   13  C   UNL     1      24.724  45.932  50.680  1.00  0.00     0.031 A 
HETATM   14  C   UNL     1      22.932  47.138  48.828  1.00  0.00     0.047 A 
HETATM   15  C   UNL     1      22.295  44.650  48.334  1.00  0.00     0.033 A 
HETATM   16  C   UNL     1      23.791  47.912  49.616  1.00  0.00     0.030 A 
HETATM   17  C   UNL     1      24.666  47.318  50.527  1.00  0.00     0.005 A 
HETATM   18  C   UNL     1      22.738  43.474  48.887  1.00  0.00     0.092 A 
BRANCH  14  19
HETATM   19  N   UNL     1      22.034  47.665  47.879  1.00  0.00    -0.327 N 
HETATM   20  C   UNL     1      20.750  48.114  47.953  1.00  0.00     0.218 C 
HETATM   21  C   UNL     1      19.920  47.908  49.186  1.00  0.00     0.117 C 
HETATM   22  O   UNL     1      20.260  48.653  46.957  1.00  0.00    -0.274 OA
HETATM   23  H   UNL     1      22.381  47.717  46.929  1.00  0.00     0.169 HD
ENDBRANCH  14  19
ENDBRANCH   9  10
ENDBRANCH   1   9
BRANCH   5  24
HETATM   24  O   UNL     1      29.390  43.376  54.836  1.00  0.00    -0.385 OA
HETATM   25  H   UNL     1      29.584  42.437  54.663  1.00  0.00     0.211 HD
ENDBRANCH   5  24
BRANCH   5  26
HETATM   26  C   UNL     1      27.893  45.166  54.370  1.00  0.00    -0.024 A 
HETATM   27  C   UNL     1      28.449  45.721  55.543  1.00  0.00     0.012 A 
HETATM   28  C   UNL     1      28.016  46.950  56.048  1.00  0.00     0.024 A 
HETATM   29  C   UNL     1      27.025  47.656  55.379  1.00  0.00     0.034 A 
HETATM   30 CL   UNL     1      26.473  49.160  56.003  1.00  0.00    -0.084 Cl
HETATM   31  C   UNL     1      26.485  47.152  54.200  1.00  0.00     0.024 A 
HETATM   32  C   UNL     1      26.926  45.922  53.692  1.00  0.00     0.012 A 
ENDBRANCH   5  26
TORSDOF 5
ENDMDL
MODEL 8
REMARK VINA RESULT:      -8.3      5.628      9.655
REMARK  5 active torsions:
REMARK  status: ('A' for Active; 'I' for Inactive)
REMARK       I    between atoms: C_2  and  N_3 
REMARK    1  A    between atoms: N_3  and  C_4 
REMARK    2  A    between atoms: N_7  and  C_8 
REMARK    3  A    between atoms: C_8  and  C_9 
REMARK       I    between atoms: C_9  and  N_10 
REMARK    4  A    between atoms: C_13  and  O_14 
REMARK    5  A    between atoms: C_13  and  C_15 
ROOT
HETATM    1  C   UNL     1      25.855  43.180  51.228  1.00  0.00     0.238 C 
HETATM    2  N   UNL     1      26.374  42.036  50.607  1.00  0.00    -0.350 N 
HETATM    3  C   UNL     1      27.676  42.023  49.943  1.00  0.00     0.129 C 
HETATM    4  C   UNL     1      28.197  40.611  49.725  1.00  0.00     0.063 C 
HETATM    5  C   UNL     1      27.205  39.782  48.895  1.00  0.00     0.088 C 
HETATM    6  C   UNL     1      25.893  39.728  49.696  1.00  0.00     0.063 C 
HETATM    7  C   UNL     1      25.367  41.094  50.123  1.00  0.00     0.129 C 
HETATM    8  O   UNL     1      24.730  43.181  51.738  1.00  0.00    -0.272 OA
ENDROOT
BRANCH   1   9
HETATM    9  C   UNL     1      26.666  44.468  51.206  1.00  0.00     0.231 C 
BRANCH   9  10
HETATM   10  N   UNL     1      27.248  44.761  52.512  1.00  0.00    -0.347 N 
HETATM   11  C   UNL     1      28.369  44.167  53.063  1.00  0.00     0.047 A 
HETATM   12  C   UNL     1      28.573  44.753  54.322  1.00  0.00     0.019 A 
HETATM   13  C   UNL     1      29.221  43.167  52.573  1.00  0.00     0.031 A 
HETATM   14  C   UNL     1      29.654  44.321  55.138  1.00  0.00     0.047 A 
HETATM   15  C   UNL     1      27.526  45.703  54.506  1.00  0.00     0.033 A 
HETATM   16  C   UNL     1      30.511  43.338  54.629  1.00  0.00     0.030 A 
HETATM   17  C   UNL     1      30.294  42.771  53.372  1.00  0.00     0.005 A 
HETATM   18  C   UNL     1      26.719  45.669  53.397  1.00  0.00     0.092 A 
BRANCH  14  19
HETATM   19  N   UNL     1      29.817  44.947  56.389  1.00  0.00    -0.327 N 
HETATM   20  C   UNL     1      30.715  44.798  57.402  1.00  0.00     0.218 C 
HETATM   21  C   UNL     1      31.685  43.653  57.423  1.00  0.00     0.117 C 
HETATM   22  O   UNL     1      30.682  45.601  58.338  1.00  0.00    -0.274 OA
HETATM   23  H   UNL     1      29.126  45.650  56.620  1.00  0.00     0.169 HD
ENDBRANCH  14  19
ENDBRANCH   9  10
ENDBRANCH   1   9
BRANCH   5  24
HETATM   24  O   UNL     1      27.705  38.435  48.852  1.00  0.00    -0.385 OA
HETATM   25  H   UNL     1      28.584  38.461  48.435  1.00  0.00     0.211 HD
ENDBRANCH   5  24
BRANCH   5  26
HETATM   26  C   UNL     1      27.136  40.264  47.442  1.00  0.00    -0.024 A 
HETATM   27  C   UNL     1      25.881  40.302  46.796  1.00  0.00     0.012 A 
HETATM   28  C   UNL     1      25.758  40.679  45.456  1.00  0.00     0.024 A 
HETATM   29  C   UNL     1      26.890  41.040  44.738  1.00  0.00     0.034 A 
HETATM   30 CL   UNL     1      26.750  41.487  43.084  1.00  0.00    -0.084 Cl
HETATM   31  C   UNL     1      28.136  41.049  45.358  1.00  0.00     0.024 A 
HETATM   32  C   UNL     1      28.255  40.677  46.704  1.00  0.00     0.012 A 
ENDBRANCH   5  26
TORSDOF 5
ENDMDL
MODEL 9
REMARK VINA RESULT:      -8.3     18.270     20.851
REMARK  5 active torsions:
REMARK  status: ('A' for Active; 'I' for Inactive)
REMARK       I    between atoms: C_2  and  N_3 
REMARK    1  A    between atoms: N_3  and  C_4 
REMARK    2  A    between atoms: N_7  and  C_8 
REMARK    3  A    between atoms: C_8  and  C_9 
REMARK       I    between atoms: C_9  and  N_10 
REMARK    4  A    between atoms: C_13  and  O_14 
REMARK    5  A    between atoms: C_13  and  C_15 
ROOT
HETATM    1  C   UNL     1      40.407  47.007  66.269  1.00  0.00     0.238 C 
HETATM    2  N   UNL     1      39.259  47.522  66.886  1.00  0.00    -0.350 N 
HETATM    3  C   UNL     1      38.132  48.061  66.126  1.00  0.00     0.129 C 
HETATM    4  C   UNL     1      36.868  48.162  66.965  1.00  0.00     0.063 C 
HETATM    5  C   UNL     1      37.100  49.040  68.204  1.00  0.00     0.088 C 
HETATM    6  C   UNL     1      38.210  48.362  69.026  1.00  0.00     0.063 C 
HETATM    7  C   UNL     1      39.474  48.052  68.231  1.00  0.00     0.129 C 
HETATM    8  O   UNL     1      41.368  46.605  66.933  1.00  0.00    -0.272 OA
ENDROOT
BRANCH   1   9
HETATM    9  C   UNL     1      40.500  47.016  64.750  1.00  0.00     0.231 C 
BRANCH   9  10
HETATM   10  N   UNL     1      40.460  45.664  64.200  1.00  0.00    -0.347 N 
HETATM   11  C   UNL     1      39.323  44.927  63.918  1.00  0.00     0.047 A 
HETATM   12  C   UNL     1      39.747  43.693  63.400  1.00  0.00     0.019 A 
HETATM   13  C   UNL     1      37.963  45.228  64.074  1.00  0.00     0.031 A 
HETATM   14  C   UNL     1      38.787  42.710  63.037  1.00  0.00     0.047 A 
HETATM   15  C   UNL     1      41.174  43.717  63.399  1.00  0.00     0.033 A 
HETATM   16  C   UNL     1      37.432  43.030  63.175  1.00  0.00     0.030 A 
HETATM   17  C   UNL     1      37.030  44.265  63.688  1.00  0.00     0.005 A 
HETATM   18  C   UNL     1      41.579  44.922  63.915  1.00  0.00     0.092 A 
BRANCH  14  19
HETATM   19  N   UNL     1      39.267  41.492  62.516  1.00  0.00    -0.327 N 
HETATM   20  C   UNL     1      39.317  40.220  63.000  1.00  0.00     0.218 C 
HETATM   21  C   UNL     1      39.000  39.918  64.435  1.00  0.00     0.117 C 
HETATM   22  O   UNL     1      39.681  39.318  62.241  1.00  0.00    -0.274 OA
HETATM   23  H   UNL     1      39.684  41.545  61.594  1.00  0.00     0.169 HD
ENDBRANCH  14  19
ENDBRANCH   9  10
ENDBRANCH   1   9
BRANCH   5  24
HETATM   24  O   UNL     1      35.909  48.971  69.006  1.00  0.00    -0.385 OA
HETATM   25  H   UNL     1      36.181  49.007  69.940  1.00  0.00     0.211 HD
ENDBRANCH   5  24
BRANCH   5  26
HETATM   26  C   UNL     1      37.286  50.514  67.831  1.00  0.00    -0.024 A 
HETATM   27  C   UNL     1      37.037  51.501  68.809  1.00  0.00     0.012 A 
HETATM   28  C   UNL     1      37.135  52.864  68.516  1.00  0.00     0.024 A 
HETATM   29  C   UNL     1      37.499  53.267  67.238  1.00  0.00     0.034 A 
HETATM   30 CL   UNL     1      37.604  54.942  66.864  1.00  0.00    -0.084 Cl
HETATM   31  C   UNL     1      37.788  52.317  66.263  1.00  0.00     0.024 A 
HETATM   32  C   UNL     1      37.695  50.951  66.562  1.00  0.00     0.012 A 
ENDBRANCH   5  26
TORSDOF 5
ENDMDL
MODEL 10
REMARK VINA RESULT:      -8.1     11.924     13.710
REMARK  5 active torsions:
REMARK  status: ('A' for Active; 'I' for Inactive)
REMARK       I    between atoms: C_2  and  N_3 
REMARK    1  A    between atoms: N_3  and  C_4 
REMARK    2  A    between atoms: N_7  and  C_8 
REMARK    3  A    between atoms: C_8  and  C_9 
REMARK       I    between atoms: C_9  and  N_10 
REMARK    4  A    between atoms: C_13  and  O_14 
REMARK    5  A    between atoms: C_13  and  C_15 
ROOT
HETATM    1  C   UNL     1      32.038  52.072  40.838  1.00  0.00     0.238 C 
HETATM    2  N   UNL     1      33.368  51.669  41.018  1.00  0.00    -0.350 N 
HETATM    3  C   UNL     1      33.887  51.227  42.312  1.00  0.00     0.129 C 
HETATM    4  C   UNL     1      35.192  50.459  42.177  1.00  0.00     0.063 C 
HETATM    5  C   UNL     1      36.261  51.311  41.475  1.00  0.00     0.088 C 
HETATM    6  C   UNL     1      35.713  51.645  40.077  1.00  0.00     0.063 C 
HETATM    7  C   UNL     1      34.320  52.267  40.085  1.00  0.00     0.129 C 
HETATM    8  O   UNL     1      31.636  52.491  39.747  1.00  0.00    -0.272 OA
ENDROOT
BRANCH   1   9
HETATM    9  C   UNL     1      31.092  52.066  42.030  1.00  0.00     0.231 C 
BRANCH   9  10
HETATM   10  N   UNL     1      29.758  51.607  41.656  1.00  0.00    -0.347 N 
HETATM   11  C   UNL     1      29.383  50.301  41.393  1.00  0.00     0.047 A 
HETATM   12  C   UNL     1      28.014  50.316  41.083  1.00  0.00     0.019 A 
HETATM   13  C   UNL     1      30.121  49.108  41.396  1.00  0.00     0.031 A 
HETATM   14  C   UNL     1      27.350  49.106  40.746  1.00  0.00     0.047 A 
HETATM   15  C   UNL     1      27.593  51.677  41.155  1.00  0.00     0.033 A 
HETATM   16  C   UNL     1      28.091  47.919  40.774  1.00  0.00     0.030 A 
HETATM   17  C   UNL     1      29.451  47.923  41.089  1.00  0.00     0.005 A 
HETATM   18  C   UNL     1      28.683  52.444  41.483  1.00  0.00     0.092 A 
BRANCH  14  19
HETATM   19  N   UNL     1      25.975  49.177  40.450  1.00  0.00    -0.327 N 
HETATM   20  C   UNL     1      25.272  49.334  39.294  1.00  0.00     0.218 C 
HETATM   21  C   UNL     1      25.954  49.697  38.008  1.00  0.00     0.117 C 
HETATM   22  O   UNL     1      24.044  49.222  39.336  1.00  0.00    -0.274 OA
HETATM   23  H   UNL     1      25.353  49.120  41.247  1.00  0.00     0.169 HD
ENDBRANCH  14  19
ENDBRANCH   9  10
ENDBRANCH   1   9
BRANCH   5  24
HETATM   24  O   UNL     1      37.408  50.470  41.266  1.00  0.00    -0.385 OA
HETATM   25  H   UNL     1      37.995  50.926  40.636  1.00  0.00     0.211 HD
ENDBRANCH   5  24
BRANCH   5  26
HETATM   26  C   UNL     1      36.730  52.474  42.355  1.00  0.00    -0.024 A 
HETATM   27  C   UNL     1      37.254  53.629  41.735  1.00  0.00     0.012 A 
HETATM   28  C   UNL     1      37.750  54.700  42.483  1.00  0.00     0.024 A 
HETATM   29  C   UNL     1      37.718  54.642  43.870  1.00  0.00     0.034 A 
HETATM   30 CL   UNL     1      38.343  55.948  44.798  1.00  0.00    -0.084 Cl
HETATM   31  C   UNL     1      37.174  53.533  44.509  1.00  0.00     0.024 A 
HETATM   32  C   UNL     1      36.671  52.463  43.757  1.00  0.00     0.012 A 
ENDBRANCH   5  26
TORSDOF 5
ENDMDL
