MODEL 1
REMARK VINA RESULT:      -8.6      0.000      0.000
REMARK  4 active torsions:
REMARK  status: ('A' for Active; 'I' for Inactive)
REMARK    1  A    between atoms: C_6  and  C_7 
REMARK       I    between atoms: C_7  and  N_8 
REMARK    2  A    between atoms: N_8  and  C_9 
REMARK    3  A    between atoms: C_9  and  C_10 
REMARK    4  A    between atoms: C_19  and  O_20 
ROOT
HETATM    1  C   UNL     1      26.585  47.674  55.236  1.00  0.00     0.078 C 
HETATM    2  C   UNL     1      27.246  46.453  54.723  1.00  0.00     0.066 A 
HETATM    3  O   UNL     1      28.322  46.020  55.431  1.00  0.00    -0.314 OA
HETATM    4  C   UNL     1      28.790  44.908  54.809  1.00  0.00     0.087 A 
HETATM    5  C   UNL     1      28.016  44.611  53.690  1.00  0.00     0.019 A 
HETATM    6  C   UNL     1      26.987  45.611  53.649  1.00  0.00     0.074 A 
HETATM    7  C   UNL     1      29.897  44.171  55.228  1.00  0.00     0.041 A 
HETATM    8  C   UNL     1      30.247  43.064  54.451  1.00  0.00     0.039 A 
HETATM    9  C   UNL     1      29.510  42.745  53.313  1.00  0.00     0.066 A 
HETATM   10  C   UNL     1      28.402  43.500  52.911  1.00  0.00     0.052 A 
ENDROOT
BRANCH   6  11
HETATM   11  C   UNL     1      25.872  45.810  52.735  1.00  0.00     0.255 C 
HETATM   12  N   UNL     1      26.004  46.859  51.853  1.00  0.00    -0.353 N 
HETATM   13  H   UNL     1      26.901  47.318  51.776  1.00  0.00     0.163 HD
HETATM   14  O   UNL     1      24.904  45.054  52.707  1.00  0.00    -0.268 OA
BRANCH  12  15
HETATM   15  C   UNL     1      25.063  46.999  50.768  1.00  0.00     0.161 C 
BRANCH  15  16
HETATM   16  C   UNL     1      25.459  48.063  49.778  1.00  0.00    -0.041 A 
HETATM   17  C   UNL     1      24.491  48.793  49.070  1.00  0.00     0.009 A 
HETATM   18  C   UNL     1      24.869  49.809  48.190  1.00  0.00     0.001 A 
HETATM   19  C   UNL     1      26.217  50.117  48.017  1.00  0.00     0.000 A 
HETATM   20  C   UNL     1      27.188  49.409  48.722  1.00  0.00     0.001 A 
HETATM   21  C   UNL     1      26.812  48.387  49.596  1.00  0.00     0.009 A 
ENDBRANCH  15  16
ENDBRANCH  12  15
ENDBRANCH   6  11
BRANCH   9  22
HETATM   22  O   UNL     1      29.848  41.674  52.536  1.00  0.00    -0.361 OA
HETATM   23  H   UNL     1      30.814  41.645  52.445  1.00  0.00     0.217 HD
ENDBRANCH   9  22
TORSDOF 4
ENDMDL
MODEL 2
REMARK VINA RESULT:      -8.6      2.330      6.911
REMARK  4 active torsions:
REMARK  status: ('A' for Active; 'I' for Inactive)
REMARK    1  A    between atoms: C_6  and  C_7 
REMARK       I    between atoms: C_7  and  N_8 
REMARK    2  A    between atoms: N_8  and  C_9 
REMARK    3  A    between atoms: C_9  and  C_10 
REMARK    4  A    between atoms: C_19  and  O_20 
ROOT
HETATM    1  C   UNL     1      26.898  47.093  54.975  1.00  0.00     0.078 C 
HETATM    2  C   UNL     1      26.484  46.567  53.655  1.00  0.00     0.066 A 
HETATM    3  O   UNL     1      25.792  47.430  52.863  1.00  0.00    -0.314 OA
HETATM    4  C   UNL     1      25.499  46.772  51.714  1.00  0.00     0.087 A 
HETATM    5  C   UNL     1      26.001  45.473  51.751  1.00  0.00     0.019 A 
HETATM    6  C   UNL     1      26.670  45.348  53.015  1.00  0.00     0.074 A 
HETATM    7  C   UNL     1      24.787  47.317  50.647  1.00  0.00     0.041 A 
HETATM    8  C   UNL     1      24.559  46.483  49.549  1.00  0.00     0.039 A 
HETATM    9  C   UNL     1      25.027  45.172  49.557  1.00  0.00     0.066 A 
HETATM   10  C   UNL     1      25.741  44.645  50.640  1.00  0.00     0.052 A 
ENDROOT
BRANCH   6  11
HETATM   11  C   UNL     1      27.406  44.244  53.612  1.00  0.00     0.255 C 
HETATM   12  N   UNL     1      28.775  44.295  53.470  1.00  0.00    -0.353 N 
HETATM   13  H   UNL     1      29.195  45.142  53.117  1.00  0.00     0.163 HD
HETATM   14  O   UNL     1      26.851  43.357  54.255  1.00  0.00    -0.268 OA
BRANCH  12  15
HETATM   15  C   UNL     1      29.602  43.373  54.213  1.00  0.00     0.161 C 
BRANCH  15  16
HETATM   16  C   UNL     1      30.147  43.967  55.486  1.00  0.00    -0.041 A 
HETATM   17  C   UNL     1      29.695  45.210  55.958  1.00  0.00     0.009 A 
HETATM   18  C   UNL     1      30.174  45.729  57.163  1.00  0.00     0.001 A 
HETATM   19  C   UNL     1      31.097  45.007  57.916  1.00  0.00     0.000 A 
HETATM   20  C   UNL     1      31.545  43.768  57.465  1.00  0.00     0.001 A 
HETATM   21  C   UNL     1      31.074  43.251  56.257  1.00  0.00     0.009 A 
ENDBRANCH  15  16
ENDBRANCH  12  15
ENDBRANCH   6  11
BRANCH   9  22
HETATM   22  O   UNL     1      24.802  44.340  48.497  1.00  0.00    -0.361 OA
HETATM   23  H   UNL     1      24.294  44.821  47.823  1.00  0.00     0.217 HD
ENDBRANCH   9  22
TORSDOF 4
ENDMDL
MODEL 3
REMARK VINA RESULT:      -8.4      2.531      7.351
REMARK  4 active torsions:
REMARK  status: ('A' for Active; 'I' for Inactive)
REMARK    1  A    between atoms: C_6  and  C_7 
REMARK       I    between atoms: C_7  and  N_8 
REMARK    2  A    between atoms: N_8  and  C_9 
REMARK    3  A    between atoms: C_9  and  C_10 
REMARK    4  A    between atoms: C_19  and  O_20 
ROOT
HETATM    1  C   UNL     1      27.882  42.055  52.504  1.00  0.00     0.078 C 
HETATM    2  C   UNL     1      27.110  43.254  52.106  1.00  0.00     0.066 A 
HETATM    3  O   UNL     1      26.566  43.223  50.861  1.00  0.00    -0.314 OA
HETATM    4  C   UNL     1      25.912  44.398  50.679  1.00  0.00     0.087 A 
HETATM    5  C   UNL     1      26.027  45.202  51.811  1.00  0.00     0.019 A 
HETATM    6  C   UNL     1      26.792  44.439  52.757  1.00  0.00     0.074 A 
HETATM    7  C   UNL     1      25.228  44.754  49.519  1.00  0.00     0.041 A 
HETATM    8  C   UNL     1      24.629  46.017  49.502  1.00  0.00     0.039 A 
HETATM    9  C   UNL     1      24.738  46.858  50.607  1.00  0.00     0.066 A 
HETATM   10  C   UNL     1      25.431  46.479  51.763  1.00  0.00     0.052 A 
ENDROOT
BRANCH   6  11
HETATM   11  C   UNL     1      27.211  44.734  54.119  1.00  0.00     0.255 C 
HETATM   12  N   UNL     1      28.328  45.531  54.239  1.00  0.00    -0.353 N 
HETATM   13  H   UNL     1      28.689  45.987  53.414  1.00  0.00     0.163 HD
HETATM   14  O   UNL     1      26.576  44.351  55.099  1.00  0.00    -0.268 OA
BRANCH  12  15
HETATM   15  C   UNL     1      28.688  46.060  55.534  1.00  0.00     0.161 C 
BRANCH  15  16
HETATM   16  C   UNL     1      29.767  45.260  56.217  1.00  0.00    -0.041 A 
HETATM   17  C   UNL     1      30.175  45.562  57.526  1.00  0.00     0.009 A 
HETATM   18  C   UNL     1      31.143  44.786  58.165  1.00  0.00     0.001 A 
HETATM   19  C   UNL     1      31.704  43.691  57.511  1.00  0.00     0.000 A 
HETATM   20  C   UNL     1      31.300  43.372  56.217  1.00  0.00     0.001 A 
HETATM   21  C   UNL     1      30.338  44.153  55.573  1.00  0.00     0.009 A 
ENDBRANCH  15  16
ENDBRANCH  12  15
ENDBRANCH   6  11
BRANCH   9  22
HETATM   22  O   UNL     1      24.170  48.100  50.601  1.00  0.00    -0.361 OA
HETATM   23  H   UNL     1      23.293  48.042  50.189  1.00  0.00     0.217 HD
ENDBRANCH   9  22
TORSDOF 4
ENDMDL
MODEL 4
REMARK VINA RESULT:      -8.4      1.115      2.712
REMARK  4 active torsions:
REMARK  status: ('A' for Active; 'I' for Inactive)
REMARK    1  A    between atoms: C_6  and  C_7 
REMARK       I    between atoms: C_7  and  N_8 
REMARK    2  A    between atoms: N_8  and  C_9 
REMARK    3  A    between atoms: C_9  and  C_10 
REMARK    4  A    between atoms: C_19  and  O_20 
ROOT
HETATM    1  C   UNL     1      26.922  42.461  50.483  1.00  0.00     0.078 C 
HETATM    2  C   UNL     1      27.492  43.090  51.696  1.00  0.00     0.066 A 
HETATM    3  O   UNL     1      28.636  42.531  52.172  1.00  0.00    -0.314 OA
HETATM    4  C   UNL     1      28.995  43.232  53.276  1.00  0.00     0.087 A 
HETATM    5  C   UNL     1      28.084  44.256  53.524  1.00  0.00     0.019 A 
HETATM    6  C   UNL     1      27.111  44.178  52.471  1.00  0.00     0.074 A 
HETATM    7  C   UNL     1      30.117  42.961  54.058  1.00  0.00     0.041 A 
HETATM    8  C   UNL     1      30.319  43.777  55.174  1.00  0.00     0.039 A 
HETATM    9  C   UNL     1      29.419  44.798  55.468  1.00  0.00     0.066 A 
HETATM   10  C   UNL     1      28.299  45.053  54.667  1.00  0.00     0.052 A 
ENDROOT
BRANCH   6  11
HETATM   11  C   UNL     1      25.941  44.991  52.177  1.00  0.00     0.255 C 
HETATM   12  N   UNL     1      26.146  46.038  51.306  1.00  0.00    -0.353 N 
HETATM   13  H   UNL     1      27.023  46.089  50.808  1.00  0.00     0.163 HD
HETATM   14  O   UNL     1      24.828  44.725  52.625  1.00  0.00    -0.268 OA
BRANCH  12  15
HETATM   15  C   UNL     1      25.011  46.759  50.781  1.00  0.00     0.161 C 
BRANCH  15  16
HETATM   16  C   UNL     1      25.402  47.865  49.835  1.00  0.00    -0.041 A 
HETATM   17  C   UNL     1      24.430  48.634  49.177  1.00  0.00     0.009 A 
HETATM   18  C   UNL     1      24.804  49.686  48.339  1.00  0.00     0.001 A 
HETATM   19  C   UNL     1      26.152  49.991  48.160  1.00  0.00     0.000 A 
HETATM   20  C   UNL     1      27.127  49.244  48.816  1.00  0.00     0.001 A 
HETATM   21  C   UNL     1      26.755  48.186  49.648  1.00  0.00     0.009 A 
ENDBRANCH  15  16
ENDBRANCH  12  15
ENDBRANCH   6  11
BRANCH   9  22
HETATM   22  O   UNL     1      29.596  45.596  56.562  1.00  0.00    -0.361 OA
HETATM   23  H   UNL     1      29.176  46.455  56.396  1.00  0.00     0.217 HD
ENDBRANCH   9  22
TORSDOF 4
ENDMDL
MODEL 5
REMARK VINA RESULT:      -8.3      3.013      6.677
REMARK  4 active torsions:
REMARK  status: ('A' for Active; 'I' for Inactive)
REMARK    1  A    between atoms: C_6  and  C_7 
REMARK       I    between atoms: C_7  and  N_8 
REMARK    2  A    between atoms: N_8  and  C_9 
REMARK    3  A    between atoms: C_9  and  C_10 
REMARK    4  A    between atoms: C_19  and  O_20 
ROOT
HETATM    1  C   UNL     1      25.201  45.793  51.800  1.00  0.00     0.078 C 
HETATM    2  C   UNL     1      26.009  44.555  51.720  1.00  0.00     0.066 A 
HETATM    3  O   UNL     1      25.937  43.875  50.545  1.00  0.00    -0.314 OA
HETATM    4  C   UNL     1      26.729  42.780  50.667  1.00  0.00     0.087 A 
HETATM    5  C   UNL     1      27.323  42.743  51.926  1.00  0.00     0.019 A 
HETATM    6  C   UNL     1      26.871  43.922  52.608  1.00  0.00     0.074 A 
HETATM    7  C   UNL     1      26.915  41.822  49.672  1.00  0.00     0.041 A 
HETATM    8  C   UNL     1      27.753  40.747  49.981  1.00  0.00     0.039 A 
HETATM    9  C   UNL     1      28.350  40.663  51.237  1.00  0.00     0.066 A 
HETATM   10  C   UNL     1      28.149  41.638  52.221  1.00  0.00     0.052 A 
ENDROOT
BRANCH   6  11
HETATM   11  C   UNL     1      27.168  44.444  53.933  1.00  0.00     0.255 C 
HETATM   12  N   UNL     1      28.364  45.116  54.054  1.00  0.00    -0.353 N 
HETATM   13  H   UNL     1      28.878  45.347  53.216  1.00  0.00     0.163 HD
HETATM   14  O   UNL     1      26.377  44.349  54.868  1.00  0.00    -0.268 OA
BRANCH  12  15
HETATM   15  C   UNL     1      28.643  45.858  55.261  1.00  0.00     0.161 C 
BRANCH  15  16
HETATM   16  C   UNL     1      29.710  45.218  56.111  1.00  0.00    -0.041 A 
HETATM   17  C   UNL     1      29.975  45.680  57.411  1.00  0.00     0.009 A 
HETATM   18  C   UNL     1      30.933  45.049  58.207  1.00  0.00     0.001 A 
HETATM   19  C   UNL     1      31.626  43.943  57.721  1.00  0.00     0.000 A 
HETATM   20  C   UNL     1      31.365  43.467  56.438  1.00  0.00     0.001 A 
HETATM   21  C   UNL     1      30.413  44.101  55.638  1.00  0.00     0.009 A 
ENDBRANCH  15  16
ENDBRANCH  12  15
ENDBRANCH   6  11
BRANCH   9  22
HETATM   22  O   UNL     1      29.161  39.612  51.558  1.00  0.00    -0.361 OA
HETATM   23  H   UNL     1      29.935  39.948  52.039  1.00  0.00     0.217 HD
ENDBRANCH   9  22
TORSDOF 4
ENDMDL
MODEL 6
REMARK VINA RESULT:      -8.3      2.756      4.036
REMARK  4 active torsions:
REMARK  status: ('A' for Active; 'I' for Inactive)
REMARK    1  A    between atoms: C_6  and  C_7 
REMARK       I    between atoms: C_7  and  N_8 
REMARK    2  A    between atoms: N_8  and  C_9 
REMARK    3  A    between atoms: C_9  and  C_10 
REMARK    4  A    between atoms: C_19  and  O_20 
ROOT
HETATM    1  C   UNL     1      26.972  46.521  54.055  1.00  0.00     0.078 C 
HETATM    2  C   UNL     1      28.046  45.815  54.789  1.00  0.00     0.066 A 
HETATM    3  O   UNL     1      28.427  46.375  55.967  1.00  0.00    -0.314 OA
HETATM    4  C   UNL     1      29.413  45.598  56.481  1.00  0.00     0.087 A 
HETATM    5  C   UNL     1      29.678  44.522  55.637  1.00  0.00     0.019 A 
HETATM    6  C   UNL     1      28.762  44.651  54.539  1.00  0.00     0.074 A 
HETATM    7  C   UNL     1      30.074  45.846  57.683  1.00  0.00     0.041 A 
HETATM    8  C   UNL     1      31.080  44.947  58.046  1.00  0.00     0.039 A 
HETATM    9  C   UNL     1      31.389  43.870  57.218  1.00  0.00     0.066 A 
HETATM   10  C   UNL     1      30.711  43.640  56.015  1.00  0.00     0.052 A 
ENDROOT
BRANCH   6  11
HETATM   11  C   UNL     1      28.542  43.820  53.364  1.00  0.00     0.255 C 
HETATM   12  N   UNL     1      27.281  43.279  53.246  1.00  0.00    -0.353 N 
HETATM   13  H   UNL     1      26.554  43.603  53.866  1.00  0.00     0.163 HD
HETATM   14  O   UNL     1      29.401  43.663  52.501  1.00  0.00    -0.268 OA
BRANCH  12  15
HETATM   15  C   UNL     1      26.899  42.631  52.013  1.00  0.00     0.161 C 
BRANCH  15  16
HETATM   16  C   UNL     1      26.079  43.518  51.113  1.00  0.00    -0.041 A 
HETATM   17  C   UNL     1      24.676  43.447  51.106  1.00  0.00     0.009 A 
HETATM   18  C   UNL     1      23.925  44.306  50.301  1.00  0.00     0.001 A 
HETATM   19  C   UNL     1      24.565  45.255  49.506  1.00  0.00     0.000 A 
HETATM   20  C   UNL     1      25.954  45.345  49.512  1.00  0.00     0.001 A 
HETATM   21  C   UNL     1      26.707  44.481  50.309  1.00  0.00     0.009 A 
ENDBRANCH  15  16
ENDBRANCH  12  15
ENDBRANCH   6  11
BRANCH   9  22
HETATM   22  O   UNL     1      32.379  42.990  57.553  1.00  0.00    -0.361 OA
HETATM   23  H   UNL     1      32.552  43.060  58.505  1.00  0.00     0.217 HD
ENDBRANCH   9  22
TORSDOF 4
ENDMDL
MODEL 7
REMARK VINA RESULT:      -8.3      2.499      7.752
REMARK  4 active torsions:
REMARK  status: ('A' for Active; 'I' for Inactive)
REMARK    1  A    between atoms: C_6  and  C_7 
REMARK       I    between atoms: C_7  and  N_8 
REMARK    2  A    between atoms: N_8  and  C_9 
REMARK    3  A    between atoms: C_9  and  C_10 
REMARK    4  A    between atoms: C_19  and  O_20 
ROOT
HETATM    1  C   UNL     1      27.898  49.113  49.105  1.00  0.00     0.078 C 
HETATM    2  C   UNL     1      26.422  49.033  49.022  1.00  0.00     0.066 A 
HETATM    3  O   UNL     1      25.815  50.004  48.289  1.00  0.00    -0.314 OA
HETATM    4  C   UNL     1      24.480  49.768  48.337  1.00  0.00     0.087 A 
HETATM    5  C   UNL     1      24.211  48.636  49.103  1.00  0.00     0.019 A 
HETATM    6  C   UNL     1      25.488  48.139  49.531  1.00  0.00     0.074 A 
HETATM    7  C   UNL     1      23.513  50.553  47.713  1.00  0.00     0.041 A 
HETATM    8  C   UNL     1      22.181  50.170  47.889  1.00  0.00     0.039 A 
HETATM    9  C   UNL     1      21.869  49.056  48.664  1.00  0.00     0.066 A 
HETATM   10  C   UNL     1      22.858  48.281  49.282  1.00  0.00     0.052 A 
ENDROOT
BRANCH   6  11
HETATM   11  C   UNL     1      25.854  46.977  50.327  1.00  0.00     0.255 C 
HETATM   12  N   UNL     1      25.498  47.031  51.657  1.00  0.00    -0.353 N 
HETATM   13  H   UNL     1      24.883  47.769  51.965  1.00  0.00     0.163 HD
HETATM   14  O   UNL     1      26.386  45.986  49.834  1.00  0.00    -0.268 OA
BRANCH  12  15
HETATM   15  C   UNL     1      25.614  45.844  52.471  1.00  0.00     0.161 C 
BRANCH  15  16
HETATM   16  C   UNL     1      26.699  45.949  53.512  1.00  0.00    -0.041 A 
HETATM   17  C   UNL     1      27.530  44.856  53.806  1.00  0.00     0.009 A 
HETATM   18  C   UNL     1      28.562  44.979  54.739  1.00  0.00     0.001 A 
HETATM   19  C   UNL     1      28.784  46.197  55.377  1.00  0.00     0.000 A 
HETATM   20  C   UNL     1      27.975  47.293  55.087  1.00  0.00     0.001 A 
HETATM   21  C   UNL     1      26.937  47.169  54.160  1.00  0.00     0.009 A 
ENDBRANCH  15  16
ENDBRANCH  12  15
ENDBRANCH   6  11
BRANCH   9  22
HETATM   22  O   UNL     1      20.571  48.676  48.856  1.00  0.00    -0.361 OA
HETATM   23  H   UNL     1      20.532  48.054  49.600  1.00  0.00     0.217 HD
ENDBRANCH   9  22
TORSDOF 4
ENDMDL
MODEL 8
REMARK VINA RESULT:      -7.9      3.943      7.107
REMARK  4 active torsions:
REMARK  status: ('A' for Active; 'I' for Inactive)
REMARK    1  A    between atoms: C_6  and  C_7 
REMARK       I    between atoms: C_7  and  N_8 
REMARK    2  A    between atoms: N_8  and  C_9 
REMARK    3  A    between atoms: C_9  and  C_10 
REMARK    4  A    between atoms: C_19  and  O_20 
ROOT
HETATM    1  C   UNL     1      26.349  44.966  54.331  1.00  0.00     0.078 C 
HETATM    2  C   UNL     1      26.088  44.082  53.172  1.00  0.00     0.066 A 
HETATM    3  O   UNL     1      24.970  44.364  52.451  1.00  0.00    -0.314 OA
HETATM    4  C   UNL     1      24.899  43.452  51.449  1.00  0.00     0.087 A 
HETATM    5  C   UNL     1      25.975  42.570  51.513  1.00  0.00     0.019 A 
HETATM    6  C   UNL     1      26.769  43.000  52.629  1.00  0.00     0.074 A 
HETATM    7  C   UNL     1      23.885  43.401  50.494  1.00  0.00     0.041 A 
HETATM    8  C   UNL     1      23.964  42.378  49.546  1.00  0.00     0.039 A 
HETATM    9  C   UNL     1      25.013  41.463  49.588  1.00  0.00     0.066 A 
HETATM   10  C   UNL     1      26.022  41.534  50.557  1.00  0.00     0.052 A 
ENDROOT
BRANCH   6  11
HETATM   11  C   UNL     1      28.021  42.495  53.173  1.00  0.00     0.255 C 
HETATM   12  N   UNL     1      29.046  43.411  53.258  1.00  0.00    -0.353 N 
HETATM   13  H   UNL     1      28.840  44.386  53.097  1.00  0.00     0.163 HD
HETATM   14  O   UNL     1      28.138  41.346  53.591  1.00  0.00    -0.268 OA
BRANCH  12  15
HETATM   15  C   UNL     1      30.245  43.069  53.986  1.00  0.00     0.161 C 
BRANCH  15  16
HETATM   16  C   UNL     1      30.351  43.779  55.311  1.00  0.00    -0.041 A 
HETATM   17  C   UNL     1      31.187  43.294  56.329  1.00  0.00     0.009 A 
HETATM   18  C   UNL     1      31.313  43.986  57.535  1.00  0.00     0.001 A 
HETATM   19  C   UNL     1      30.616  45.176  57.733  1.00  0.00     0.000 A 
HETATM   20  C   UNL     1      29.792  45.675  56.727  1.00  0.00     0.001 A 
HETATM   21  C   UNL     1      29.659  44.980  55.524  1.00  0.00     0.009 A 
ENDBRANCH  15  16
ENDBRANCH  12  15
ENDBRANCH   6  11
BRANCH   9  22
HETATM   22  O   UNL     1      25.097  40.450  48.676  1.00  0.00    -0.361 OA
HETATM   23  H   UNL     1      24.811  39.624  49.098  1.00  0.00     0.217 HD
ENDBRANCH   9  22
TORSDOF 4
ENDMDL
MODEL 9
REMARK VINA RESULT:      -7.9      3.129      6.637
REMARK  4 active torsions:
REMARK  status: ('A' for Active; 'I' for Inactive)
REMARK    1  A    between atoms: C_6  and  C_7 
REMARK       I    between atoms: C_7  and  N_8 
REMARK    2  A    between atoms: N_8  and  C_9 
REMARK    3  A    between atoms: C_9  and  C_10 
REMARK    4  A    between atoms: C_19  and  O_20 
ROOT
HETATM    1  C   UNL     1      24.737  46.226  50.450  1.00  0.00     0.078 C 
HETATM    2  C   UNL     1      25.065  44.783  50.411  1.00  0.00     0.066 A 
HETATM    3  O   UNL     1      24.952  44.181  49.198  1.00  0.00    -0.314 OA
HETATM    4  C   UNL     1      25.284  42.876  49.365  1.00  0.00     0.087 A 
HETATM    5  C   UNL     1      25.618  42.622  50.693  1.00  0.00     0.019 A 
HETATM    6  C   UNL     1      25.499  43.880  51.374  1.00  0.00     0.074 A 
HETATM    7  C   UNL     1      25.283  41.921  48.350  1.00  0.00     0.041 A 
HETATM    8  C   UNL     1      25.634  40.618  48.711  1.00  0.00     0.039 A 
HETATM    9  C   UNL     1      25.955  40.319  50.033  1.00  0.00     0.066 A 
HETATM   10  C   UNL     1      25.950  41.295  51.037  1.00  0.00     0.052 A 
ENDROOT
BRANCH   6  11
HETATM   11  C   UNL     1      25.743  44.254  52.760  1.00  0.00     0.255 C 
HETATM   12  N   UNL     1      27.017  44.692  53.044  1.00  0.00    -0.353 N 
HETATM   13  H   UNL     1      27.647  44.881  52.278  1.00  0.00     0.163 HD
HETATM   14  O   UNL     1      24.854  44.241  53.608  1.00  0.00    -0.268 OA
BRANCH  12  15
HETATM   15  C   UNL     1      27.292  45.293  54.327  1.00  0.00     0.161 C 
BRANCH  15  16
HETATM   16  C   UNL     1      28.633  44.894  54.888  1.00  0.00    -0.041 A 
HETATM   17  C   UNL     1      29.276  45.679  55.858  1.00  0.00     0.009 A 
HETATM   18  C   UNL     1      30.496  45.275  56.404  1.00  0.00     0.001 A 
HETATM   19  C   UNL     1      31.080  44.078  55.999  1.00  0.00     0.000 A 
HETATM   20  C   UNL     1      30.448  43.283  55.046  1.00  0.00     0.001 A 
HETATM   21  C   UNL     1      29.232  43.689  54.493  1.00  0.00     0.009 A 
ENDBRANCH  15  16
ENDBRANCH  12  15
ENDBRANCH   6  11
BRANCH   9  22
HETATM   22  O   UNL     1      26.287  39.047  50.404  1.00  0.00    -0.361 OA
HETATM   23  H   UNL     1      25.513  38.473  50.286  1.00  0.00     0.217 HD
ENDBRANCH   9  22
TORSDOF 4
ENDMDL
MODEL 10
REMARK VINA RESULT:      -7.7      4.539      7.017
REMARK  4 active torsions:
REMARK  status: ('A' for Active; 'I' for Inactive)
REMARK    1  A    between atoms: C_6  and  C_7 
REMARK       I    between atoms: C_7  and  N_8 
REMARK    2  A    between atoms: N_8  and  C_9 
REMARK    3  A    between atoms: C_9  and  C_10 
REMARK    4  A    between atoms: C_19  and  O_20 
ROOT
HETATM    1  C   UNL     1      23.443  50.765  48.133  1.00  0.00     0.078 C 
HETATM    2  C   UNL     1      23.823  49.445  48.684  1.00  0.00     0.066 A 
HETATM    3  O   UNL     1      25.111  49.324  49.100  1.00  0.00    -0.314 OA
HETATM    4  C   UNL     1      25.267  48.057  49.559  1.00  0.00     0.087 A 
HETATM    5  C   UNL     1      24.076  47.345  49.445  1.00  0.00     0.019 A 
HETATM    6  C   UNL     1      23.121  48.265  48.895  1.00  0.00     0.074 A 
HETATM    7  C   UNL     1      26.457  47.538  50.068  1.00  0.00     0.041 A 
HETATM    8  C   UNL     1      26.438  46.202  50.477  1.00  0.00     0.039 A 
HETATM    9  C   UNL     1      25.271  45.450  50.360  1.00  0.00     0.066 A 
HETATM   10  C   UNL     1      24.087  45.993  49.847  1.00  0.00     0.052 A 
ENDROOT
BRANCH   6  11
HETATM   11  C   UNL     1      21.709  48.113  48.575  1.00  0.00     0.255 C 
HETATM   12  N   UNL     1      20.830  48.537  49.547  1.00  0.00    -0.353 N 
HETATM   13  H   UNL     1      21.189  49.061  50.331  1.00  0.00     0.163 HD
HETATM   14  O   UNL     1      21.324  47.695  47.486  1.00  0.00    -0.268 OA
BRANCH  12  15
HETATM   15  C   UNL     1      19.423  48.636  49.237  1.00  0.00     0.161 C 
BRANCH  15  16
HETATM   16  C   UNL     1      18.937  50.061  49.160  1.00  0.00    -0.041 A 
HETATM   17  C   UNL     1      17.794  50.476  49.863  1.00  0.00     0.009 A 
HETATM   18  C   UNL     1      17.380  51.809  49.822  1.00  0.00     0.001 A 
HETATM   19  C   UNL     1      18.110  52.744  49.090  1.00  0.00     0.000 A 
HETATM   20  C   UNL     1      19.252  52.349  48.398  1.00  0.00     0.001 A 
HETATM   21  C   UNL     1      19.662  51.014  48.432  1.00  0.00     0.009 A 
ENDBRANCH  15  16
ENDBRANCH  12  15
ENDBRANCH   6  11
BRANCH   9  22
HETATM   22  O   UNL     1      25.240  44.140  50.744  1.00  0.00    -0.361 OA
HETATM   23  H   UNL     1      25.347  44.092  51.707  1.00  0.00     0.217 HD
ENDBRANCH   9  22
TORSDOF 4
ENDMDL
