MODEL 1
REMARK VINA RESULT:     -10.5      0.000      0.000
REMARK  5 active torsions:
REMARK  status: ('A' for Active; 'I' for Inactive)
REMARK    1  A    between atoms: N_4  and  C_5 
REMARK    2  A    between atoms: C_16  and  N_17 
REMARK       I    between atoms: N_17  and  C_18 
REMARK    3  A    between atoms: C_18  and  C_19 
REMARK       I    between atoms: C_19  and  N_20 
REMARK    4  A    between atoms: N_20  and  C_21 
REMARK    5  A    between atoms: C_21  and  C_22 
ROOT
HETATM    1  C   UNL     1      26.749  48.301  49.288  1.00  0.00     0.072 C 
HETATM    2  C   UNL     1      26.432  47.032  49.990  1.00  0.00     0.055 C 
HETATM    3  N   UNL     1      27.194  45.950  49.810  1.00  0.00    -0.156 NA
HETATM    4  N   UNL     1      26.611  44.985  50.597  1.00  0.00    -0.045 N 
HETATM    5  C   UNL     1      25.585  45.518  51.377  1.00  0.00     0.152 C 
HETATM    6  C   UNL     1      25.381  46.795  50.899  1.00  0.00     0.079 C 
ENDROOT
BRANCH   5   7
HETATM    7  N   UNL     1      24.854  44.886  52.370  1.00  0.00    -0.303 N 
HETATM    8  C   UNL     1      25.159  44.846  53.720  1.00  0.00     0.315 C 
HETATM    9  O   UNL     1      24.537  44.125  54.500  1.00  0.00    -0.262 OA
HETATM   10  H   UNL     1      23.914  44.574  52.161  1.00  0.00     0.171 HD
BRANCH   8  11
HETATM   11  C   UNL     1      26.192  45.836  54.307  1.00  0.00     0.310 C 
HETATM   12  N   UNL     1      27.456  45.308  54.444  1.00  0.00    -0.349 N 
HETATM   13  H   UNL     1      27.575  44.327  54.213  1.00  0.00     0.163 HD
HETATM   14  O   UNL     1      25.865  46.962  54.654  1.00  0.00    -0.262 OA
BRANCH  12  15
HETATM   15  C   UNL     1      28.495  46.004  55.156  1.00  0.00     0.163 C 
BRANCH  15  16
HETATM   16  C   UNL     1      29.521  45.061  55.723  1.00  0.00    -0.019 A 
HETATM   17  C   UNL     1      30.067  45.214  57.007  1.00  0.00     0.042 A 
HETATM   18 CL   UNL     1      29.548  46.471  58.072  1.00  0.00    -0.084 Cl
HETATM   19  C   UNL     1      31.057  44.340  57.467  1.00  0.00     0.024 A 
HETATM   20  C   UNL     1      31.503  43.295  56.659  1.00  0.00     0.002 A 
HETATM   21  C   UNL     1      30.945  43.109  55.397  1.00  0.00     0.001 A 
HETATM   22  C   UNL     1      29.959  43.981  54.935  1.00  0.00     0.010 A 
ENDBRANCH  15  16
ENDBRANCH  12  15
ENDBRANCH   8  11
ENDBRANCH   5   7
BRANCH   4  23
HETATM   23  C   UNL     1      26.990  43.639  50.396  1.00  0.00     0.732 A 
HETATM   24  N   UNL     1      26.903  43.022  49.262  1.00  0.00    -0.067 NA
HETATM   25  C   UNL     1      27.359  41.725  49.227  1.00  0.00     0.065 A 
HETATM   26  C   UNL     1      27.905  41.087  50.279  1.00  0.00     0.036 A 
HETATM   27  C   UNL     1      27.247  41.047  47.880  1.00  0.00     0.060 C 
HETATM   28  C   UNL     1      28.443  39.688  50.238  1.00  0.00     0.046 C 
HETATM   29  C   UNL     1      27.988  41.819  51.566  1.00  0.00     0.268 A 
HETATM   30  C   UNL     1      28.075  38.930  48.961  1.00  0.00     0.005 C 
HETATM   31  C   UNL     1      28.157  39.826  47.733  1.00  0.00     0.006 C 
HETATM   32  O   UNL     1      28.469  41.316  52.575  1.00  0.00    -0.267 OA
HETATM   33  N   UNL     1      27.500  43.087  51.539  1.00  0.00    -0.152 N 
HETATM   34  H   UNL     1      27.552  43.659  52.375  1.00  0.00     0.188 HD
ENDBRANCH   4  23
TORSDOF 5
ENDMDL
MODEL 2
REMARK VINA RESULT:     -10.3      3.964      6.778
REMARK  5 active torsions:
REMARK  status: ('A' for Active; 'I' for Inactive)
REMARK    1  A    between atoms: N_4  and  C_5 
REMARK    2  A    between atoms: C_16  and  N_17 
REMARK       I    between atoms: N_17  and  C_18 
REMARK    3  A    between atoms: C_18  and  C_19 
REMARK       I    between atoms: C_19  and  N_20 
REMARK    4  A    between atoms: N_20  and  C_21 
REMARK    5  A    between atoms: C_21  and  C_22 
ROOT
HETATM    1  C   UNL     1      27.907  49.312  49.154  1.00  0.00     0.072 C 
HETATM    2  C   UNL     1      26.634  48.629  49.492  1.00  0.00     0.055 C 
HETATM    3  N   UNL     1      25.480  49.045  48.963  1.00  0.00    -0.156 NA
HETATM    4  N   UNL     1      24.534  48.200  49.492  1.00  0.00    -0.045 N 
HETATM    5  C   UNL     1      25.127  47.169  50.222  1.00  0.00     0.152 C 
HETATM    6  C   UNL     1      26.457  47.511  50.333  1.00  0.00     0.079 C 
ENDROOT
BRANCH   5   7
HETATM    7  N   UNL     1      24.510  46.069  50.796  1.00  0.00    -0.303 N 
HETATM    8  C   UNL     1      24.835  45.479  52.005  1.00  0.00     0.315 C 
HETATM    9  O   UNL     1      24.336  44.410  52.355  1.00  0.00    -0.262 OA
HETATM   10  H   UNL     1      23.624  45.756  50.421  1.00  0.00     0.171 HD
BRANCH   8  11
HETATM   11  C   UNL     1      25.718  46.239  53.022  1.00  0.00     0.310 C 
HETATM   12  N   UNL     1      26.834  45.542  53.423  1.00  0.00    -0.349 N 
HETATM   13  H   UNL     1      26.938  44.594  53.074  1.00  0.00     0.163 HD
HETATM   14  O   UNL     1      25.393  47.339  53.447  1.00  0.00    -0.262 OA
BRANCH  12  15
HETATM   15  C   UNL     1      27.662  45.995  54.510  1.00  0.00     0.163 C 
BRANCH  15  16
HETATM   16  C   UNL     1      28.770  45.025  54.819  1.00  0.00    -0.019 A 
HETATM   17  C   UNL     1      29.545  45.104  55.987  1.00  0.00     0.042 A 
HETATM   18 CL   UNL     1      29.239  46.292  57.203  1.00  0.00    -0.084 Cl
HETATM   19  C   UNL     1      30.598  44.209  56.203  1.00  0.00     0.024 A 
HETATM   20  C   UNL     1      30.881  43.217  55.265  1.00  0.00     0.002 A 
HETATM   21  C   UNL     1      30.098  43.104  54.120  1.00  0.00     0.001 A 
HETATM   22  C   UNL     1      29.048  43.996  53.900  1.00  0.00     0.010 A 
ENDBRANCH  15  16
ENDBRANCH  12  15
ENDBRANCH   8  11
ENDBRANCH   5   7
BRANCH   4  23
HETATM   23  C   UNL     1      23.174  48.562  49.376  1.00  0.00     0.732 A 
HETATM   24  N   UNL     1      22.716  49.748  49.615  1.00  0.00    -0.067 NA
HETATM   25  C   UNL     1      21.370  49.944  49.409  1.00  0.00     0.065 A 
HETATM   26  C   UNL     1      20.528  48.997  48.956  1.00  0.00     0.036 A 
HETATM   27  C   UNL     1      20.881  51.347  49.691  1.00  0.00     0.060 C 
HETATM   28  C   UNL     1      19.068  49.215  48.690  1.00  0.00     0.046 C 
HETATM   29  C   UNL     1      21.082  47.646  48.695  1.00  0.00     0.268 A 
HETATM   30  C   UNL     1      18.540  50.543  49.235  1.00  0.00     0.005 C 
HETATM   31  C   UNL     1      19.541  51.672  49.029  1.00  0.00     0.006 C 
HETATM   32  O   UNL     1      20.389  46.723  48.283  1.00  0.00    -0.267 OA
HETATM   33  N   UNL     1      22.412  47.512  48.940  1.00  0.00    -0.152 N 
HETATM   34  H   UNL     1      22.866  46.625  48.754  1.00  0.00     0.188 HD
ENDBRANCH   4  23
TORSDOF 5
ENDMDL
MODEL 3
REMARK VINA RESULT:      -9.9      6.005      9.320
REMARK  5 active torsions:
REMARK  status: ('A' for Active; 'I' for Inactive)
REMARK    1  A    between atoms: N_4  and  C_5 
REMARK    2  A    between atoms: C_16  and  N_17 
REMARK       I    between atoms: N_17  and  C_18 
REMARK    3  A    between atoms: C_18  and  C_19 
REMARK       I    between atoms: C_19  and  N_20 
REMARK    4  A    between atoms: N_20  and  C_21 
REMARK    5  A    between atoms: C_21  and  C_22 
ROOT
HETATM    1  C   UNL     1      23.197  50.902  48.170  1.00  0.00     0.072 C 
HETATM    2  C   UNL     1      23.263  49.475  48.574  1.00  0.00     0.055 C 
HETATM    3  N   UNL     1      24.051  49.092  49.582  1.00  0.00    -0.156 NA
HETATM    4  N   UNL     1      23.864  47.733  49.668  1.00  0.00    -0.045 N 
HETATM    5  C   UNL     1      22.845  47.307  48.815  1.00  0.00     0.152 C 
HETATM    6  C   UNL     1      22.547  48.393  48.021  1.00  0.00     0.079 C 
ENDROOT
BRANCH   5   7
HETATM    7  N   UNL     1      22.295  46.039  48.714  1.00  0.00    -0.303 N 
HETATM    8  C   UNL     1      20.950  45.717  48.768  1.00  0.00     0.315 C 
HETATM    9  O   UNL     1      20.569  44.549  48.830  1.00  0.00    -0.262 OA
HETATM   10  H   UNL     1      22.877  45.279  48.386  1.00  0.00     0.171 HD
BRANCH   8  11
HETATM   11  C   UNL     1      19.884  46.823  48.588  1.00  0.00     0.310 C 
HETATM   12  N   UNL     1      19.406  47.337  49.772  1.00  0.00    -0.349 N 
HETATM   13  H   UNL     1      19.741  46.910  50.630  1.00  0.00     0.163 HD
HETATM   14  O   UNL     1      19.489  47.150  47.477  1.00  0.00    -0.262 OA
BRANCH  12  15
HETATM   15  C   UNL     1      18.272  48.222  49.812  1.00  0.00     0.163 C 
BRANCH  15  16
HETATM   16  C   UNL     1      18.630  49.620  49.387  1.00  0.00    -0.019 A 
HETATM   17  C   UNL     1      18.009  50.268  48.308  1.00  0.00     0.042 A 
HETATM   18 CL   UNL     1      16.726  49.529  47.418  1.00  0.00    -0.084 Cl
HETATM   19  C   UNL     1      18.415  51.549  47.919  1.00  0.00     0.024 A 
HETATM   20  C   UNL     1      19.434  52.204  48.611  1.00  0.00     0.002 A 
HETATM   21  C   UNL     1      20.033  51.588  49.705  1.00  0.00     0.001 A 
HETATM   22  C   UNL     1      19.632  50.309  50.094  1.00  0.00     0.010 A 
ENDBRANCH  15  16
ENDBRANCH  12  15
ENDBRANCH   8  11
ENDBRANCH   5   7
BRANCH   4  23
HETATM   23  C   UNL     1      24.783  46.978  50.430  1.00  0.00     0.732 A 
HETATM   24  N   UNL     1      24.925  47.088  51.711  1.00  0.00    -0.067 NA
HETATM   25  C   UNL     1      25.834  46.244  52.306  1.00  0.00     0.065 A 
HETATM   26  C   UNL     1      26.547  45.312  51.646  1.00  0.00     0.036 A 
HETATM   27  C   UNL     1      25.960  46.400  53.805  1.00  0.00     0.060 C 
HETATM   28  C   UNL     1      27.509  44.361  52.294  1.00  0.00     0.046 C 
HETATM   29  C   UNL     1      26.365  45.214  50.177  1.00  0.00     0.268 A 
HETATM   30  C   UNL     1      27.826  44.712  53.748  1.00  0.00     0.005 C 
HETATM   31  C   UNL     1      26.588  45.188  54.495  1.00  0.00     0.006 C 
HETATM   32  O   UNL     1      26.973  44.396  49.496  1.00  0.00    -0.267 OA
HETATM   33  N   UNL     1      25.471  46.090  49.648  1.00  0.00    -0.152 N 
HETATM   34  H   UNL     1      25.271  46.060  48.654  1.00  0.00     0.188 HD
ENDBRANCH   4  23
TORSDOF 5
ENDMDL
MODEL 4
REMARK VINA RESULT:      -9.7      3.752      7.919
REMARK  5 active torsions:
REMARK  status: ('A' for Active; 'I' for Inactive)
REMARK    1  A    between atoms: N_4  and  C_5 
REMARK    2  A    between atoms: C_16  and  N_17 
REMARK       I    between atoms: N_17  and  C_18 
REMARK    3  A    between atoms: C_18  and  C_19 
REMARK       I    between atoms: C_19  and  N_20 
REMARK    4  A    between atoms: N_20  and  C_21 
REMARK    5  A    between atoms: C_21  and  C_22 
ROOT
HETATM    1  C   UNL     1      23.313  42.578  50.207  1.00  0.00     0.072 C 
HETATM    2  C   UNL     1      24.525  43.403  50.441  1.00  0.00     0.055 C 
HETATM    3  N   UNL     1      25.258  43.232  51.544  1.00  0.00    -0.156 NA
HETATM    4  N   UNL     1      26.275  44.149  51.426  1.00  0.00    -0.045 N 
HETATM    5  C   UNL     1      26.253  44.774  50.179  1.00  0.00     0.152 C 
HETATM    6  C   UNL     1      25.062  44.395  49.596  1.00  0.00     0.079 C 
ENDROOT
BRANCH   5   7
HETATM    7  N   UNL     1      27.180  45.658  49.653  1.00  0.00    -0.303 N 
HETATM    8  C   UNL     1      26.983  47.004  49.395  1.00  0.00     0.315 C 
HETATM    9  O   UNL     1      27.814  47.671  48.780  1.00  0.00    -0.262 OA
HETATM   10  H   UNL     1      28.153  45.380  49.615  1.00  0.00     0.171 HD
BRANCH   8  11
HETATM   11  C   UNL     1      25.776  47.741  50.022  1.00  0.00     0.310 C 
HETATM   12  N   UNL     1      24.907  48.276  49.099  1.00  0.00    -0.349 N 
HETATM   13  H   UNL     1      25.165  48.195  48.120  1.00  0.00     0.163 HD
HETATM   14  O   UNL     1      25.665  47.860  51.234  1.00  0.00    -0.262 OA
BRANCH  12  15
HETATM   15  C   UNL     1      23.844  49.166  49.484  1.00  0.00     0.163 C 
BRANCH  15  16
HETATM   16  C   UNL     1      22.511  48.719  48.948  1.00  0.00    -0.019 A 
HETATM   17  C   UNL     1      21.317  49.410  49.210  1.00  0.00     0.042 A 
HETATM   18 CL   UNL     1      21.295  50.877  50.121  1.00  0.00    -0.084 Cl
HETATM   19  C   UNL     1      20.096  48.924  48.731  1.00  0.00     0.024 A 
HETATM   20  C   UNL     1      20.052  47.753  47.975  1.00  0.00     0.002 A 
HETATM   21  C   UNL     1      21.232  47.078  47.677  1.00  0.00     0.001 A 
HETATM   22  C   UNL     1      22.452  47.559  48.155  1.00  0.00     0.010 A 
ENDBRANCH  15  16
ENDBRANCH  12  15
ENDBRANCH   8  11
ENDBRANCH   5   7
BRANCH   4  23
HETATM   23  C   UNL     1      27.050  44.439  52.571  1.00  0.00     0.732 A 
HETATM   24  N   UNL     1      27.999  43.680  53.016  1.00  0.00    -0.067 NA
HETATM   25  C   UNL     1      28.687  44.133  54.117  1.00  0.00     0.065 A 
HETATM   26  C   UNL     1      28.450  45.310  54.726  1.00  0.00     0.036 A 
HETATM   27  C   UNL     1      29.792  43.219  54.597  1.00  0.00     0.060 C 
HETATM   28  C   UNL     1      29.224  45.829  55.902  1.00  0.00     0.046 C 
HETATM   29  C   UNL     1      27.354  46.156  54.195  1.00  0.00     0.268 A 
HETATM   30  C   UNL     1      30.142  44.784  56.537  1.00  0.00     0.005 C 
HETATM   31  C   UNL     1      30.822  43.919  55.485  1.00  0.00     0.006 C 
HETATM   32  O   UNL     1      27.068  47.242  54.687  1.00  0.00    -0.267 OA
HETATM   33  N   UNL     1      26.699  45.641  53.121  1.00  0.00    -0.152 N 
HETATM   34  H   UNL     1      25.958  46.179  52.684  1.00  0.00     0.188 HD
ENDBRANCH   4  23
TORSDOF 5
ENDMDL
MODEL 5
REMARK VINA RESULT:      -9.2      4.397      7.070
REMARK  5 active torsions:
REMARK  status: ('A' for Active; 'I' for Inactive)
REMARK    1  A    between atoms: N_4  and  C_5 
REMARK    2  A    between atoms: C_16  and  N_17 
REMARK       I    between atoms: N_17  and  C_18 
REMARK    3  A    between atoms: C_18  and  C_19 
REMARK       I    between atoms: C_19  and  N_20 
REMARK    4  A    between atoms: N_20  and  C_21 
REMARK    5  A    between atoms: C_21  and  C_22 
ROOT
HETATM    1  C   UNL     1      27.392  48.775  49.410  1.00  0.00     0.072 C 
HETATM    2  C   UNL     1      26.077  48.117  49.611  1.00  0.00     0.055 C 
HETATM    3  N   UNL     1      24.987  48.578  48.992  1.00  0.00    -0.156 NA
HETATM    4  N   UNL     1      23.976  47.744  49.408  1.00  0.00    -0.045 N 
HETATM    5  C   UNL     1      24.475  46.678  50.159  1.00  0.00     0.152 C 
HETATM    6  C   UNL     1      25.798  46.982  50.400  1.00  0.00     0.079 C 
ENDROOT
BRANCH   5   7
HETATM    7  N   UNL     1      23.783  45.580  50.642  1.00  0.00    -0.303 N 
HETATM    8  C   UNL     1      24.252  44.280  50.724  1.00  0.00     0.315 C 
HETATM    9  O   UNL     1      23.509  43.344  51.018  1.00  0.00    -0.262 OA
HETATM   10  H   UNL     1      22.927  45.732  51.160  1.00  0.00     0.171 HD
BRANCH   8  11
HETATM   11  C   UNL     1      25.768  43.998  50.606  1.00  0.00     0.310 C 
HETATM   12  N   UNL     1      26.403  43.842  51.817  1.00  0.00    -0.349 N 
HETATM   13  H   UNL     1      25.846  43.987  52.653  1.00  0.00     0.163 HD
HETATM   14  O   UNL     1      26.326  43.973  49.518  1.00  0.00    -0.262 OA
BRANCH  12  15
HETATM   15  C   UNL     1      27.837  43.778  51.918  1.00  0.00     0.163 C 
BRANCH  15  16
HETATM   16  C   UNL     1      28.333  44.271  53.251  1.00  0.00    -0.019 A 
HETATM   17  C   UNL     1      29.446  43.715  53.899  1.00  0.00     0.042 A 
HETATM   18 CL   UNL     1      30.384  42.455  53.181  1.00  0.00    -0.084 Cl
HETATM   19  C   UNL     1      29.835  44.175  55.162  1.00  0.00     0.024 A 
HETATM   20  C   UNL     1      29.127  45.202  55.785  1.00  0.00     0.002 A 
HETATM   21  C   UNL     1      28.043  45.787  55.137  1.00  0.00     0.001 A 
HETATM   22  C   UNL     1      27.652  45.329  53.879  1.00  0.00     0.010 A 
ENDBRANCH  15  16
ENDBRANCH  12  15
ENDBRANCH   8  11
ENDBRANCH   5   7
BRANCH   4  23
HETATM   23  C   UNL     1      22.642  48.145  49.180  1.00  0.00     0.732 A 
HETATM   24  N   UNL     1      21.736  47.385  48.652  1.00  0.00    -0.067 NA
HETATM   25  C   UNL     1      20.472  47.916  48.542  1.00  0.00     0.065 A 
HETATM   26  C   UNL     1      20.128  49.145  48.971  1.00  0.00     0.036 A 
HETATM   27  C   UNL     1      19.445  46.991  47.929  1.00  0.00     0.060 C 
HETATM   28  C   UNL     1      18.743  49.715  48.892  1.00  0.00     0.046 C 
HETATM   29  C   UNL     1      21.189  49.993  49.568  1.00  0.00     0.268 A 
HETATM   30  C   UNL     1      17.790  48.885  48.030  1.00  0.00     0.005 C 
HETATM   31  C   UNL     1      18.001  47.391  48.238  1.00  0.00     0.006 C 
HETATM   32  O   UNL     1      20.965  51.124  49.983  1.00  0.00    -0.267 OA
HETATM   33  N   UNL     1      22.419  49.419  49.626  1.00  0.00    -0.152 N 
HETATM   34  H   UNL     1      23.187  49.927  50.051  1.00  0.00     0.188 HD
ENDBRANCH   4  23
TORSDOF 5
ENDMDL
MODEL 6
REMARK VINA RESULT:      -9.1     12.747     15.527
REMARK  5 active torsions:
REMARK  status: ('A' for Active; 'I' for Inactive)
REMARK    1  A    between atoms: N_4  and  C_5 
REMARK    2  A    between atoms: C_16  and  N_17 
REMARK       I    between atoms: N_17  and  C_18 
REMARK    3  A    between atoms: C_18  and  C_19 
REMARK       I    between atoms: C_19  and  N_20 
REMARK    4  A    between atoms: N_20  and  C_21 
REMARK    5  A    between atoms: C_21  and  C_22 
ROOT
HETATM    1  C   UNL     1      30.606  47.092  40.074  1.00  0.00     0.072 C 
HETATM    2  C   UNL     1      31.347  48.115  40.853  1.00  0.00     0.055 C 
HETATM    3  N   UNL     1      32.379  48.765  40.310  1.00  0.00    -0.156 NA
HETATM    4  N   UNL     1      32.813  49.613  41.302  1.00  0.00    -0.045 N 
HETATM    5  C   UNL     1      31.951  49.593  42.398  1.00  0.00     0.152 C 
HETATM    6  C   UNL     1      31.086  48.544  42.171  1.00  0.00     0.079 C 
ENDROOT
BRANCH   5   7
HETATM    7  N   UNL     1      31.992  50.394  43.528  1.00  0.00    -0.303 N 
HETATM    8  C   UNL     1      31.790  51.763  43.575  1.00  0.00     0.315 C 
HETATM    9  O   UNL     1      32.005  52.411  44.599  1.00  0.00    -0.262 OA
HETATM   10  H   UNL     1      31.981  49.954  44.439  1.00  0.00     0.171 HD
BRANCH   8  11
HETATM   11  C   UNL     1      31.130  52.488  42.379  1.00  0.00     0.310 C 
HETATM   12  N   UNL     1      29.755  52.485  42.413  1.00  0.00    -0.349 N 
HETATM   13  H   UNL     1      29.312  51.966  43.166  1.00  0.00     0.163 HD
HETATM   14  O   UNL     1      31.804  52.965  41.476  1.00  0.00    -0.262 OA
BRANCH  12  15
HETATM   15  C   UNL     1      28.966  52.927  41.293  1.00  0.00     0.163 C 
BRANCH  15  16
HETATM   16  C   UNL     1      28.368  51.774  40.533  1.00  0.00    -0.019 A 
HETATM   17  C   UNL     1      28.180  51.798  39.143  1.00  0.00     0.042 A 
HETATM   18 CL   UNL     1      28.687  53.138  38.178  1.00  0.00    -0.084 Cl
HETATM   19  C   UNL     1      27.570  50.721  38.490  1.00  0.00     0.024 A 
HETATM   20  C   UNL     1      27.156  49.603  39.214  1.00  0.00     0.002 A 
HETATM   21  C   UNL     1      27.370  49.551  40.588  1.00  0.00     0.001 A 
HETATM   22  C   UNL     1      27.975  50.624  41.242  1.00  0.00     0.010 A 
ENDBRANCH  15  16
ENDBRANCH  12  15
ENDBRANCH   8  11
ENDBRANCH   5   7
BRANCH   4  23
HETATM   23  C   UNL     1      34.080  50.219  41.156  1.00  0.00     0.732 A 
HETATM   24  N   UNL     1      35.057  50.067  41.991  1.00  0.00    -0.067 NA
HETATM   25  C   UNL     1      36.241  50.692  41.676  1.00  0.00     0.065 A 
HETATM   26  C   UNL     1      36.442  51.414  40.558  1.00  0.00     0.036 A 
HETATM   27  C   UNL     1      37.358  50.479  42.674  1.00  0.00     0.060 C 
HETATM   28  C   UNL     1      37.742  52.063  40.188  1.00  0.00     0.046 C 
HETATM   29  C   UNL     1      35.302  51.573  39.623  1.00  0.00     0.268 A 
HETATM   30  C   UNL     1      38.766  52.070  41.325  1.00  0.00     0.005 C 
HETATM   31  C   UNL     1      38.749  50.762  42.104  1.00  0.00     0.006 C 
HETATM   32  O   UNL     1      35.394  52.214  38.582  1.00  0.00    -0.267 OA
HETATM   33  N   UNL     1      34.155  50.951  40.003  1.00  0.00    -0.152 N 
HETATM   34  H   UNL     1      33.342  50.990  39.397  1.00  0.00     0.188 HD
ENDBRANCH   4  23
TORSDOF 5
ENDMDL
MODEL 7
REMARK VINA RESULT:      -8.9     13.098     15.833
REMARK  5 active torsions:
REMARK  status: ('A' for Active; 'I' for Inactive)
REMARK    1  A    between atoms: N_4  and  C_5 
REMARK    2  A    between atoms: C_16  and  N_17 
REMARK       I    between atoms: N_17  and  C_18 
REMARK    3  A    between atoms: C_18  and  C_19 
REMARK       I    between atoms: C_19  and  N_20 
REMARK    4  A    between atoms: N_20  and  C_21 
REMARK    5  A    between atoms: C_21  and  C_22 
ROOT
HETATM    1  C   UNL     1      37.829  52.176  38.291  1.00  0.00     0.072 C 
HETATM    2  C   UNL     1      36.650  52.157  39.192  1.00  0.00     0.055 C 
HETATM    3  N   UNL     1      35.420  51.999  38.696  1.00  0.00    -0.156 NA
HETATM    4  N   UNL     1      34.597  52.037  39.797  1.00  0.00    -0.045 N 
HETATM    5  C   UNL     1      35.336  52.061  40.981  1.00  0.00     0.152 C 
HETATM    6  C   UNL     1      36.643  52.269  40.598  1.00  0.00     0.079 C 
ENDROOT
BRANCH   5   7
HETATM    7  N   UNL     1      34.863  51.981  42.280  1.00  0.00    -0.303 N 
HETATM    8  C   UNL     1      33.894  51.113  42.753  1.00  0.00     0.315 C 
HETATM    9  O   UNL     1      33.425  51.225  43.886  1.00  0.00    -0.262 OA
HETATM   10  H   UNL     1      35.374  52.452  43.016  1.00  0.00     0.171 HD
BRANCH   8  11
HETATM   11  C   UNL     1      33.493  49.875  41.918  1.00  0.00     0.310 C 
HETATM   12  N   UNL     1      32.139  49.760  41.703  1.00  0.00    -0.349 N 
HETATM   13  H   UNL     1      31.539  50.444  42.155  1.00  0.00     0.163 HD
HETATM   14  O   UNL     1      34.329  49.065  41.542  1.00  0.00    -0.262 OA
BRANCH  12  15
HETATM   15  C   UNL     1      31.559  48.575  41.128  1.00  0.00     0.163 C 
BRANCH  15  16
HETATM   16  C   UNL     1      30.057  48.646  41.080  1.00  0.00    -0.019 A 
HETATM   17  C   UNL     1      29.274  47.708  40.389  1.00  0.00     0.042 A 
HETATM   18 CL   UNL     1      29.977  46.348  39.589  1.00  0.00    -0.084 Cl
HETATM   19  C   UNL     1      27.883  47.849  40.331  1.00  0.00     0.024 A 
HETATM   20  C   UNL     1      27.257  48.917  40.973  1.00  0.00     0.002 A 
HETATM   21  C   UNL     1      28.018  49.834  41.692  1.00  0.00     0.001 A 
HETATM   22  C   UNL     1      29.405  49.698  41.750  1.00  0.00     0.010 A 
ENDBRANCH  15  16
ENDBRANCH  12  15
ENDBRANCH   8  11
ENDBRANCH   5   7
BRANCH   4  23
HETATM   23  C   UNL     1      33.211  52.206  39.590  1.00  0.00     0.732 A 
HETATM   24  N   UNL     1      32.483  51.417  38.868  1.00  0.00    -0.067 NA
HETATM   25  C   UNL     1      31.138  51.699  38.808  1.00  0.00     0.065 A 
HETATM   26  C   UNL     1      30.547  52.713  39.468  1.00  0.00     0.036 A 
HETATM   27  C   UNL     1      30.325  50.745  37.962  1.00  0.00     0.060 C 
HETATM   28  C   UNL     1      29.076  53.001  39.440  1.00  0.00     0.046 C 
HETATM   29  C   UNL     1      31.409  53.603  40.284  1.00  0.00     0.268 A 
HETATM   30  C   UNL     1      28.319  52.207  38.375  1.00  0.00     0.005 C 
HETATM   31  C   UNL     1      28.828  50.776  38.273  1.00  0.00     0.006 C 
HETATM   32  O   UNL     1      30.957  54.550  40.917  1.00  0.00    -0.267 OA
HETATM   33  N   UNL     1      32.730  53.284  40.283  1.00  0.00    -0.152 N 
HETATM   34  H   UNL     1      33.375  53.829  40.844  1.00  0.00     0.188 HD
ENDBRANCH   4  23
TORSDOF 5
ENDMDL
MODEL 8
REMARK VINA RESULT:      -8.9      6.171      9.341
REMARK  5 active torsions:
REMARK  status: ('A' for Active; 'I' for Inactive)
REMARK    1  A    between atoms: N_4  and  C_5 
REMARK    2  A    between atoms: C_16  and  N_17 
REMARK       I    between atoms: N_17  and  C_18 
REMARK    3  A    between atoms: C_18  and  C_19 
REMARK       I    between atoms: C_19  and  N_20 
REMARK    4  A    between atoms: N_20  and  C_21 
REMARK    5  A    between atoms: C_21  and  C_22 
ROOT
HETATM    1  C   UNL     1      22.796  51.032  49.323  1.00  0.00     0.072 C 
HETATM    2  C   UNL     1      22.773  49.604  48.918  1.00  0.00     0.055 C 
HETATM    3  N   UNL     1      23.294  48.665  49.712  1.00  0.00    -0.156 NA
HETATM    4  N   UNL     1      23.103  47.489  49.027  1.00  0.00    -0.045 N 
HETATM    5  C   UNL     1      22.327  47.689  47.884  1.00  0.00     0.152 C 
HETATM    6  C   UNL     1      22.223  49.056  47.741  1.00  0.00     0.079 C 
ENDROOT
BRANCH   5   7
HETATM    7  N   UNL     1      21.828  46.731  47.016  1.00  0.00    -0.303 N 
HETATM    8  C   UNL     1      20.606  46.088  47.112  1.00  0.00     0.315 C 
HETATM    9  O   UNL     1      20.320  45.137  46.384  1.00  0.00    -0.262 OA
HETATM   10  H   UNL     1      22.284  46.598  46.122  1.00  0.00     0.171 HD
BRANCH   8  11
HETATM   11  C   UNL     1      19.503  46.659  48.033  1.00  0.00     0.310 C 
HETATM   12  N   UNL     1      18.683  47.577  47.419  1.00  0.00    -0.349 N 
HETATM   13  H   UNL     1      18.911  47.835  46.463  1.00  0.00     0.163 HD
HETATM   14  O   UNL     1      19.430  46.337  49.211  1.00  0.00    -0.262 OA
BRANCH  12  15
HETATM   15  C   UNL     1      17.735  48.365  48.162  1.00  0.00     0.163 C 
BRANCH  15  16
HETATM   16  C   UNL     1      18.238  49.759  48.422  1.00  0.00    -0.019 A 
HETATM   17  C   UNL     1      18.693  50.179  49.681  1.00  0.00     0.042 A 
HETATM   18 CL   UNL     1      18.774  49.100  51.027  1.00  0.00    -0.084 Cl
HETATM   19  C   UNL     1      19.101  51.502  49.883  1.00  0.00     0.024 A 
HETATM   20  C   UNL     1      19.075  52.415  48.829  1.00  0.00     0.002 A 
HETATM   21  C   UNL     1      18.660  52.002  47.567  1.00  0.00     0.001 A 
HETATM   22  C   UNL     1      18.250  50.684  47.362  1.00  0.00     0.010 A 
ENDBRANCH  15  16
ENDBRANCH  12  15
ENDBRANCH   8  11
ENDBRANCH   5   7
BRANCH   4  23
HETATM   23  C   UNL     1      23.813  46.345  49.450  1.00  0.00     0.732 A 
HETATM   24  N   UNL     1      25.103  46.285  49.544  1.00  0.00    -0.067 NA
HETATM   25  C   UNL     1      25.633  45.108  50.018  1.00  0.00     0.065 A 
HETATM   26  C   UNL     1      24.899  44.049  50.407  1.00  0.00     0.036 A 
HETATM   27  C   UNL     1      27.142  45.086  50.120  1.00  0.00     0.060 C 
HETATM   28  C   UNL     1      25.469  42.779  50.964  1.00  0.00     0.046 C 
HETATM   29  C   UNL     1      23.424  44.147  50.284  1.00  0.00     0.268 A 
HETATM   30  C   UNL     1      26.986  42.669  50.804  1.00  0.00     0.005 C 
HETATM   31  C   UNL     1      27.676  44.002  51.058  1.00  0.00     0.006 C 
HETATM   32  O   UNL     1      22.678  43.232  50.614  1.00  0.00    -0.267 OA
HETATM   33  N   UNL     1      22.965  45.326  49.789  1.00  0.00    -0.152 N 
HETATM   34  H   UNL     1      21.966  45.477  49.706  1.00  0.00     0.188 HD
ENDBRANCH   4  23
TORSDOF 5
ENDMDL
MODEL 9
REMARK VINA RESULT:      -8.8      7.969     11.487
REMARK  5 active torsions:
REMARK  status: ('A' for Active; 'I' for Inactive)
REMARK    1  A    between atoms: N_4  and  C_5 
REMARK    2  A    between atoms: C_16  and  N_17 
REMARK       I    between atoms: N_17  and  C_18 
REMARK    3  A    between atoms: C_18  and  C_19 
REMARK       I    between atoms: C_19  and  N_20 
REMARK    4  A    between atoms: N_20  and  C_21 
REMARK    5  A    between atoms: C_21  and  C_22 
ROOT
HETATM    1  C   UNL     1      17.929  46.605  45.470  1.00  0.00     0.072 C 
HETATM    2  C   UNL     1      18.545  46.879  46.792  1.00  0.00     0.055 C 
HETATM    3  N   UNL     1      19.844  47.173  46.886  1.00  0.00    -0.156 NA
HETATM    4  N   UNL     1      20.059  47.357  48.232  1.00  0.00    -0.045 N 
HETATM    5  C   UNL     1      18.859  47.328  48.945  1.00  0.00     0.152 C 
HETATM    6  C   UNL     1      17.906  46.895  48.049  1.00  0.00     0.079 C 
ENDROOT
BRANCH   5   7
HETATM    7  N   UNL     1      18.663  47.593  50.290  1.00  0.00    -0.303 N 
HETATM    8  C   UNL     1      18.745  48.829  50.908  1.00  0.00     0.315 C 
HETATM    9  O   UNL     1      18.713  48.940  52.133  1.00  0.00    -0.262 OA
HETATM   10  H   UNL     1      18.240  46.880  50.871  1.00  0.00     0.171 HD
BRANCH   8  11
HETATM   11  C   UNL     1      18.717  50.120  50.058  1.00  0.00     0.310 C 
HETATM   12  N   UNL     1      17.471  50.437  49.565  1.00  0.00    -0.349 N 
HETATM   13  H   UNL     1      16.721  49.778  49.747  1.00  0.00     0.163 HD
HETATM   14  O   UNL     1      19.739  50.749  49.823  1.00  0.00    -0.262 OA
BRANCH  12  15
HETATM   15  C   UNL     1      17.283  51.480  48.591  1.00  0.00     0.163 C 
BRANCH  15  16
HETATM   16  C   UNL     1      16.856  50.935  47.255  1.00  0.00    -0.019 A 
HETATM   17  C   UNL     1      17.771  50.540  46.268  1.00  0.00     0.042 A 
HETATM   18 CL   UNL     1      19.477  50.585  46.538  1.00  0.00    -0.084 Cl
HETATM   19  C   UNL     1      17.323  50.089  45.022  1.00  0.00     0.024 A 
HETATM   20  C   UNL     1      15.956  50.013  44.752  1.00  0.00     0.002 A 
HETATM   21  C   UNL     1      15.037  50.368  45.734  1.00  0.00     0.001 A 
HETATM   22  C   UNL     1      15.481  50.820  46.977  1.00  0.00     0.010 A 
ENDBRANCH  15  16
ENDBRANCH  12  15
ENDBRANCH   8  11
ENDBRANCH   5   7
BRANCH   4  23
HETATM   23  C   UNL     1      21.391  47.377  48.700  1.00  0.00     0.732 A 
HETATM   24  N   UNL     1      22.120  46.320  48.861  1.00  0.00    -0.067 NA
HETATM   25  C   UNL     1      23.414  46.521  49.282  1.00  0.00     0.065 A 
HETATM   26  C   UNL     1      23.958  47.732  49.504  1.00  0.00     0.036 A 
HETATM   27  C   UNL     1      24.232  45.259  49.446  1.00  0.00     0.060 C 
HETATM   28  C   UNL     1      25.380  47.959  49.923  1.00  0.00     0.046 C 
HETATM   29  C   UNL     1      23.096  48.924  49.316  1.00  0.00     0.268 A 
HETATM   30  C   UNL     1      26.104  46.680  50.347  1.00  0.00     0.005 C 
HETATM   31  C   UNL     1      25.741  45.506  49.448  1.00  0.00     0.006 C 
HETATM   32  O   UNL     1      23.508  50.064  49.496  1.00  0.00    -0.267 OA
HETATM   33  N   UNL     1      21.824  48.656  48.921  1.00  0.00    -0.152 N 
HETATM   34  H   UNL     1      21.186  49.424  48.742  1.00  0.00     0.188 HD
ENDBRANCH   4  23
TORSDOF 5
ENDMDL
MODEL 10
REMARK VINA RESULT:      -8.7      3.123      4.167
REMARK  5 active torsions:
REMARK  status: ('A' for Active; 'I' for Inactive)
REMARK    1  A    between atoms: N_4  and  C_5 
REMARK    2  A    between atoms: C_16  and  N_17 
REMARK       I    between atoms: N_17  and  C_18 
REMARK    3  A    between atoms: C_18  and  C_19 
REMARK       I    between atoms: C_19  and  N_20 
REMARK    4  A    between atoms: N_20  and  C_21 
REMARK    5  A    between atoms: C_21  and  C_22 
ROOT
HETATM    1  C   UNL     1      20.462  48.507  49.202  1.00  0.00     0.072 C 
HETATM    2  C   UNL     1      21.829  47.935  49.122  1.00  0.00     0.055 C 
HETATM    3  N   UNL     1      22.008  46.648  48.813  1.00  0.00    -0.156 NA
HETATM    4  N   UNL     1      23.371  46.475  48.836  1.00  0.00    -0.045 N 
HETATM    5  C   UNL     1      24.034  47.691  49.007  1.00  0.00     0.152 C 
HETATM    6  C   UNL     1      23.052  48.607  49.320  1.00  0.00     0.079 C 
ENDROOT
BRANCH   5   7
HETATM    7  N   UNL     1      25.397  47.931  48.961  1.00  0.00    -0.303 N 
HETATM    8  C   UNL     1      26.280  47.882  50.027  1.00  0.00     0.315 C 
HETATM    9  O   UNL     1      27.444  48.267  49.918  1.00  0.00    -0.262 OA
HETATM   10  H   UNL     1      25.857  47.965  48.060  1.00  0.00     0.171 HD
BRANCH   8  11
HETATM   11  C   UNL     1      25.862  47.187  51.344  1.00  0.00     0.310 C 
HETATM   12  N   UNL     1      26.497  45.987  51.567  1.00  0.00    -0.349 N 
HETATM   13  H   UNL     1      27.116  45.648  50.837  1.00  0.00     0.163 HD
HETATM   14  O   UNL     1      25.003  47.667  52.070  1.00  0.00    -0.262 OA
BRANCH  12  15
HETATM   15  C   UNL     1      26.094  45.101  52.628  1.00  0.00     0.163 C 
BRANCH  15  16
HETATM   16  C   UNL     1      27.255  44.685  53.489  1.00  0.00    -0.019 A 
HETATM   17  C   UNL     1      27.793  45.511  54.489  1.00  0.00     0.042 A 
HETATM   18 CL   UNL     1      27.113  47.056  54.856  1.00  0.00    -0.084 Cl
HETATM   19  C   UNL     1      28.907  45.099  55.228  1.00  0.00     0.024 A 
HETATM   20  C   UNL     1      29.488  43.853  54.989  1.00  0.00     0.002 A 
HETATM   21  C   UNL     1      28.943  43.010  54.026  1.00  0.00     0.001 A 
HETATM   22  C   UNL     1      27.833  43.419  53.285  1.00  0.00     0.010 A 
ENDBRANCH  15  16
ENDBRANCH  12  15
ENDBRANCH   8  11
ENDBRANCH   5   7
BRANCH   4  23
HETATM   23  C   UNL     1      23.878  45.157  48.854  1.00  0.00     0.732 A 
HETATM   24  N   UNL     1      25.099  44.853  49.157  1.00  0.00    -0.067 NA
HETATM   25  C   UNL     1      25.417  43.515  49.171  1.00  0.00     0.065 A 
HETATM   26  C   UNL     1      24.539  42.526  48.920  1.00  0.00     0.036 A 
HETATM   27  C   UNL     1      26.851  43.206  49.539  1.00  0.00     0.060 C 
HETATM   28  C   UNL     1      24.869  41.064  48.974  1.00  0.00     0.046 C 
HETATM   29  C   UNL     1      23.149  42.906  48.572  1.00  0.00     0.268 A 
HETATM   30  C   UNL     1      26.369  40.780  49.075  1.00  0.00     0.005 C 
HETATM   31  C   UNL     1      27.066  41.765  50.004  1.00  0.00     0.006 C 
HETATM   32  O   UNL     1      22.284  42.072  48.328  1.00  0.00    -0.267 OA
HETATM   33  N   UNL     1      22.906  44.243  48.553  1.00  0.00    -0.152 N 
HETATM   34  H   UNL     1      21.968  44.576  48.355  1.00  0.00     0.188 HD
ENDBRANCH   4  23
TORSDOF 5
ENDMDL
