MODEL 1
REMARK VINA RESULT:     -10.3      0.000      0.000
REMARK  7 active torsions:
REMARK  status: ('A' for Active; 'I' for Inactive)
REMARK    1  A    between atoms: O_2  and  C_3 
REMARK    2  A    between atoms: C_4  and  O_5 
REMARK    3  A    between atoms: C_8  and  N_9 
REMARK       I    between atoms: N_9  and  C_10 
REMARK    4  A    between atoms: C_10  and  C_11 
REMARK    5  A    between atoms: C_11  and  N_12 
REMARK    6  A    between atoms: N_20  and  C_21 
REMARK    7  A    between atoms: C_21  and  C_22 
ROOT
HETATM    1  N   UNL     1      25.358  47.140  49.825  1.00  0.00    -0.063 N 
HETATM    2  H   UNL     1      25.785  47.464  48.933  1.00  0.00     0.280 HD
HETATM    3  C   UNL     1      26.396  47.391  50.882  1.00  0.00     0.238 C 
HETATM    4  C   UNL     1      25.980  46.738  52.197  1.00  0.00     0.069 C 
HETATM    5  C   UNL     1      25.640  45.253  52.018  1.00  0.00     0.119 C 
HETATM    6  N   UNL     1      25.172  44.676  53.257  1.00  0.00    -0.324 N 
HETATM    7  C   UNL     1      26.146  43.924  53.881  1.00  0.00     0.326 C 
HETATM    8  O   UNL     1      26.031  43.486  55.011  1.00  0.00    -0.247 OA
HETATM    9  N   UNL     1      27.205  43.808  53.036  1.00  0.00    -0.264 N 
HETATM   10  C   UNL     1      26.961  44.476  51.874  1.00  0.00     0.256 C 
HETATM   11  O   UNL     1      27.692  44.564  50.897  1.00  0.00    -0.270 OA
HETATM   12  C   UNL     1      24.662  44.997  50.877  1.00  0.00     0.069 C 
HETATM   13  C   UNL     1      25.071  45.689  49.587  1.00  0.00     0.238 C 
HETATM   14  H   UNL     1      24.345  44.933  53.785  1.00  0.00     0.165 HD
ENDROOT
BRANCH   1  15
HETATM   15  C   UNL     1      24.132  48.073  49.940  1.00  0.00     0.337 C 
BRANCH  15  16
HETATM   16  C   UNL     1      24.189  49.079  48.791  1.00  0.00     0.248 C 
HETATM   17  N   UNL     1      23.155  49.885  48.438  1.00  0.00    -0.326 N 
HETATM   18  H   UNL     1      23.453  50.606  47.783  1.00  0.00     0.169 HD
HETATM   19  O   UNL     1      25.297  49.263  48.269  1.00  0.00    -0.271 OA
BRANCH  17  20
HETATM   20  C   UNL     1      21.830  49.981  48.887  1.00  0.00     0.037 A 
HETATM   21  C   UNL     1      21.008  48.897  49.175  1.00  0.00     0.069 A 
HETATM   22  C   UNL     1      19.726  49.114  49.695  1.00  0.00     0.103 A 
HETATM   23  C   UNL     1      19.209  50.406  49.862  1.00  0.00     0.101 A 
HETATM   24  C   UNL     1      20.018  51.488  49.522  1.00  0.00     0.042 A 
HETATM   25  C   UNL     1      21.312  51.276  49.032  1.00  0.00     0.032 A 
BRANCH  22  26
HETATM   26  O   UNL     1      18.951  48.010  49.949  1.00  0.00    -0.353 OA
HETATM   27  C   UNL     1      18.501  47.422  48.729  1.00  0.00     0.210 C 
ENDBRANCH  22  26
BRANCH  23  28
HETATM   28  O   UNL     1      17.943  50.501  50.370  1.00  0.00    -0.353 OA
HETATM   29  C   UNL     1      17.047  51.384  49.703  1.00  0.00     0.210 C 
ENDBRANCH  23  28
ENDBRANCH  17  20
ENDBRANCH  15  16
ENDBRANCH   1  15
BRANCH   9  30
HETATM   30  C   UNL     1      28.473  43.215  53.401  1.00  0.00     0.175 C 
BRANCH  30  31
HETATM   31  C   UNL     1      29.116  44.027  54.508  1.00  0.00    -0.040 A 
HETATM   32  C   UNL     1      30.179  43.488  55.251  1.00  0.00     0.010 A 
HETATM   33  C   UNL     1      30.721  44.194  56.328  1.00  0.00     0.024 A 
HETATM   34  C   UNL     1      30.205  45.442  56.667  1.00  0.00     0.034 A 
HETATM   35 CL   UNL     1      30.854  46.298  58.008  1.00  0.00    -0.084 Cl
HETATM   36  C   UNL     1      29.156  45.993  55.934  1.00  0.00     0.024 A 
HETATM   37  C   UNL     1      28.609  45.286  54.859  1.00  0.00     0.010 A 
ENDBRANCH  30  31
ENDBRANCH   9  30
TORSDOF 7
ENDMDL
MODEL 2
REMARK VINA RESULT:      -9.9      2.300      3.548
REMARK  7 active torsions:
REMARK  status: ('A' for Active; 'I' for Inactive)
REMARK    1  A    between atoms: O_2  and  C_3 
REMARK    2  A    between atoms: C_4  and  O_5 
REMARK    3  A    between atoms: C_8  and  N_9 
REMARK       I    between atoms: N_9  and  C_10 
REMARK    4  A    between atoms: C_10  and  C_11 
REMARK    5  A    between atoms: C_11  and  N_12 
REMARK    6  A    between atoms: N_20  and  C_21 
REMARK    7  A    between atoms: C_21  and  C_22 
ROOT
HETATM    1  N   UNL     1      24.414  44.410  50.135  1.00  0.00    -0.063 N 
HETATM    2  H   UNL     1      24.299  45.296  49.599  1.00  0.00     0.280 HD
HETATM    3  C   UNL     1      24.992  44.816  51.461  1.00  0.00     0.238 C 
HETATM    4  C   UNL     1      25.428  43.583  52.247  1.00  0.00     0.069 C 
HETATM    5  C   UNL     1      26.359  42.680  51.428  1.00  0.00     0.119 C 
HETATM    6  N   UNL     1      26.693  41.481  52.160  1.00  0.00    -0.324 N 
HETATM    7  C   UNL     1      27.958  41.541  52.708  1.00  0.00     0.326 C 
HETATM    8  O   UNL     1      28.383  40.721  53.500  1.00  0.00    -0.247 OA
HETATM    9  N   UNL     1      28.578  42.654  52.231  1.00  0.00    -0.264 N 
HETATM   10  C   UNL     1      27.750  43.337  51.393  1.00  0.00     0.256 C 
HETATM   11  O   UNL     1      27.993  44.368  50.781  1.00  0.00    -0.270 OA
HETATM   12  C   UNL     1      25.809  42.355  50.043  1.00  0.00     0.069 C 
HETATM   13  C   UNL     1      25.342  43.591  49.293  1.00  0.00     0.238 C 
HETATM   14  H   UNL     1      26.061  40.754  52.480  1.00  0.00     0.165 HD
ENDROOT
BRANCH   1  15
HETATM   15  C   UNL     1      22.954  43.914  50.231  1.00  0.00     0.337 C 
BRANCH  15  16
HETATM   16  C   UNL     1      22.360  43.904  48.824  1.00  0.00     0.248 C 
HETATM   17  N   UNL     1      22.023  45.024  48.135  1.00  0.00    -0.326 N 
HETATM   18  H   UNL     1      21.827  44.815  47.158  1.00  0.00     0.169 HD
HETATM   19  O   UNL     1      22.339  42.812  48.238  1.00  0.00    -0.271 OA
BRANCH  17  20
HETATM   20  C   UNL     1      22.016  46.384  48.479  1.00  0.00     0.037 A 
HETATM   21  C   UNL     1      23.135  47.108  48.877  1.00  0.00     0.069 A 
HETATM   22  C   UNL     1      23.025  48.483  49.118  1.00  0.00     0.103 A 
HETATM   23  C   UNL     1      21.791  49.145  49.048  1.00  0.00     0.101 A 
HETATM   24  C   UNL     1      20.663  48.404  48.702  1.00  0.00     0.042 A 
HETATM   25  C   UNL     1      20.776  47.035  48.428  1.00  0.00     0.032 A 
BRANCH  22  26
HETATM   26  O   UNL     1      24.156  49.148  49.520  1.00  0.00    -0.353 OA
HETATM   27  C   UNL     1      25.284  48.274  49.495  1.00  0.00     0.210 C 
ENDBRANCH  22  26
BRANCH  23  28
HETATM   28  O   UNL     1      21.798  50.487  49.312  1.00  0.00    -0.353 OA
HETATM   29  C   UNL     1      21.093  50.918  50.472  1.00  0.00     0.210 C 
ENDBRANCH  23  28
ENDBRANCH  17  20
ENDBRANCH  15  16
ENDBRANCH   1  15
BRANCH   9  30
HETATM   30  C   UNL     1      29.862  43.129  52.697  1.00  0.00     0.175 C 
BRANCH  30  31
HETATM   31  C   UNL     1      29.698  43.806  54.043  1.00  0.00    -0.040 A 
HETATM   32  C   UNL     1      28.657  44.725  54.249  1.00  0.00     0.010 A 
HETATM   33  C   UNL     1      28.549  45.417  55.457  1.00  0.00     0.024 A 
HETATM   34  C   UNL     1      29.481  45.195  56.467  1.00  0.00     0.034 A 
HETATM   35 CL   UNL     1      29.365  46.066  57.944  1.00  0.00    -0.084 Cl
HETATM   36  C   UNL     1      30.517  44.281  56.281  1.00  0.00     0.024 A 
HETATM   37  C   UNL     1      30.628  43.590  55.071  1.00  0.00     0.010 A 
ENDBRANCH  30  31
ENDBRANCH   9  30
TORSDOF 7
ENDMDL
MODEL 3
REMARK VINA RESULT:      -9.7      3.561     10.067
REMARK  7 active torsions:
REMARK  status: ('A' for Active; 'I' for Inactive)
REMARK    1  A    between atoms: O_2  and  C_3 
REMARK    2  A    between atoms: C_4  and  O_5 
REMARK    3  A    between atoms: C_8  and  N_9 
REMARK       I    between atoms: N_9  and  C_10 
REMARK    4  A    between atoms: C_10  and  C_11 
REMARK    5  A    between atoms: C_11  and  N_12 
REMARK    6  A    between atoms: N_20  and  C_21 
REMARK    7  A    between atoms: C_21  and  C_22 
ROOT
HETATM    1  N   UNL     1      26.747  44.090  51.324  1.00  0.00    -0.063 N 
HETATM    2  H   UNL     1      27.716  44.472  51.303  1.00  0.00     0.280 HD
HETATM    3  C   UNL     1      26.418  43.749  49.898  1.00  0.00     0.238 C 
HETATM    4  C   UNL     1      24.939  43.402  49.766  1.00  0.00     0.069 C 
HETATM    5  C   UNL     1      24.037  44.495  50.354  1.00  0.00     0.119 C 
HETATM    6  N   UNL     1      22.647  44.109  50.291  1.00  0.00    -0.324 N 
HETATM    7  C   UNL     1      21.980  44.732  49.257  1.00  0.00     0.326 C 
HETATM    8  O   UNL     1      20.852  44.433  48.913  1.00  0.00    -0.247 OA
HETATM    9  N   UNL     1      22.806  45.669  48.719  1.00  0.00    -0.264 N 
HETATM   10  C   UNL     1      24.006  45.671  49.362  1.00  0.00     0.256 C 
HETATM   11  O   UNL     1      24.968  46.394  49.144  1.00  0.00    -0.270 OA
HETATM   12  C   UNL     1      24.441  44.906  51.766  1.00  0.00     0.069 C 
HETATM   13  C   UNL     1      25.925  45.208  51.887  1.00  0.00     0.238 C 
HETATM   14  H   UNL     1      22.202  43.318  50.748  1.00  0.00     0.165 HD
ENDROOT
BRANCH   1  15
HETATM   15  C   UNL     1      26.924  42.846  52.224  1.00  0.00     0.337 C 
BRANCH  15  16
HETATM   16  C   UNL     1      28.342  42.313  52.027  1.00  0.00     0.248 C 
HETATM   17  N   UNL     1      29.386  42.618  52.839  1.00  0.00    -0.326 N 
HETATM   18  H   UNL     1      30.189  42.019  52.654  1.00  0.00     0.169 HD
HETATM   19  O   UNL     1      28.490  41.433  51.167  1.00  0.00    -0.271 OA
BRANCH  17  20
HETATM   20  C   UNL     1      29.517  43.490  53.930  1.00  0.00     0.037 A 
HETATM   21  C   UNL     1      28.623  44.507  54.246  1.00  0.00     0.069 A 
HETATM   22  C   UNL     1      28.812  45.265  55.408  1.00  0.00     0.103 A 
HETATM   23  C   UNL     1      29.932  45.082  56.231  1.00  0.00     0.101 A 
HETATM   24  C   UNL     1      30.853  44.097  55.881  1.00  0.00     0.042 A 
HETATM   25  C   UNL     1      30.650  43.315  54.737  1.00  0.00     0.032 A 
BRANCH  22  26
HETATM   26  O   UNL     1      27.908  46.264  55.666  1.00  0.00    -0.353 OA
HETATM   27  C   UNL     1      28.087  47.349  54.756  1.00  0.00     0.210 C 
ENDBRANCH  22  26
BRANCH  23  28
HETATM   28  O   UNL     1      30.021  45.883  57.335  1.00  0.00    -0.353 OA
HETATM   29  C   UNL     1      30.697  45.345  58.467  1.00  0.00     0.210 C 
ENDBRANCH  23  28
ENDBRANCH  17  20
ENDBRANCH  15  16
ENDBRANCH   1  15
BRANCH   9  30
HETATM   30  C   UNL     1      22.507  46.420  47.519  1.00  0.00     0.175 C 
BRANCH  30  31
HETATM   31  C   UNL     1      21.913  47.763  47.891  1.00  0.00    -0.040 A 
HETATM   32  C   UNL     1      20.519  47.925  47.956  1.00  0.00     0.010 A 
HETATM   33  C   UNL     1      19.961  49.179  48.214  1.00  0.00     0.024 A 
HETATM   34  C   UNL     1      20.793  50.278  48.411  1.00  0.00     0.034 A 
HETATM   35 CL   UNL     1      20.107  51.827  48.702  1.00  0.00    -0.084 Cl
HETATM   36  C   UNL     1      22.178  50.133  48.357  1.00  0.00     0.024 A 
HETATM   37  C   UNL     1      22.738  48.879  48.095  1.00  0.00     0.010 A 
ENDBRANCH  30  31
ENDBRANCH   9  30
TORSDOF 7
ENDMDL
MODEL 4
REMARK VINA RESULT:      -9.3      2.152      2.921
REMARK  7 active torsions:
REMARK  status: ('A' for Active; 'I' for Inactive)
REMARK    1  A    between atoms: O_2  and  C_3 
REMARK    2  A    between atoms: C_4  and  O_5 
REMARK    3  A    between atoms: C_8  and  N_9 
REMARK       I    between atoms: N_9  and  C_10 
REMARK    4  A    between atoms: C_10  and  C_11 
REMARK    5  A    between atoms: C_11  and  N_12 
REMARK    6  A    between atoms: N_20  and  C_21 
REMARK    7  A    between atoms: C_21  and  C_22 
ROOT
HETATM    1  N   UNL     1      24.611  44.497  48.991  1.00  0.00    -0.063 N 
HETATM    2  H   UNL     1      24.850  44.988  48.104  1.00  0.00     0.280 HD
HETATM    3  C   UNL     1      24.380  45.584  50.002  1.00  0.00     0.238 C 
HETATM    4  C   UNL     1      24.255  44.987  51.400  1.00  0.00     0.069 C 
HETATM    5  C   UNL     1      25.441  44.077  51.744  1.00  0.00     0.119 C 
HETATM    6  N   UNL     1      25.263  43.460  53.038  1.00  0.00    -0.324 N 
HETATM    7  C   UNL     1      26.017  44.073  54.016  1.00  0.00     0.326 C 
HETATM    8  O   UNL     1      25.899  43.832  55.203  1.00  0.00    -0.247 OA
HETATM    9  N   UNL     1      26.847  44.969  53.417  1.00  0.00    -0.264 N 
HETATM   10  C   UNL     1      26.650  44.973  52.070  1.00  0.00     0.256 C 
HETATM   11  O   UNL     1      27.235  45.645  51.232  1.00  0.00    -0.270 OA
HETATM   12  C   UNL     1      25.731  43.040  50.665  1.00  0.00     0.069 C 
HETATM   13  C   UNL     1      25.811  43.648  49.274  1.00  0.00     0.238 C 
HETATM   14  H   UNL     1      24.526  42.822  53.323  1.00  0.00     0.165 HD
ENDROOT
BRANCH   1  15
HETATM   15  C   UNL     1      23.319  43.749  48.593  1.00  0.00     0.337 C 
BRANCH  15  16
HETATM   16  C   UNL     1      22.990  44.103  47.144  1.00  0.00     0.248 C 
HETATM   17  N   UNL     1      22.262  45.188  46.775  1.00  0.00    -0.326 N 
HETATM   18  H   UNL     1      22.317  45.350  45.771  1.00  0.00     0.169 HD
HETATM   19  O   UNL     1      23.560  43.439  46.266  1.00  0.00    -0.271 OA
BRANCH  17  20
HETATM   20  C   UNL     1      21.574  46.165  47.511  1.00  0.00     0.037 A 
HETATM   21  C   UNL     1      20.223  46.109  47.836  1.00  0.00     0.069 A 
HETATM   22  C   UNL     1      19.660  47.103  48.646  1.00  0.00     0.103 A 
HETATM   23  C   UNL     1      20.405  48.208  49.078  1.00  0.00     0.101 A 
HETATM   24  C   UNL     1      21.746  48.286  48.705  1.00  0.00     0.042 A 
HETATM   25  C   UNL     1      22.320  47.278  47.923  1.00  0.00     0.032 A 
BRANCH  22  26
HETATM   26  O   UNL     1      18.320  47.007  48.926  1.00  0.00    -0.353 OA
HETATM   27  C   UNL     1      17.679  46.121  48.009  1.00  0.00     0.210 C 
ENDBRANCH  22  26
BRANCH  23  28
HETATM   28  O   UNL     1      19.753  49.123  49.858  1.00  0.00    -0.353 OA
HETATM   29  C   UNL     1      19.487  50.393  49.273  1.00  0.00     0.210 C 
ENDBRANCH  23  28
ENDBRANCH  17  20
ENDBRANCH  15  16
ENDBRANCH   1  15
BRANCH   9  30
HETATM   30  C   UNL     1      27.682  45.907  54.135  1.00  0.00     0.175 C 
BRANCH  30  31
HETATM   31  C   UNL     1      28.758  45.157  54.894  1.00  0.00    -0.040 A 
HETATM   32  C   UNL     1      29.263  45.673  56.098  1.00  0.00     0.010 A 
HETATM   33  C   UNL     1      30.314  45.033  56.760  1.00  0.00     0.024 A 
HETATM   34  C   UNL     1      30.864  43.873  56.223  1.00  0.00     0.034 A 
HETATM   35 CL   UNL     1      32.175  43.100  57.022  1.00  0.00    -0.084 Cl
HETATM   36  C   UNL     1      30.369  43.343  55.032  1.00  0.00     0.024 A 
HETATM   37  C   UNL     1      29.320  43.985  54.367  1.00  0.00     0.010 A 
ENDBRANCH  30  31
ENDBRANCH   9  30
TORSDOF 7
ENDMDL
MODEL 5
REMARK VINA RESULT:      -9.2      3.853      9.903
REMARK  7 active torsions:
REMARK  status: ('A' for Active; 'I' for Inactive)
REMARK    1  A    between atoms: O_2  and  C_3 
REMARK    2  A    between atoms: C_4  and  O_5 
REMARK    3  A    between atoms: C_8  and  N_9 
REMARK       I    between atoms: N_9  and  C_10 
REMARK    4  A    between atoms: C_10  and  C_11 
REMARK    5  A    between atoms: C_11  and  N_12 
REMARK    6  A    between atoms: N_20  and  C_21 
REMARK    7  A    between atoms: C_21  and  C_22 
ROOT
HETATM    1  N   UNL     1      25.836  42.353  50.484  1.00  0.00    -0.063 N 
HETATM    2  H   UNL     1      25.891  42.094  51.491  1.00  0.00     0.280 HD
HETATM    3  C   UNL     1      25.605  43.838  50.463  1.00  0.00     0.238 C 
HETATM    4  C   UNL     1      25.268  44.300  49.049  1.00  0.00     0.069 C 
HETATM    5  C   UNL     1      24.112  43.496  48.442  1.00  0.00     0.119 C 
HETATM    6  N   UNL     1      23.864  43.895  47.076  1.00  0.00    -0.324 N 
HETATM    7  C   UNL     1      22.764  44.721  46.966  1.00  0.00     0.326 C 
HETATM    8  O   UNL     1      22.470  45.310  45.943  1.00  0.00    -0.247 OA
HETATM    9  N   UNL     1      22.137  44.759  48.172  1.00  0.00    -0.264 N 
HETATM   10  C   UNL     1      22.801  43.991  49.079  1.00  0.00     0.256 C 
HETATM   11  O   UNL     1      22.503  43.791  50.249  1.00  0.00    -0.270 OA
HETATM   12  C   UNL     1      24.307  41.988  48.557  1.00  0.00     0.069 C 
HETATM   13  C   UNL     1      24.683  41.552  49.964  1.00  0.00     0.238 C 
HETATM   14  H   UNL     1      24.497  43.823  46.285  1.00  0.00     0.165 HD
ENDROOT
BRANCH   1  15
HETATM   15  C   UNL     1      27.238  41.946  49.981  1.00  0.00     0.337 C 
BRANCH  15  16
HETATM   16  C   UNL     1      27.697  40.728  50.780  1.00  0.00     0.248 C 
HETATM   17  N   UNL     1      28.179  40.790  52.047  1.00  0.00    -0.326 N 
HETATM   18  H   UNL     1      28.247  39.864  52.465  1.00  0.00     0.169 HD
HETATM   19  O   UNL     1      27.461  39.617  50.283  1.00  0.00    -0.271 OA
BRANCH  17  20
HETATM   20  C   UNL     1      28.471  41.865  52.900  1.00  0.00     0.037 A 
HETATM   21  C   UNL     1      27.521  42.636  53.561  1.00  0.00     0.069 A 
HETATM   22  C   UNL     1      27.932  43.634  54.453  1.00  0.00     0.103 A 
HETATM   23  C   UNL     1      29.287  43.937  54.643  1.00  0.00     0.101 A 
HETATM   24  C   UNL     1      30.234  43.197  53.938  1.00  0.00     0.042 A 
HETATM   25  C   UNL     1      29.827  42.177  53.070  1.00  0.00     0.032 A 
BRANCH  22  26
HETATM   26  O   UNL     1      26.954  44.374  55.069  1.00  0.00    -0.353 OA
HETATM   27  C   UNL     1      26.287  45.209  54.122  1.00  0.00     0.210 C 
ENDBRANCH  22  26
BRANCH  23  28
HETATM   28  O   UNL     1      29.574  44.937  55.531  1.00  0.00    -0.353 OA
HETATM   29  C   UNL     1      30.678  44.723  56.405  1.00  0.00     0.210 C 
ENDBRANCH  23  28
ENDBRANCH  17  20
ENDBRANCH  15  16
ENDBRANCH   1  15
BRANCH   9  30
HETATM   30  C   UNL     1      21.030  45.638  48.483  1.00  0.00     0.175 C 
BRANCH  30  31
HETATM   31  C   UNL     1      21.512  47.075  48.513  1.00  0.00    -0.040 A 
HETATM   32  C   UNL     1      20.774  48.081  47.869  1.00  0.00     0.010 A 
HETATM   33  C   UNL     1      21.253  49.392  47.819  1.00  0.00     0.024 A 
HETATM   34  C   UNL     1      22.473  49.705  48.412  1.00  0.00     0.034 A 
HETATM   35 CL   UNL     1      23.077  51.312  48.328  1.00  0.00    -0.084 Cl
HETATM   36  C   UNL     1      23.214  48.720  49.062  1.00  0.00     0.024 A 
HETATM   37  C   UNL     1      22.737  47.406  49.110  1.00  0.00     0.010 A 
ENDBRANCH  30  31
ENDBRANCH   9  30
TORSDOF 7
ENDMDL
MODEL 6
REMARK VINA RESULT:      -9.0      4.846      8.181
REMARK  7 active torsions:
REMARK  status: ('A' for Active; 'I' for Inactive)
REMARK    1  A    between atoms: O_2  and  C_3 
REMARK    2  A    between atoms: C_4  and  O_5 
REMARK    3  A    between atoms: C_8  and  N_9 
REMARK       I    between atoms: N_9  and  C_10 
REMARK    4  A    between atoms: C_10  and  C_11 
REMARK    5  A    between atoms: C_11  and  N_12 
REMARK    6  A    between atoms: N_20  and  C_21 
REMARK    7  A    between atoms: C_21  and  C_22 
ROOT
HETATM    1  N   UNL     1      25.285  43.213  48.554  1.00  0.00    -0.063 N 
HETATM    2  H   UNL     1      25.776  43.368  47.649  1.00  0.00     0.280 HD
HETATM    3  C   UNL     1      25.073  44.582  49.136  1.00  0.00     0.238 C 
HETATM    4  C   UNL     1      24.576  44.474  50.574  1.00  0.00     0.069 C 
HETATM    5  C   UNL     1      25.485  43.583  51.430  1.00  0.00     0.119 C 
HETATM    6  N   UNL     1      24.952  43.429  52.764  1.00  0.00    -0.324 N 
HETATM    7  C   UNL     1      25.608  44.224  53.682  1.00  0.00     0.326 C 
HETATM    8  O   UNL     1      25.223  44.383  54.825  1.00  0.00    -0.247 OA
HETATM    9  N   UNL     1      26.688  44.780  53.070  1.00  0.00    -0.264 N 
HETATM   10  C   UNL     1      26.754  44.384  51.769  1.00  0.00     0.256 C 
HETATM   11  O   UNL     1      27.603  44.683  50.940  1.00  0.00    -0.270 OA
HETATM   12  C   UNL     1      25.777  42.232  50.786  1.00  0.00     0.069 C 
HETATM   13  C   UNL     1      26.231  42.358  49.341  1.00  0.00     0.238 C 
HETATM   14  H   UNL     1      24.069  43.005  53.033  1.00  0.00     0.165 HD
ENDROOT
BRANCH   1  15
HETATM   15  C   UNL     1      23.976  42.538  48.087  1.00  0.00     0.337 C 
BRANCH  15  16
HETATM   16  C   UNL     1      23.997  42.462  46.561  1.00  0.00     0.248 C 
HETATM   17  N   UNL     1      24.718  41.551  45.858  1.00  0.00    -0.326 N 
HETATM   18  H   UNL     1      24.450  41.544  44.875  1.00  0.00     0.169 HD
HETATM   19  O   UNL     1      23.184  43.177  45.958  1.00  0.00    -0.271 OA
BRANCH  17  20
HETATM   20  C   UNL     1      25.641  40.568  46.244  1.00  0.00     0.037 A 
HETATM   21  C   UNL     1      25.321  39.406  46.937  1.00  0.00     0.069 A 
HETATM   22  C   UNL     1      26.314  38.454  47.198  1.00  0.00     0.103 A 
HETATM   23  C   UNL     1      27.654  38.676  46.849  1.00  0.00     0.101 A 
HETATM   24  C   UNL     1      27.979  39.866  46.202  1.00  0.00     0.042 A 
HETATM   25  C   UNL     1      26.982  40.805  45.911  1.00  0.00     0.032 A 
BRANCH  22  26
HETATM   26  O   UNL     1      25.947  37.331  47.896  1.00  0.00    -0.353 OA
HETATM   27  C   UNL     1      25.217  36.437  47.056  1.00  0.00     0.210 C 
ENDBRANCH  22  26
BRANCH  23  28
HETATM   28  O   UNL     1      28.542  37.683  47.160  1.00  0.00    -0.353 OA
HETATM   29  C   UNL     1      28.988  36.860  46.087  1.00  0.00     0.210 C 
ENDBRANCH  23  28
ENDBRANCH  17  20
ENDBRANCH  15  16
ENDBRANCH   1  15
BRANCH   9  30
HETATM   30  C   UNL     1      27.531  45.789  53.674  1.00  0.00     0.175 C 
BRANCH  30  31
HETATM   31  C   UNL     1      28.583  45.125  54.540  1.00  0.00    -0.040 A 
HETATM   32  C   UNL     1      29.064  45.774  55.688  1.00  0.00     0.010 A 
HETATM   33  C   UNL     1      30.094  45.209  56.444  1.00  0.00     0.024 A 
HETATM   34  C   UNL     1      30.648  43.992  56.056  1.00  0.00     0.034 A 
HETATM   35 CL   UNL     1      31.934  43.309  56.970  1.00  0.00    -0.084 Cl
HETATM   36  C   UNL     1      30.177  43.332  54.923  1.00  0.00     0.024 A 
HETATM   37  C   UNL     1      29.148  43.898  54.163  1.00  0.00     0.010 A 
ENDBRANCH  30  31
ENDBRANCH   9  30
TORSDOF 7
ENDMDL
MODEL 7
REMARK VINA RESULT:      -8.9      4.704     11.659
REMARK  7 active torsions:
REMARK  status: ('A' for Active; 'I' for Inactive)
REMARK    1  A    between atoms: O_2  and  C_3 
REMARK    2  A    between atoms: C_4  and  O_5 
REMARK    3  A    between atoms: C_8  and  N_9 
REMARK       I    between atoms: N_9  and  C_10 
REMARK    4  A    between atoms: C_10  and  C_11 
REMARK    5  A    between atoms: C_11  and  N_12 
REMARK    6  A    between atoms: N_20  and  C_21 
REMARK    7  A    between atoms: C_21  and  C_22 
ROOT
HETATM    1  N   UNL     1      21.705  50.140  48.890  1.00  0.00    -0.063 N 
HETATM    2  H   UNL     1      22.491  50.816  48.798  1.00  0.00     0.280 HD
HETATM    3  C   UNL     1      21.016  50.140  47.555  1.00  0.00     0.238 C 
HETATM    4  C   UNL     1      19.704  49.366  47.638  1.00  0.00     0.069 C 
HETATM    5  C   UNL     1      18.814  49.866  48.783  1.00  0.00     0.119 C 
HETATM    6  N   UNL     1      17.615  49.068  48.894  1.00  0.00    -0.324 N 
HETATM    7  C   UNL     1      16.516  49.701  48.351  1.00  0.00     0.326 C 
HETATM    8  O   UNL     1      15.443  49.152  48.182  1.00  0.00    -0.247 OA
HETATM    9  N   UNL     1      16.869  50.976  48.036  1.00  0.00    -0.264 N 
HETATM   10  C   UNL     1      18.177  51.197  48.344  1.00  0.00     0.256 C 
HETATM   11  O   UNL     1      18.812  52.234  48.206  1.00  0.00    -0.270 OA
HETATM   12  C   UNL     1      19.549  49.959  50.115  1.00  0.00     0.069 C 
HETATM   13  C   UNL     1      20.873  50.696  50.004  1.00  0.00     0.238 C 
HETATM   14  H   UNL     1      17.548  48.077  49.105  1.00  0.00     0.165 HD
ENDROOT
BRANCH   1  15
HETATM   15  C   UNL     1      22.460  48.825  49.188  1.00  0.00     0.337 C 
BRANCH  15  16
HETATM   16  C   UNL     1      23.917  49.005  48.764  1.00  0.00     0.248 C 
HETATM   17  N   UNL     1      24.938  48.231  49.213  1.00  0.00    -0.326 N 
HETATM   18  H   UNL     1      25.787  48.386  48.672  1.00  0.00     0.169 HD
HETATM   19  O   UNL     1      24.132  49.804  47.842  1.00  0.00    -0.271 OA
BRANCH  17  20
HETATM   20  C   UNL     1      25.003  47.204  50.166  1.00  0.00     0.037 A 
HETATM   21  C   UNL     1      24.244  46.038  50.132  1.00  0.00     0.069 A 
HETATM   22  C   UNL     1      24.452  45.044  51.095  1.00  0.00     0.103 A 
HETATM   23  C   UNL     1      25.355  45.221  52.153  1.00  0.00     0.101 A 
HETATM   24  C   UNL     1      26.074  46.413  52.212  1.00  0.00     0.042 A 
HETATM   25  C   UNL     1      25.892  47.397  51.233  1.00  0.00     0.032 A 
BRANCH  22  26
HETATM   26  O   UNL     1      23.668  43.919  51.022  1.00  0.00    -0.353 OA
HETATM   27  C   UNL     1      22.835  43.965  49.865  1.00  0.00     0.210 C 
ENDBRANCH  22  26
BRANCH  23  28
HETATM   28  O   UNL     1      25.471  44.189  53.041  1.00  0.00    -0.353 OA
HETATM   29  C   UNL     1      25.111  44.458  54.392  1.00  0.00     0.210 C 
ENDBRANCH  23  28
ENDBRANCH  17  20
ENDBRANCH  15  16
ENDBRANCH   1  15
BRANCH   9  30
HETATM   30  C   UNL     1      16.021  51.897  47.310  1.00  0.00     0.175 C 
BRANCH  30  31
HETATM   31  C   UNL     1      15.254  52.764  48.287  1.00  0.00    -0.040 A 
HETATM   32  C   UNL     1      15.215  52.427  49.650  1.00  0.00     0.010 A 
HETATM   33  C   UNL     1      14.441  53.171  50.544  1.00  0.00     0.024 A 
HETATM   34  C   UNL     1      13.701  54.255  50.081  1.00  0.00     0.034 A 
HETATM   35 CL   UNL     1      12.727  55.154  51.175  1.00  0.00    -0.084 Cl
HETATM   36  C   UNL     1      13.734  54.607  48.732  1.00  0.00     0.024 A 
HETATM   37  C   UNL     1      14.506  53.861  47.836  1.00  0.00     0.010 A 
ENDBRANCH  30  31
ENDBRANCH   9  30
TORSDOF 7
ENDMDL
MODEL 8
REMARK VINA RESULT:      -8.9      4.032      5.429
REMARK  7 active torsions:
REMARK  status: ('A' for Active; 'I' for Inactive)
REMARK    1  A    between atoms: O_2  and  C_3 
REMARK    2  A    between atoms: C_4  and  O_5 
REMARK    3  A    between atoms: C_8  and  N_9 
REMARK       I    between atoms: N_9  and  C_10 
REMARK    4  A    between atoms: C_10  and  C_11 
REMARK    5  A    between atoms: C_11  and  N_12 
REMARK    6  A    between atoms: N_20  and  C_21 
REMARK    7  A    between atoms: C_21  and  C_22 
ROOT
HETATM    1  N   UNL     1      25.279  46.265  50.397  1.00  0.00    -0.063 N 
HETATM    2  H   UNL     1      24.481  46.622  49.831  1.00  0.00     0.280 HD
HETATM    3  C   UNL     1      26.081  45.404  49.463  1.00  0.00     0.238 C 
HETATM    4  C   UNL     1      27.145  44.632  50.237  1.00  0.00     0.069 C 
HETATM    5  C   UNL     1      26.545  43.855  51.416  1.00  0.00     0.119 C 
HETATM    6  N   UNL     1      27.578  43.197  52.182  1.00  0.00    -0.324 N 
HETATM    7  C   UNL     1      27.655  41.848  51.904  1.00  0.00     0.326 C 
HETATM    8  O   UNL     1      28.554  41.133  52.303  1.00  0.00    -0.247 OA
HETATM    9  N   UNL     1      26.598  41.515  51.115  1.00  0.00    -0.264 N 
HETATM   10  C   UNL     1      25.834  42.611  50.854  1.00  0.00     0.256 C 
HETATM   11  O   UNL     1      24.806  42.664  50.193  1.00  0.00    -0.270 OA
HETATM   12  C   UNL     1      25.651  44.713  52.304  1.00  0.00     0.069 C 
HETATM   13  C   UNL     1      24.625  45.506  51.511  1.00  0.00     0.238 C 
HETATM   14  H   UNL     1      28.342  43.631  52.692  1.00  0.00     0.165 HD
ENDROOT
BRANCH   1  15
HETATM   15  C   UNL     1      25.996  47.576  50.787  1.00  0.00     0.337 C 
BRANCH  15  16
HETATM   16  C   UNL     1      26.406  48.296  49.503  1.00  0.00     0.248 C 
HETATM   17  N   UNL     1      25.548  49.002  48.723  1.00  0.00    -0.326 N 
HETATM   18  H   UNL     1      26.047  49.556  48.029  1.00  0.00     0.169 HD
HETATM   19  O   UNL     1      27.620  48.357  49.265  1.00  0.00    -0.271 OA
BRANCH  17  20
HETATM   20  C   UNL     1      24.160  49.198  48.775  1.00  0.00     0.037 A 
HETATM   21  C   UNL     1      23.210  48.190  48.649  1.00  0.00     0.069 A 
HETATM   22  C   UNL     1      21.851  48.492  48.798  1.00  0.00     0.103 A 
HETATM   23  C   UNL     1      21.407  49.807  48.994  1.00  0.00     0.101 A 
HETATM   24  C   UNL     1      22.360  50.820  49.066  1.00  0.00     0.042 A 
HETATM   25  C   UNL     1      23.722  50.518  48.950  1.00  0.00     0.032 A 
BRANCH  22  26
HETATM   26  O   UNL     1      20.955  47.462  48.652  1.00  0.00    -0.353 OA
HETATM   27  C   UNL     1      20.826  47.103  47.277  1.00  0.00     0.210 C 
ENDBRANCH  22  26
BRANCH  23  28
HETATM   28  O   UNL     1      20.057  49.987  49.118  1.00  0.00    -0.353 OA
HETATM   29  C   UNL     1      19.557  50.219  50.431  1.00  0.00     0.210 C 
ENDBRANCH  23  28
ENDBRANCH  17  20
ENDBRANCH  15  16
ENDBRANCH   1  15
BRANCH   9  30
HETATM   30  C   UNL     1      26.425  40.218  50.498  1.00  0.00     0.175 C 
BRANCH  30  31
HETATM   31  C   UNL     1      26.733  40.311  49.017  1.00  0.00    -0.040 A 
HETATM   32  C   UNL     1      25.773  39.920  48.070  1.00  0.00     0.010 A 
HETATM   33  C   UNL     1      26.078  39.922  46.707  1.00  0.00     0.024 A 
HETATM   34  C   UNL     1      27.344  40.315  46.282  1.00  0.00     0.034 A 
HETATM   35 CL   UNL     1      27.729  40.292  44.607  1.00  0.00    -0.084 Cl
HETATM   36  C   UNL     1      28.306  40.713  47.209  1.00  0.00     0.024 A 
HETATM   37  C   UNL     1      28.003  40.708  48.574  1.00  0.00     0.010 A 
ENDBRANCH  30  31
ENDBRANCH   9  30
TORSDOF 7
ENDMDL
MODEL 9
REMARK VINA RESULT:      -8.9      5.077      9.492
REMARK  7 active torsions:
REMARK  status: ('A' for Active; 'I' for Inactive)
REMARK    1  A    between atoms: O_2  and  C_3 
REMARK    2  A    between atoms: C_4  and  O_5 
REMARK    3  A    between atoms: C_8  and  N_9 
REMARK       I    between atoms: N_9  and  C_10 
REMARK    4  A    between atoms: C_10  and  C_11 
REMARK    5  A    between atoms: C_11  and  N_12 
REMARK    6  A    between atoms: N_20  and  C_21 
REMARK    7  A    between atoms: C_21  and  C_22 
ROOT
HETATM    1  N   UNL     1      24.223  40.818  48.494  1.00  0.00    -0.063 N 
HETATM    2  H   UNL     1      23.723  39.950  48.776  1.00  0.00     0.280 HD
HETATM    3  C   UNL     1      25.339  40.981  49.487  1.00  0.00     0.238 C 
HETATM    4  C   UNL     1      25.999  42.346  49.322  1.00  0.00     0.069 C 
HETATM    5  C   UNL     1      24.975  43.487  49.365  1.00  0.00     0.119 C 
HETATM    6  N   UNL     1      25.610  44.762  49.127  1.00  0.00    -0.324 N 
HETATM    7  C   UNL     1      25.798  45.477  50.292  1.00  0.00     0.326 C 
HETATM    8  O   UNL     1      26.460  46.496  50.352  1.00  0.00    -0.247 OA
HETATM    9  N   UNL     1      25.154  44.829  51.299  1.00  0.00    -0.264 N 
HETATM   10  C   UNL     1      24.557  43.697  50.831  1.00  0.00     0.256 C 
HETATM   11  O   UNL     1      23.886  42.892  51.462  1.00  0.00    -0.270 OA
HETATM   12  C   UNL     1      23.794  43.266  48.426  1.00  0.00     0.069 C 
HETATM   13  C   UNL     1      23.176  41.886  48.576  1.00  0.00     0.238 C 
HETATM   14  H   UNL     1      26.100  45.063  48.289  1.00  0.00     0.165 HD
ENDROOT
BRANCH   1  15
HETATM   15  C   UNL     1      24.716  40.447  47.077  1.00  0.00     0.337 C 
BRANCH  15  16
HETATM   16  C   UNL     1      24.377  38.979  46.824  1.00  0.00     0.248 C 
HETATM   17  N   UNL     1      25.089  37.939  47.328  1.00  0.00    -0.326 N 
HETATM   18  H   UNL     1      24.596  37.056  47.205  1.00  0.00     0.169 HD
HETATM   19  O   UNL     1      23.300  38.747  46.256  1.00  0.00    -0.271 OA
BRANCH  17  20
HETATM   20  C   UNL     1      26.278  37.873  48.071  1.00  0.00     0.037 A 
HETATM   21  C   UNL     1      27.334  38.772  47.961  1.00  0.00     0.069 A 
HETATM   22  C   UNL     1      28.439  38.655  48.813  1.00  0.00     0.103 A 
HETATM   23  C   UNL     1      28.552  37.600  49.729  1.00  0.00     0.101 A 
HETATM   24  C   UNL     1      27.515  36.672  49.798  1.00  0.00     0.042 A 
HETATM   25  C   UNL     1      26.394  36.804  48.970  1.00  0.00     0.032 A 
BRANCH  22  26
HETATM   26  O   UNL     1      29.458  39.560  48.654  1.00  0.00    -0.353 OA
HETATM   27  C   UNL     1      29.002  40.707  47.939  1.00  0.00     0.210 C 
ENDBRANCH  22  26
BRANCH  23  28
HETATM   28  O   UNL     1      29.678  37.579  50.505  1.00  0.00    -0.353 OA
HETATM   29  C   UNL     1      29.761  36.554  51.490  1.00  0.00     0.210 C 
ENDBRANCH  23  28
ENDBRANCH  17  20
ENDBRANCH  15  16
ENDBRANCH   1  15
BRANCH   9  30
HETATM   30  C   UNL     1      25.250  45.199  52.694  1.00  0.00     0.175 C 
BRANCH  30  31
HETATM   31  C   UNL     1      26.583  44.743  53.253  1.00  0.00    -0.040 A 
HETATM   32  C   UNL     1      27.034  43.434  53.022  1.00  0.00     0.010 A 
HETATM   33  C   UNL     1      28.219  42.977  53.604  1.00  0.00     0.024 A 
HETATM   34  C   UNL     1      28.961  43.828  54.419  1.00  0.00     0.034 A 
HETATM   35 CL   UNL     1      30.405  43.260  55.157  1.00  0.00    -0.084 Cl
HETATM   36  C   UNL     1      28.531  45.134  54.652  1.00  0.00     0.024 A 
HETATM   37  C   UNL     1      27.343  45.590  54.073  1.00  0.00     0.010 A 
ENDBRANCH  30  31
ENDBRANCH   9  30
TORSDOF 7
ENDMDL
MODEL 10
REMARK VINA RESULT:      -8.9      5.701      9.646
REMARK  7 active torsions:
REMARK  status: ('A' for Active; 'I' for Inactive)
REMARK    1  A    between atoms: O_2  and  C_3 
REMARK    2  A    between atoms: C_4  and  O_5 
REMARK    3  A    between atoms: C_8  and  N_9 
REMARK       I    between atoms: N_9  and  C_10 
REMARK    4  A    between atoms: C_10  and  C_11 
REMARK    5  A    between atoms: C_11  and  N_12 
REMARK    6  A    between atoms: N_20  and  C_21 
REMARK    7  A    between atoms: C_21  and  C_22 
ROOT
HETATM    1  N   UNL     1      25.638  44.538  51.288  1.00  0.00    -0.063 N 
HETATM    2  H   UNL     1      25.247  45.378  50.814  1.00  0.00     0.280 HD
HETATM    3  C   UNL     1      27.085  44.486  50.886  1.00  0.00     0.238 C 
HETATM    4  C   UNL     1      27.709  43.165  51.327  1.00  0.00     0.069 C 
HETATM    5  C   UNL     1      26.898  41.958  50.840  1.00  0.00     0.119 C 
HETATM    6  N   UNL     1      27.461  40.723  51.336  1.00  0.00    -0.324 N 
HETATM    7  C   UNL     1      28.194  40.061  50.373  1.00  0.00     0.326 C 
HETATM    8  O   UNL     1      28.892  39.093  50.611  1.00  0.00    -0.247 OA
HETATM    9  N   UNL     1      28.009  40.695  49.184  1.00  0.00    -0.264 N 
HETATM   10  C   UNL     1      27.183  41.766  49.340  1.00  0.00     0.256 C 
HETATM   11  O   UNL     1      26.796  42.543  48.477  1.00  0.00    -0.270 OA
HETATM   12  C   UNL     1      25.413  42.065  51.165  1.00  0.00     0.069 C 
HETATM   13  C   UNL     1      24.819  43.403  50.756  1.00  0.00     0.238 C 
HETATM   14  H   UNL     1      27.556  40.430  52.303  1.00  0.00     0.165 HD
ENDROOT
BRANCH   1  15
HETATM   15  C   UNL     1      25.431  44.897  52.777  1.00  0.00     0.337 C 
BRANCH  15  16
HETATM   16  C   UNL     1      25.815  46.363  52.972  1.00  0.00     0.248 C 
HETATM   17  N   UNL     1      26.878  46.776  53.709  1.00  0.00    -0.326 N 
HETATM   18  H   UNL     1      27.073  47.764  53.558  1.00  0.00     0.169 HD
HETATM   19  O   UNL     1      25.205  47.193  52.284  1.00  0.00    -0.271 OA
BRANCH  17  20
HETATM   20  C   UNL     1      27.799  46.090  54.514  1.00  0.00     0.037 A 
HETATM   21  C   UNL     1      28.280  44.810  54.258  1.00  0.00     0.069 A 
HETATM   22  C   UNL     1      29.261  44.255  55.088  1.00  0.00     0.103 A 
HETATM   23  C   UNL     1      29.722  44.925  56.229  1.00  0.00     0.101 A 
HETATM   24  C   UNL     1      29.199  46.185  56.511  1.00  0.00     0.042 A 
HETATM   25  C   UNL     1      28.241  46.756  55.665  1.00  0.00     0.032 A 
BRANCH  22  26
HETATM   26  O   UNL     1      29.691  42.984  54.797  1.00  0.00    -0.353 OA
HETATM   27  C   UNL     1      30.407  42.969  53.563  1.00  0.00     0.210 C 
ENDBRANCH  22  26
BRANCH  23  28
HETATM   28  O   UNL     1      30.676  44.286  56.973  1.00  0.00    -0.353 OA
HETATM   29  C   UNL     1      31.074  44.917  58.186  1.00  0.00     0.210 C 
ENDBRANCH  23  28
ENDBRANCH  17  20
ENDBRANCH  15  16
ENDBRANCH   1  15
BRANCH   9  30
HETATM   30  C   UNL     1      28.735  40.377  47.973  1.00  0.00     0.175 C 
BRANCH  30  31
HETATM   31  C   UNL     1      28.073  39.208  47.272  1.00  0.00    -0.040 A 
HETATM   32  C   UNL     1      26.838  39.380  46.626  1.00  0.00     0.010 A 
HETATM   33  C   UNL     1      26.179  38.290  46.051  1.00  0.00     0.024 A 
HETATM   34  C   UNL     1      26.752  37.023  46.119  1.00  0.00     0.034 A 
HETATM   35 CL   UNL     1      25.929  35.677  45.436  1.00  0.00    -0.084 Cl
HETATM   36  C   UNL     1      27.980  36.837  46.750  1.00  0.00     0.024 A 
HETATM   37  C   UNL     1      28.639  37.926  47.329  1.00  0.00     0.010 A 
ENDBRANCH  30  31
ENDBRANCH   9  30
TORSDOF 7
ENDMDL
