MODEL 1
REMARK VINA RESULT:      -9.0      0.000      0.000
REMARK  6 active torsions:
REMARK  status: ('A' for Active; 'I' for Inactive)
REMARK    1  A    between atoms: C_4  and  C_5 
REMARK    2  A    between atoms: C_5  and  N_6 
REMARK    3  A    between atoms: C_10  and  C_11 
REMARK    4  A    between atoms: C_11  and  C_12 
REMARK    5  A    between atoms: N_21  and  C_22 
REMARK    6  A    between atoms: C_22  and  C_23 
ROOT
HETATM    1  C   UNL     1      27.533  44.709  54.247  1.00  0.00     0.164 A 
HETATM    2  N   UNL     1      28.162  44.950  52.956  1.00  0.00    -0.319 N 
HETATM    3  C   UNL     1      28.250  43.806  52.198  1.00  0.00     0.326 A 
HETATM    4  O   UNL     1      28.794  43.784  51.107  1.00  0.00    -0.247 OA
HETATM    5  N   UNL     1      27.620  42.798  52.848  1.00  0.00    -0.265 N 
HETATM    6  C   UNL     1      27.210  43.206  54.086  1.00  0.00     0.263 A 
HETATM    7  O   UNL     1      26.609  42.519  54.901  1.00  0.00    -0.270 OA
HETATM    8  H   UNL     1      28.977  45.557  52.913  1.00  0.00     0.166 HD
ENDROOT
BRANCH   1   9
HETATM    9  C   UNL     1      26.206  45.532  54.431  1.00  0.00     0.033 C 
HETATM   10  C   UNL     1      24.959  44.946  53.739  1.00  0.00     0.036 C 
HETATM   11  C   UNL     1      24.978  45.055  52.222  1.00  0.00     0.235 C 
HETATM   12  N   UNL     1      25.237  46.474  51.768  1.00  0.00    -0.067 N 
HETATM   13  H   UNL     1      24.361  46.983  51.931  1.00  0.00     0.280 HD
HETATM   14  C   UNL     1      26.340  47.211  52.494  1.00  0.00     0.235 C 
HETATM   15  C   UNL     1      26.273  47.010  54.000  1.00  0.00     0.036 C 
BRANCH  12  16
HETATM   16  C   UNL     1      25.503  46.545  50.263  1.00  0.00     0.274 C 
BRANCH  16  17
HETATM   17  C   UNL     1      25.078  47.827  49.593  1.00  0.00    -0.026 A 
HETATM   18  C   UNL     1      23.695  48.097  49.492  1.00  0.00     0.016 A 
HETATM   19  C   UNL     1      23.222  49.275  48.911  1.00  0.00    -0.061 A 
HETATM   20  C   UNL     1      21.748  49.536  48.783  1.00  0.00     0.048 C 
HETATM   21  C   UNL     1      24.141  50.189  48.400  1.00  0.00     0.007 A 
HETATM   22  C   UNL     1      25.512  49.935  48.482  1.00  0.00     0.008 A 
HETATM   23  C   UNL     1      25.999  48.764  49.083  1.00  0.00    -0.054 A 
HETATM   24  C   UNL     1      27.484  48.522  49.076  1.00  0.00     0.049 C 
ENDBRANCH  16  17
ENDBRANCH  12  16
ENDBRANCH   1   9
BRANCH   1  25
HETATM   25  C   UNL     1      28.552  45.004  55.342  1.00  0.00     0.072 A 
HETATM   26  N   UNL     1      29.723  44.302  55.244  1.00  0.00    -0.262 NA
HETATM   27  C   UNL     1      30.664  44.514  56.193  1.00  0.00     0.117 A 
HETATM   28  C   UNL     1      30.508  45.399  57.242  1.00  0.00     0.019 A 
HETATM   29  C   UNL     1      29.321  46.117  57.324  1.00  0.00     0.003 A 
HETATM   30  C   UNL     1      28.333  45.928  56.361  1.00  0.00     0.030 A 
ENDBRANCH   1  25
BRANCH   5  31
HETATM   31  C   UNL     1      27.305  41.510  52.251  1.00  0.00     0.168 C 
BRANCH  31  32
HETATM   32  C   UNL     1      26.837  41.675  50.798  1.00  0.00     0.140 C 
HETATM   33  O   UNL     1      27.185  40.520  49.997  1.00  0.00    -0.384 OA
HETATM   34  C   UNL     1      26.122  40.300  49.051  1.00  0.00     0.168 C 
HETATM   35  C   UNL     1      25.128  41.432  49.219  1.00  0.00     0.029 C 
HETATM   36  C   UNL     1      25.333  41.829  50.660  1.00  0.00     0.036 C 
ENDBRANCH  31  32
ENDBRANCH   5  31
TORSDOF 6
ENDMDL
MODEL 2
REMARK VINA RESULT:      -8.7      2.430      3.678
REMARK  6 active torsions:
REMARK  status: ('A' for Active; 'I' for Inactive)
REMARK    1  A    between atoms: C_4  and  C_5 
REMARK    2  A    between atoms: C_5  and  N_6 
REMARK    3  A    between atoms: C_10  and  C_11 
REMARK    4  A    between atoms: C_11  and  C_12 
REMARK    5  A    between atoms: N_21  and  C_22 
REMARK    6  A    between atoms: C_22  and  C_23 
ROOT
HETATM    1  C   UNL     1      26.619  42.067  50.831  1.00  0.00     0.164 A 
HETATM    2  N   UNL     1      27.178  42.570  49.584  1.00  0.00    -0.319 N 
HETATM    3  C   UNL     1      27.315  41.582  48.638  1.00  0.00     0.326 A 
HETATM    4  O   UNL     1      27.814  41.787  47.546  1.00  0.00    -0.247 OA
HETATM    5  N   UNL     1      26.783  40.433  49.121  1.00  0.00    -0.265 N 
HETATM    6  C   UNL     1      26.395  40.593  50.422  1.00  0.00     0.263 A 
HETATM    7  O   UNL     1      25.876  39.734  51.122  1.00  0.00    -0.270 OA
HETATM    8  H   UNL     1      27.946  43.235  49.624  1.00  0.00     0.166 HD
ENDROOT
BRANCH   1   9
HETATM    9  C   UNL     1      25.246  42.744  51.191  1.00  0.00     0.033 C 
HETATM   10  C   UNL     1      24.468  43.342  50.002  1.00  0.00     0.036 C 
HETATM   11  C   UNL     1      25.091  44.599  49.416  1.00  0.00     0.235 C 
HETATM   12  N   UNL     1      25.347  45.643  50.480  1.00  0.00    -0.067 N 
HETATM   13  H   UNL     1      24.428  46.039  50.708  1.00  0.00     0.280 HD
HETATM   14  C   UNL     1      25.963  45.140  51.767  1.00  0.00     0.235 C 
HETATM   15  C   UNL     1      25.311  43.857  52.255  1.00  0.00     0.036 C 
BRANCH  12  16
HETATM   16  C   UNL     1      26.193  46.799  49.944  1.00  0.00     0.274 C 
BRANCH  16  17
HETATM   17  C   UNL     1      25.415  47.969  49.399  1.00  0.00    -0.026 A 
HETATM   18  C   UNL     1      24.006  47.874  49.370  1.00  0.00     0.016 A 
HETATM   19  C   UNL     1      23.212  48.925  48.907  1.00  0.00    -0.061 A 
HETATM   20  C   UNL     1      21.716  48.799  48.853  1.00  0.00     0.048 C 
HETATM   21  C   UNL     1      23.833  50.083  48.443  1.00  0.00     0.007 A 
HETATM   22  C   UNL     1      25.225  50.192  48.454  1.00  0.00     0.008 A 
HETATM   23  C   UNL     1      26.032  49.149  48.937  1.00  0.00    -0.054 A 
HETATM   24  C   UNL     1      27.526  49.306  48.858  1.00  0.00     0.049 C 
ENDBRANCH  16  17
ENDBRANCH  12  16
ENDBRANCH   1   9
BRANCH   1  25
HETATM   25  C   UNL     1      27.658  42.246  51.932  1.00  0.00     0.072 A 
HETATM   26  N   UNL     1      28.614  43.191  51.674  1.00  0.00    -0.262 NA
HETATM   27  C   UNL     1      29.570  43.391  52.611  1.00  0.00     0.117 A 
HETATM   28  C   UNL     1      29.624  42.702  53.808  1.00  0.00     0.019 A 
HETATM   29  C   UNL     1      28.640  41.757  54.066  1.00  0.00     0.003 A 
HETATM   30  C   UNL     1      27.638  41.529  53.125  1.00  0.00     0.030 A 
ENDBRANCH   1  25
BRANCH   5  31
HETATM   31  C   UNL     1      26.534  39.246  48.320  1.00  0.00     0.168 C 
BRANCH  31  32
HETATM   32  C   UNL     1      27.540  38.135  48.653  1.00  0.00     0.140 C 
HETATM   33  O   UNL     1      28.741  38.675  49.256  1.00  0.00    -0.384 OA
HETATM   34  C   UNL     1      29.201  37.735  50.245  1.00  0.00     0.168 C 
HETATM   35  C   UNL     1      28.293  36.523  50.172  1.00  0.00     0.029 C 
HETATM   36  C   UNL     1      27.010  37.115  49.644  1.00  0.00     0.036 C 
ENDBRANCH  31  32
ENDBRANCH   5  31
TORSDOF 6
ENDMDL
MODEL 3
REMARK VINA RESULT:      -8.7      1.652      5.529
REMARK  6 active torsions:
REMARK  status: ('A' for Active; 'I' for Inactive)
REMARK    1  A    between atoms: C_4  and  C_5 
REMARK    2  A    between atoms: C_5  and  N_6 
REMARK    3  A    between atoms: C_10  and  C_11 
REMARK    4  A    between atoms: C_11  and  C_12 
REMARK    5  A    between atoms: N_21  and  C_22 
REMARK    6  A    between atoms: C_22  and  C_23 
ROOT
HETATM    1  C   UNL     1      26.232  42.135  50.461  1.00  0.00     0.164 A 
HETATM    2  N   UNL     1      26.553  41.219  51.546  1.00  0.00    -0.319 N 
HETATM    3  C   UNL     1      27.654  41.626  52.263  1.00  0.00     0.326 A 
HETATM    4  O   UNL     1      28.119  40.968  53.177  1.00  0.00    -0.247 OA
HETATM    5  N   UNL     1      28.056  42.835  51.802  1.00  0.00    -0.265 N 
HETATM    6  C   UNL     1      27.323  43.202  50.709  1.00  0.00     0.263 A 
HETATM    7  O   UNL     1      27.452  44.244  50.080  1.00  0.00    -0.270 OA
HETATM    8  H   UNL     1      26.499  40.218  51.374  1.00  0.00     0.166 HD
ENDROOT
BRANCH   1   9
HETATM    9  C   UNL     1      24.803  42.775  50.619  1.00  0.00     0.033 C 
HETATM   10  C   UNL     1      24.318  43.621  49.425  1.00  0.00     0.036 C 
HETATM   11  C   UNL     1      25.045  44.947  49.263  1.00  0.00     0.235 C 
HETATM   12  N   UNL     1      25.029  45.752  50.543  1.00  0.00    -0.067 N 
HETATM   13  H   UNL     1      24.078  46.126  50.625  1.00  0.00     0.280 HD
HETATM   14  C   UNL     1      25.333  44.986  51.811  1.00  0.00     0.235 C 
HETATM   15  C   UNL     1      24.602  43.654  51.869  1.00  0.00     0.036 C 
BRANCH  12  16
HETATM   16  C   UNL     1      25.962  46.961  50.460  1.00  0.00     0.274 C 
BRANCH  16  17
HETATM   17  C   UNL     1      25.494  48.076  49.560  1.00  0.00    -0.026 A 
HETATM   18  C   UNL     1      24.108  48.193  49.313  1.00  0.00     0.016 A 
HETATM   19  C   UNL     1      23.592  49.215  48.514  1.00  0.00    -0.061 A 
HETATM   20  C   UNL     1      22.118  49.309  48.235  1.00  0.00     0.048 C 
HETATM   21  C   UNL     1      24.473  50.124  47.932  1.00  0.00     0.007 A 
HETATM   22  C   UNL     1      25.848  50.019  48.156  1.00  0.00     0.008 A 
HETATM   23  C   UNL     1      26.376  49.007  48.975  1.00  0.00    -0.054 A 
HETATM   24  C   UNL     1      27.870  48.912  49.119  1.00  0.00     0.049 C 
ENDBRANCH  16  17
ENDBRANCH  12  16
ENDBRANCH   1   9
BRANCH   1  25
HETATM   25  C   UNL     1      26.388  41.393  49.139  1.00  0.00     0.072 A 
HETATM   26  N   UNL     1      27.589  41.583  48.510  1.00  0.00    -0.262 NA
HETATM   27  C   UNL     1      27.785  40.957  47.327  1.00  0.00     0.117 A 
HETATM   28  C   UNL     1      26.847  40.137  46.730  1.00  0.00     0.019 A 
HETATM   29  C   UNL     1      25.638  39.939  47.384  1.00  0.00     0.003 A 
HETATM   30  C   UNL     1      25.404  40.564  48.606  1.00  0.00     0.030 A 
ENDBRANCH   1  25
BRANCH   5  31
HETATM   31  C   UNL     1      29.034  43.680  52.468  1.00  0.00     0.168 C 
BRANCH  31  32
HETATM   32  C   UNL     1      28.600  43.999  53.906  1.00  0.00     0.140 C 
HETATM   33  O   UNL     1      29.728  43.971  54.815  1.00  0.00    -0.384 OA
HETATM   34  C   UNL     1      29.525  44.999  55.803  1.00  0.00     0.168 C 
HETATM   35  C   UNL     1      28.165  45.615  55.540  1.00  0.00     0.029 C 
HETATM   36  C   UNL     1      27.985  45.377  54.061  1.00  0.00     0.036 C 
ENDBRANCH  31  32
ENDBRANCH   5  31
TORSDOF 6
ENDMDL
MODEL 4
REMARK VINA RESULT:      -8.6      6.293     11.342
REMARK  6 active torsions:
REMARK  status: ('A' for Active; 'I' for Inactive)
REMARK    1  A    between atoms: C_4  and  C_5 
REMARK    2  A    between atoms: C_5  and  N_6 
REMARK    3  A    between atoms: C_10  and  C_11 
REMARK    4  A    between atoms: C_11  and  C_12 
REMARK    5  A    between atoms: N_21  and  C_22 
REMARK    6  A    between atoms: C_22  and  C_23 
ROOT
HETATM    1  C   UNL     1      18.319  47.497  47.346  1.00  0.00     0.164 A 
HETATM    2  N   UNL     1      19.094  48.600  46.796  1.00  0.00    -0.319 N 
HETATM    3  C   UNL     1      18.326  49.718  46.576  1.00  0.00     0.326 A 
HETATM    4  O   UNL     1      18.775  50.731  46.069  1.00  0.00    -0.247 OA
HETATM    5  N   UNL     1      17.074  49.491  47.043  1.00  0.00    -0.265 N 
HETATM    6  C   UNL     1      16.947  48.198  47.467  1.00  0.00     0.263 A 
HETATM    7  O   UNL     1      15.936  47.700  47.944  1.00  0.00    -0.270 OA
HETATM    8  H   UNL     1      19.782  48.403  46.073  1.00  0.00     0.166 HD
ENDROOT
BRANCH   1   9
HETATM    9  C   UNL     1      18.828  47.054  48.767  1.00  0.00     0.033 C 
HETATM   10  C   UNL     1      19.160  48.202  49.741  1.00  0.00     0.036 C 
HETATM   11  C   UNL     1      20.416  48.982  49.382  1.00  0.00     0.235 C 
HETATM   12  N   UNL     1      21.605  48.068  49.192  1.00  0.00    -0.067 N 
HETATM   13  H   UNL     1      21.888  47.779  50.135  1.00  0.00     0.280 HD
HETATM   14  C   UNL     1      21.355  46.815  48.382  1.00  0.00     0.235 C 
HETATM   15  C   UNL     1      20.058  46.126  48.774  1.00  0.00     0.036 C 
BRANCH  12  16
HETATM   16  C   UNL     1      22.799  48.814  48.593  1.00  0.00     0.274 C 
BRANCH  16  17
HETATM   17  C   UNL     1      24.139  48.474  49.195  1.00  0.00    -0.026 A 
HETATM   18  C   UNL     1      24.185  47.470  50.188  1.00  0.00     0.016 A 
HETATM   19  C   UNL     1      25.391  47.077  50.774  1.00  0.00    -0.061 A 
HETATM   20  C   UNL     1      25.422  46.029  51.850  1.00  0.00     0.048 C 
HETATM   21  C   UNL     1      26.567  47.712  50.381  1.00  0.00     0.007 A 
HETATM   22  C   UNL     1      26.540  48.714  49.408  1.00  0.00     0.008 A 
HETATM   23  C   UNL     1      25.336  49.101  48.797  1.00  0.00    -0.054 A 
HETATM   24  C   UNL     1      25.370  50.233  47.807  1.00  0.00     0.049 C 
ENDBRANCH  16  17
ENDBRANCH  12  16
ENDBRANCH   1   9
BRANCH   1  25
HETATM   25  C   UNL     1      18.335  46.348  46.344  1.00  0.00     0.072 A 
HETATM   26  N   UNL     1      19.254  46.474  45.338  1.00  0.00    -0.262 NA
HETATM   27  C   UNL     1      19.310  45.489  44.411  1.00  0.00     0.117 A 
HETATM   28  C   UNL     1      18.500  44.370  44.433  1.00  0.00     0.019 A 
HETATM   29  C   UNL     1      17.582  44.245  45.466  1.00  0.00     0.003 A 
HETATM   30  C   UNL     1      17.500  45.238  46.441  1.00  0.00     0.030 A 
ENDBRANCH   1  25
BRANCH   5  31
HETATM   31  C   UNL     1      16.060  50.520  47.199  1.00  0.00     0.168 C 
BRANCH  31  32
HETATM   32  C   UNL     1      16.077  51.102  48.619  1.00  0.00     0.140 C 
HETATM   33  O   UNL     1      17.432  51.313  49.087  1.00  0.00    -0.384 OA
HETATM   34  C   UNL     1      17.442  52.508  49.890  1.00  0.00     0.168 C 
HETATM   35  C   UNL     1      16.010  52.992  49.997  1.00  0.00     0.029 C 
HETATM   36  C   UNL     1      15.394  52.452  48.730  1.00  0.00     0.036 C 
ENDBRANCH  31  32
ENDBRANCH   5  31
TORSDOF 6
ENDMDL
MODEL 5
REMARK VINA RESULT:      -8.6     12.024     14.487
REMARK  6 active torsions:
REMARK  status: ('A' for Active; 'I' for Inactive)
REMARK    1  A    between atoms: C_4  and  C_5 
REMARK    2  A    between atoms: C_5  and  N_6 
REMARK    3  A    between atoms: C_10  and  C_11 
REMARK    4  A    between atoms: C_11  and  C_12 
REMARK    5  A    between atoms: N_21  and  C_22 
REMARK    6  A    between atoms: C_22  and  C_23 
ROOT
HETATM    1  C   UNL     1      28.514  49.801  39.386  1.00  0.00     0.164 A 
HETATM    2  N   UNL     1      28.086  48.831  40.385  1.00  0.00    -0.319 N 
HETATM    3  C   UNL     1      26.771  48.465  40.225  1.00  0.00     0.326 A 
HETATM    4  O   UNL     1      26.206  47.705  40.992  1.00  0.00    -0.247 OA
HETATM    5  N   UNL     1      26.285  49.046  39.102  1.00  0.00    -0.265 N 
HETATM    6  C   UNL     1      27.210  49.896  38.562  1.00  0.00     0.263 A 
HETATM    7  O   UNL     1      27.062  50.558  37.544  1.00  0.00    -0.270 OA
HETATM    8  H   UNL     1      28.382  48.958  41.350  1.00  0.00     0.166 HD
ENDROOT
BRANCH   1   9
HETATM    9  C   UNL     1      29.686  49.259  38.487  1.00  0.00     0.033 C 
HETATM   10  C   UNL     1      30.058  47.779  38.701  1.00  0.00     0.036 C 
HETATM   11  C   UNL     1      30.757  47.495  40.022  1.00  0.00     0.235 C 
HETATM   12  N   UNL     1      31.957  48.393  40.222  1.00  0.00    -0.067 N 
HETATM   13  H   UNL     1      32.686  48.027  39.600  1.00  0.00     0.280 HD
HETATM   14  C   UNL     1      31.755  49.854  39.884  1.00  0.00     0.235 C 
HETATM   15  C   UNL     1      31.009  50.044  38.573  1.00  0.00     0.036 C 
BRANCH  12  16
HETATM   16  C   UNL     1      32.510  48.286  41.643  1.00  0.00     0.274 C 
BRANCH  16  17
HETATM   17  C   UNL     1      33.072  49.563  42.215  1.00  0.00    -0.026 A 
HETATM   18  C   UNL     1      32.299  50.258  43.172  1.00  0.00     0.016 A 
HETATM   19  C   UNL     1      32.760  51.432  43.770  1.00  0.00    -0.061 A 
HETATM   20  C   UNL     1      31.915  52.177  44.764  1.00  0.00     0.048 C 
HETATM   21  C   UNL     1      34.003  51.936  43.392  1.00  0.00     0.007 A 
HETATM   22  C   UNL     1      34.777  51.269  42.440  1.00  0.00     0.008 A 
HETATM   23  C   UNL     1      34.332  50.076  41.848  1.00  0.00    -0.054 A 
HETATM   24  C   UNL     1      35.186  49.446  40.781  1.00  0.00     0.049 C 
ENDBRANCH  16  17
ENDBRANCH  12  16
ENDBRANCH   1   9
BRANCH   1  25
HETATM   25  C   UNL     1      28.885  51.096  40.099  1.00  0.00     0.072 A 
HETATM   26  N   UNL     1      28.949  52.200  39.291  1.00  0.00    -0.262 NA
HETATM   27  C   UNL     1      29.283  53.380  39.864  1.00  0.00     0.117 A 
HETATM   28  C   UNL     1      29.552  53.528  41.211  1.00  0.00     0.019 A 
HETATM   29  C   UNL     1      29.469  52.404  42.024  1.00  0.00     0.003 A 
HETATM   30  C   UNL     1      29.124  51.175  41.468  1.00  0.00     0.030 A 
ENDBRANCH   1  25
BRANCH   5  31
HETATM   31  C   UNL     1      25.014  48.704  38.487  1.00  0.00     0.168 C 
BRANCH  31  32
HETATM   32  C   UNL     1      23.869  49.530  39.089  1.00  0.00     0.140 C 
HETATM   33  O   UNL     1      23.056  50.138  38.055  1.00  0.00    -0.384 OA
HETATM   34  C   UNL     1      21.689  50.136  38.507  1.00  0.00     0.168 C 
HETATM   35  C   UNL     1      21.683  49.592  39.922  1.00  0.00     0.029 C 
HETATM   36  C   UNL     1      22.908  48.711  39.932  1.00  0.00     0.036 C 
ENDBRANCH  31  32
ENDBRANCH   5  31
TORSDOF 6
ENDMDL
MODEL 6
REMARK VINA RESULT:      -8.5      2.193      7.857
REMARK  6 active torsions:
REMARK  status: ('A' for Active; 'I' for Inactive)
REMARK    1  A    between atoms: C_4  and  C_5 
REMARK    2  A    between atoms: C_5  and  N_6 
REMARK    3  A    between atoms: C_10  and  C_11 
REMARK    4  A    between atoms: C_11  and  C_12 
REMARK    5  A    between atoms: N_21  and  C_22 
REMARK    6  A    between atoms: C_22  and  C_23 
ROOT
HETATM    1  C   UNL     1      25.685  44.791  51.014  1.00  0.00     0.164 A 
HETATM    2  N   UNL     1      27.015  44.278  50.718  1.00  0.00    -0.319 N 
HETATM    3  C   UNL     1      27.766  44.091  51.855  1.00  0.00     0.326 A 
HETATM    4  O   UNL     1      28.926  43.720  51.819  1.00  0.00    -0.247 OA
HETATM    5  N   UNL     1      26.994  44.347  52.939  1.00  0.00    -0.265 N 
HETATM    6  C   UNL     1      25.770  44.818  52.557  1.00  0.00     0.263 A 
HETATM    7  O   UNL     1      24.858  45.130  53.312  1.00  0.00    -0.270 OA
HETATM    8  H   UNL     1      27.524  44.662  49.926  1.00  0.00     0.166 HD
ENDROOT
BRANCH   1   9
HETATM    9  C   UNL     1      24.546  43.810  50.551  1.00  0.00     0.033 C 
HETATM   10  C   UNL     1      24.662  42.364  51.071  1.00  0.00     0.036 C 
HETATM   11  C   UNL     1      25.795  41.564  50.445  1.00  0.00     0.235 C 
HETATM   12  N   UNL     1      25.731  41.597  48.934  1.00  0.00    -0.067 N 
HETATM   13  H   UNL     1      24.961  40.971  48.674  1.00  0.00     0.280 HD
HETATM   14  C   UNL     1      25.456  42.948  48.311  1.00  0.00     0.235 C 
HETATM   15  C   UNL     1      24.343  43.696  49.028  1.00  0.00     0.036 C 
BRANCH  12  16
HETATM   16  C   UNL     1      26.995  41.010  48.304  1.00  0.00     0.274 C 
BRANCH  16  17
HETATM   17  C   UNL     1      27.324  39.597  48.714  1.00  0.00    -0.026 A 
HETATM   18  C   UNL     1      28.418  39.397  49.586  1.00  0.00     0.016 A 
HETATM   19  C   UNL     1      28.770  38.122  50.035  1.00  0.00    -0.061 A 
HETATM   20  C   UNL     1      29.954  37.920  50.938  1.00  0.00     0.048 C 
HETATM   21  C   UNL     1      28.034  37.026  49.590  1.00  0.00     0.007 A 
HETATM   22  C   UNL     1      26.956  37.203  48.720  1.00  0.00     0.008 A 
HETATM   23  C   UNL     1      26.580  38.482  48.280  1.00  0.00    -0.054 A 
HETATM   24  C   UNL     1      25.452  38.593  47.290  1.00  0.00     0.049 C 
ENDBRANCH  16  17
ENDBRANCH  12  16
ENDBRANCH   1   9
BRANCH   1  25
HETATM   25  C   UNL     1      25.549  46.172  50.383  1.00  0.00     0.072 A 
HETATM   26  N   UNL     1      24.269  46.654  50.322  1.00  0.00    -0.262 NA
HETATM   27  C   UNL     1      24.082  47.873  49.764  1.00  0.00     0.117 A 
HETATM   28  C   UNL     1      25.109  48.652  49.264  1.00  0.00     0.019 A 
HETATM   29  C   UNL     1      26.404  48.159  49.345  1.00  0.00     0.003 A 
HETATM   30  C   UNL     1      26.634  46.911  49.918  1.00  0.00     0.030 A 
ENDBRANCH   1  25
BRANCH   5  31
HETATM   31  C   UNL     1      27.372  44.028  54.306  1.00  0.00     0.168 C 
BRANCH  31  32
HETATM   32  C   UNL     1      28.451  44.992  54.819  1.00  0.00     0.140 C 
HETATM   33  O   UNL     1      27.980  45.754  55.957  1.00  0.00    -0.384 OA
HETATM   34  C   UNL     1      29.089  45.938  56.857  1.00  0.00     0.168 C 
HETATM   35  C   UNL     1      30.314  45.346  56.189  1.00  0.00     0.029 C 
HETATM   36  C   UNL     1      29.713  44.293  55.291  1.00  0.00     0.036 C 
ENDBRANCH  31  32
ENDBRANCH   5  31
TORSDOF 6
ENDMDL
MODEL 7
REMARK VINA RESULT:      -8.5      3.937      7.827
REMARK  6 active torsions:
REMARK  status: ('A' for Active; 'I' for Inactive)
REMARK    1  A    between atoms: C_4  and  C_5 
REMARK    2  A    between atoms: C_5  and  N_6 
REMARK    3  A    between atoms: C_10  and  C_11 
REMARK    4  A    between atoms: C_11  and  C_12 
REMARK    5  A    between atoms: N_21  and  C_22 
REMARK    6  A    between atoms: C_22  and  C_23 
ROOT
HETATM    1  C   UNL     1      27.233  39.529  48.710  1.00  0.00     0.164 A 
HETATM    2  N   UNL     1      28.151  40.598  48.343  1.00  0.00    -0.319 N 
HETATM    3  C   UNL     1      28.313  40.700  46.981  1.00  0.00     0.326 A 
HETATM    4  O   UNL     1      29.082  41.496  46.472  1.00  0.00    -0.247 OA
HETATM    5  N   UNL     1      27.475  39.827  46.371  1.00  0.00    -0.265 N 
HETATM    6  C   UNL     1      26.834  39.051  47.296  1.00  0.00     0.263 A 
HETATM    7  O   UNL     1      26.013  38.177  47.048  1.00  0.00    -0.270 OA
HETATM    8  H   UNL     1      29.001  40.723  48.887  1.00  0.00     0.166 HD
ENDROOT
BRANCH   1   9
HETATM    9  C   UNL     1      25.968  40.061  49.480  1.00  0.00     0.033 C 
HETATM   10  C   UNL     1      25.382  41.387  48.957  1.00  0.00     0.036 C 
HETATM   11  C   UNL     1      26.242  42.608  49.248  1.00  0.00     0.235 C 
HETATM   12  N   UNL     1      26.592  42.706  50.715  1.00  0.00    -0.067 N 
HETATM   13  H   UNL     1      25.737  43.027  51.184  1.00  0.00     0.280 HD
HETATM   14  C   UNL     1      27.028  41.420  51.381  1.00  0.00     0.235 C 
HETATM   15  C   UNL     1      26.142  40.245  51.000  1.00  0.00     0.036 C 
BRANCH  12  16
HETATM   16  C   UNL     1      27.651  43.780  50.971  1.00  0.00     0.274 C 
BRANCH  16  17
HETATM   17  C   UNL     1      27.861  44.147  52.418  1.00  0.00    -0.026 A 
HETATM   18  C   UNL     1      29.002  43.632  53.074  1.00  0.00     0.016 A 
HETATM   19  C   UNL     1      29.284  43.948  54.405  1.00  0.00    -0.061 A 
HETATM   20  C   UNL     1      30.485  43.370  55.099  1.00  0.00     0.048 C 
HETATM   21  C   UNL     1      28.402  44.771  55.102  1.00  0.00     0.007 A 
HETATM   22  C   UNL     1      27.263  45.281  54.474  1.00  0.00     0.008 A 
HETATM   23  C   UNL     1      26.982  44.987  53.130  1.00  0.00    -0.054 A 
HETATM   24  C   UNL     1      25.704  45.514  52.536  1.00  0.00     0.049 C 
ENDBRANCH  16  17
ENDBRANCH  12  16
ENDBRANCH   1   9
BRANCH   1  25
HETATM   25  C   UNL     1      28.002  38.487  49.515  1.00  0.00     0.072 A 
HETATM   26  N   UNL     1      29.201  38.918  50.017  1.00  0.00    -0.262 NA
HETATM   27  C   UNL     1      29.935  38.035  50.734  1.00  0.00     0.117 A 
HETATM   28  C   UNL     1      29.537  36.737  50.989  1.00  0.00     0.019 A 
HETATM   29  C   UNL     1      28.313  36.316  50.488  1.00  0.00     0.003 A 
HETATM   30  C   UNL     1      27.528  37.199  49.750  1.00  0.00     0.030 A 
ENDBRANCH   1  25
BRANCH   5  31
HETATM   31  C   UNL     1      27.198  39.820  44.945  1.00  0.00     0.168 C 
BRANCH  31  32
HETATM   32  C   UNL     1      28.340  39.154  44.164  1.00  0.00     0.140 C 
HETATM   33  O   UNL     1      27.839  38.140  43.259  1.00  0.00    -0.384 OA
HETATM   34  C   UNL     1      28.651  38.169  42.070  1.00  0.00     0.168 C 
HETATM   35  C   UNL     1      29.756  39.179  42.302  1.00  0.00     0.029 C 
HETATM   36  C   UNL     1      29.126  40.121  43.297  1.00  0.00     0.036 C 
ENDBRANCH  31  32
ENDBRANCH   5  31
TORSDOF 6
ENDMDL
MODEL 8
REMARK VINA RESULT:      -8.4      8.076     12.891
REMARK  6 active torsions:
REMARK  status: ('A' for Active; 'I' for Inactive)
REMARK    1  A    between atoms: C_4  and  C_5 
REMARK    2  A    between atoms: C_5  and  N_6 
REMARK    3  A    between atoms: C_10  and  C_11 
REMARK    4  A    between atoms: C_11  and  C_12 
REMARK    5  A    between atoms: N_21  and  C_22 
REMARK    6  A    between atoms: C_22  and  C_23 
ROOT
HETATM    1  C   UNL     1      18.007  49.809  47.507  1.00  0.00     0.164 A 
HETATM    2  N   UNL     1      17.781  49.638  48.935  1.00  0.00    -0.319 N 
HETATM    3  C   UNL     1      18.706  48.800  49.512  1.00  0.00     0.326 A 
HETATM    4  O   UNL     1      18.658  48.484  50.688  1.00  0.00    -0.247 OA
HETATM    5  N   UNL     1      19.632  48.459  48.583  1.00  0.00    -0.265 N 
HETATM    6  C   UNL     1      19.286  48.954  47.356  1.00  0.00     0.263 A 
HETATM    7  O   UNL     1      19.929  48.814  46.324  1.00  0.00    -0.270 OA
HETATM    8  H   UNL     1      16.828  49.520  49.270  1.00  0.00     0.166 HD
ENDROOT
BRANCH   1   9
HETATM    9  C   UNL     1      18.307  51.304  47.121  1.00  0.00     0.033 C 
HETATM   10  C   UNL     1      18.712  52.224  48.289  1.00  0.00     0.036 C 
HETATM   11  C   UNL     1      17.577  52.554  49.247  1.00  0.00     0.235 C 
HETATM   12  N   UNL     1      16.372  53.101  48.515  1.00  0.00    -0.067 N 
HETATM   13  H   UNL     1      16.617  54.063  48.256  1.00  0.00     0.280 HD
HETATM   14  C   UNL     1      15.976  52.370  47.252  1.00  0.00     0.235 C 
HETATM   15  C   UNL     1      17.174  52.039  46.378  1.00  0.00     0.036 C 
BRANCH  12  16
HETATM   16  C   UNL     1      15.153  53.200  49.433  1.00  0.00     0.274 C 
BRANCH  16  17
HETATM   17  C   UNL     1      14.864  54.576  49.977  1.00  0.00    -0.026 A 
HETATM   18  C   UNL     1      15.201  54.841  51.323  1.00  0.00     0.016 A 
HETATM   19  C   UNL     1      14.992  56.099  51.894  1.00  0.00    -0.061 A 
HETATM   20  C   UNL     1      15.327  56.359  53.336  1.00  0.00     0.048 C 
HETATM   21  C   UNL     1      14.417  57.102  51.117  1.00  0.00     0.007 A 
HETATM   22  C   UNL     1      14.068  56.856  49.788  1.00  0.00     0.008 A 
HETATM   23  C   UNL     1      14.293  55.602  49.198  1.00  0.00    -0.054 A 
HETATM   24  C   UNL     1      13.832  55.385  47.782  1.00  0.00     0.049 C 
ENDBRANCH  16  17
ENDBRANCH  12  16
ENDBRANCH   1   9
BRANCH   1  25
HETATM   25  C   UNL     1      16.804  49.249  46.757  1.00  0.00     0.072 A 
HETATM   26  N   UNL     1      16.993  49.073  45.413  1.00  0.00    -0.262 NA
HETATM   27  C   UNL     1      15.957  48.587  44.690  1.00  0.00     0.117 A 
HETATM   28  C   UNL     1      14.732  48.255  45.235  1.00  0.00     0.019 A 
HETATM   29  C   UNL     1      14.556  48.423  46.603  1.00  0.00     0.003 A 
HETATM   30  C   UNL     1      15.603  48.916  47.378  1.00  0.00     0.030 A 
ENDBRANCH   1  25
BRANCH   5  31
HETATM   31  C   UNL     1      20.883  47.784  48.884  1.00  0.00     0.168 C 
BRANCH  31  32
HETATM   32  C   UNL     1      22.033  48.791  49.025  1.00  0.00     0.140 C 
HETATM   33  O   UNL     1      22.771  48.926  47.786  1.00  0.00    -0.384 OA
HETATM   34  C   UNL     1      23.179  50.302  47.660  1.00  0.00     0.168 C 
HETATM   35  C   UNL     1      22.754  51.015  48.928  1.00  0.00     0.029 C 
HETATM   36  C   UNL     1      21.572  50.193  49.379  1.00  0.00     0.036 C 
ENDBRANCH  31  32
ENDBRANCH   5  31
TORSDOF 6
ENDMDL
MODEL 9
REMARK VINA RESULT:      -8.3     16.207     18.801
REMARK  6 active torsions:
REMARK  status: ('A' for Active; 'I' for Inactive)
REMARK    1  A    between atoms: C_4  and  C_5 
REMARK    2  A    between atoms: C_5  and  N_6 
REMARK    3  A    between atoms: C_10  and  C_11 
REMARK    4  A    between atoms: C_11  and  C_12 
REMARK    5  A    between atoms: N_21  and  C_22 
REMARK    6  A    between atoms: C_22  and  C_23 
ROOT
HETATM    1  C   UNL     1      37.366  45.556  65.612  1.00  0.00     0.164 A 
HETATM    2  N   UNL     1      38.641  45.814  64.958  1.00  0.00    -0.319 N 
HETATM    3  C   UNL     1      39.016  44.787  64.123  1.00  0.00     0.326 A 
HETATM    4  O   UNL     1      40.077  44.785  63.525  1.00  0.00    -0.247 OA
HETATM    5  N   UNL     1      38.018  43.872  64.076  1.00  0.00    -0.265 N 
HETATM    6  C   UNL     1      37.024  44.199  64.957  1.00  0.00     0.263 A 
HETATM    7  O   UNL     1      35.992  43.565  65.134  1.00  0.00    -0.270 OA
HETATM    8  H   UNL     1      39.398  46.221  65.502  1.00  0.00     0.166 HD
ENDROOT
BRANCH   1   9
HETATM    9  C   UNL     1      36.275  46.626  65.243  1.00  0.00     0.033 C 
HETATM   10  C   UNL     1      36.647  47.587  64.096  1.00  0.00     0.036 C 
HETATM   11  C   UNL     1      37.719  48.604  64.456  1.00  0.00     0.235 C 
HETATM   12  N   UNL     1      37.365  49.366  65.712  1.00  0.00    -0.067 N 
HETATM   13  H   UNL     1      36.633  50.031  65.437  1.00  0.00     0.280 HD
HETATM   14  C   UNL     1      36.829  48.540  66.861  1.00  0.00     0.235 C 
HETATM   15  C   UNL     1      35.798  47.520  66.404  1.00  0.00     0.036 C 
BRANCH  12  16
HETATM   16  C   UNL     1      38.541  50.205  66.213  1.00  0.00     0.274 C 
BRANCH  16  17
HETATM   17  C   UNL     1      39.695  49.422  66.786  1.00  0.00    -0.026 A 
HETATM   18  C   UNL     1      40.482  48.654  65.898  1.00  0.00     0.016 A 
HETATM   19  C   UNL     1      41.585  47.923  66.345  1.00  0.00    -0.061 A 
HETATM   20  C   UNL     1      42.395  47.087  65.395  1.00  0.00     0.048 C 
HETATM   21  C   UNL     1      41.895  47.938  67.703  1.00  0.00     0.007 A 
HETATM   22  C   UNL     1      41.123  48.682  68.598  1.00  0.00     0.008 A 
HETATM   23  C   UNL     1      40.025  49.438  68.156  1.00  0.00    -0.054 A 
HETATM   24  C   UNL     1      39.197  50.162  69.183  1.00  0.00     0.049 C 
ENDBRANCH  16  17
ENDBRANCH  12  16
ENDBRANCH   1   9
BRANCH   1  25
HETATM   25  C   UNL     1      37.603  45.469  67.116  1.00  0.00     0.072 A 
HETATM   26  N   UNL     1      36.553  44.965  67.836  1.00  0.00    -0.262 NA
HETATM   27  C   UNL     1      36.699  44.872  69.178  1.00  0.00     0.117 A 
HETATM   28  C   UNL     1      37.846  45.246  69.851  1.00  0.00     0.019 A 
HETATM   29  C   UNL     1      38.910  45.741  69.109  1.00  0.00     0.003 A 
HETATM   30  C   UNL     1      38.796  45.847  67.725  1.00  0.00     0.030 A 
ENDBRANCH   1  25
BRANCH   5  31
HETATM   31  C   UNL     1      37.955  42.778  63.122  1.00  0.00     0.168 C 
BRANCH  31  32
HETATM   32  C   UNL     1      38.957  41.672  63.484  1.00  0.00     0.140 C 
HETATM   33  O   UNL     1      38.541  40.950  64.669  1.00  0.00    -0.384 OA
HETATM   34  C   UNL     1      38.911  39.569  64.499  1.00  0.00     0.168 C 
HETATM   35  C   UNL     1      39.675  39.464  63.194  1.00  0.00     0.029 C 
HETATM   36  C   UNL     1      39.117  40.621  62.401  1.00  0.00     0.036 C 
ENDBRANCH  31  32
ENDBRANCH   5  31
TORSDOF 6
ENDMDL
MODEL 10
REMARK VINA RESULT:      -8.3     11.782     14.732
REMARK  6 active torsions:
REMARK  status: ('A' for Active; 'I' for Inactive)
REMARK    1  A    between atoms: C_4  and  C_5 
REMARK    2  A    between atoms: C_5  and  N_6 
REMARK    3  A    between atoms: C_10  and  C_11 
REMARK    4  A    between atoms: C_11  and  C_12 
REMARK    5  A    between atoms: N_21  and  C_22 
REMARK    6  A    between atoms: C_22  and  C_23 
ROOT
HETATM    1  C   UNL     1      33.074  50.443  41.618  1.00  0.00     0.164 A 
HETATM    2  N   UNL     1      34.024  50.134  40.558  1.00  0.00    -0.319 N 
HETATM    3  C   UNL     1      35.287  50.600  40.837  1.00  0.00     0.326 A 
HETATM    4  O   UNL     1      36.212  50.491  40.052  1.00  0.00    -0.247 OA
HETATM    5  N   UNL     1      35.295  51.126  42.086  1.00  0.00    -0.265 N 
HETATM    6  C   UNL     1      34.034  51.134  42.613  1.00  0.00     0.263 A 
HETATM    7  O   UNL     1      33.728  51.543  43.725  1.00  0.00    -0.270 OA
HETATM    8  H   UNL     1      33.731  50.243  39.590  1.00  0.00     0.166 HD
ENDROOT
BRANCH   1   9
HETATM    9  C   UNL     1      32.458  49.150  42.268  1.00  0.00     0.033 C 
HETATM   10  C   UNL     1      32.526  47.875  41.405  1.00  0.00     0.036 C 
HETATM   11  C   UNL     1      31.592  47.882  40.204  1.00  0.00     0.235 C 
HETATM   12  N   UNL     1      30.168  48.192  40.608  1.00  0.00    -0.067 N 
HETATM   13  H   UNL     1      29.813  47.338  41.053  1.00  0.00     0.280 HD
HETATM   14  C   UNL     1      29.990  49.330  41.589  1.00  0.00     0.235 C 
HETATM   15  C   UNL     1      30.993  49.270  42.730  1.00  0.00     0.036 C 
BRANCH  12  16
HETATM   16  C   UNL     1      29.279  48.445  39.390  1.00  0.00     0.274 C 
BRANCH  16  17
HETATM   17  C   UNL     1      27.797  48.312  39.634  1.00  0.00    -0.026 A 
HETATM   18  C   UNL     1      27.340  47.176  40.339  1.00  0.00     0.016 A 
HETATM   19  C   UNL     1      25.986  46.993  40.630  1.00  0.00    -0.061 A 
HETATM   20  C   UNL     1      25.510  45.765  41.354  1.00  0.00     0.048 C 
HETATM   21  C   UNL     1      25.070  47.946  40.192  1.00  0.00     0.007 A 
HETATM   22  C   UNL     1      25.502  49.071  39.485  1.00  0.00     0.008 A 
HETATM   23  C   UNL     1      26.862  49.275  39.205  1.00  0.00    -0.054 A 
HETATM   24  C   UNL     1      27.250  50.473  38.382  1.00  0.00     0.049 C 
ENDBRANCH  16  17
ENDBRANCH  12  16
ENDBRANCH   1   9
BRANCH   1  25
HETATM   25  C   UNL     1      32.004  51.370  41.053  1.00  0.00     0.072 A 
HETATM   26  N   UNL     1      31.681  51.145  39.742  1.00  0.00    -0.262 NA
HETATM   27  C   UNL     1      30.743  51.943  39.180  1.00  0.00     0.117 A 
HETATM   28  C   UNL     1      30.095  52.958  39.858  1.00  0.00     0.019 A 
HETATM   29  C   UNL     1      30.420  53.167  41.192  1.00  0.00     0.003 A 
HETATM   30  C   UNL     1      31.377  52.361  41.804  1.00  0.00     0.030 A 
ENDBRANCH   1  25
BRANCH   5  31
HETATM   31  C   UNL     1      36.500  51.497  42.809  1.00  0.00     0.168 C 
BRANCH  31  32
HETATM   32  C   UNL     1      36.672  53.022  42.850  1.00  0.00     0.140 C 
HETATM   33  O   UNL     1      37.062  53.474  44.170  1.00  0.00    -0.384 OA
HETATM   34  C   UNL     1      37.970  54.580  44.009  1.00  0.00     0.168 C 
HETATM   35  C   UNL     1      38.060  54.877  42.525  1.00  0.00     0.029 C 
HETATM   36  C   UNL     1      37.747  53.536  41.910  1.00  0.00     0.036 C 
ENDBRANCH  31  32
ENDBRANCH   5  31
TORSDOF 6
ENDMDL
