MODEL 1
REMARK VINA RESULT:     -10.1      0.000      0.000
REMARK  6 active torsions:
REMARK  status: ('A' for Active; 'I' for Inactive)
REMARK    1  A    between atoms: C_3  and  C_4 
REMARK    2  A    between atoms: C_4  and  N_5 
REMARK       I    between atoms: N_5  and  C_6 
REMARK    3  A    between atoms: C_6  and  C_7 
REMARK    4  A    between atoms: C_10  and  C_11 
REMARK    5  A    between atoms: C_11  and  N_12 
REMARK    6  A    between atoms: N_12  and  C_13 
ROOT
HETATM    1  C   UNL     1      25.050  44.521  50.140  1.00  0.00     0.032 A 
HETATM    2  C   UNL     1      26.347  44.168  49.750  1.00  0.00     0.017 A 
HETATM    3  C   UNL     1      27.241  43.648  50.690  1.00  0.00     0.010 A 
HETATM    4  C   UNL     1      26.851  43.470  52.026  1.00  0.00    -0.041 A 
HETATM    5  C   UNL     1      25.559  43.851  52.415  1.00  0.00     0.010 A 
HETATM    6  C   UNL     1      24.666  44.376  51.478  1.00  0.00     0.017 A 
ENDROOT
BRANCH   4   7
HETATM    7  C   UNL     1      27.826  42.913  53.038  1.00  0.00     0.160 C 
BRANCH   7   8
HETATM    8  N   UNL     1      28.878  43.884  53.280  1.00  0.00    -0.370 N 
HETATM    9  H   UNL     1      29.276  44.259  52.428  1.00  0.00     0.161 HD
BRANCH   8  10
HETATM   10  C   UNL     1      28.834  44.721  54.378  1.00  0.00     0.139 A 
HETATM   11  N   UNL     1      27.982  45.708  54.390  1.00  0.00    -0.202 NA
HETATM   12  C   UNL     1      27.916  46.585  55.440  1.00  0.00     0.200 A 
HETATM   13  S   UNL     1      26.827  47.863  55.500  1.00  0.00    -0.039 SA
HETATM   14  N   UNL     1      28.776  46.442  56.496  1.00  0.00    -0.331 N 
HETATM   15  C   UNL     1      29.700  45.404  56.566  1.00  0.00     0.048 A 
HETATM   16  H   UNL     1      28.693  47.115  57.246  1.00  0.00     0.168 HD
HETATM   17  C   UNL     1      29.763  44.486  55.520  1.00  0.00     0.036 A 
HETATM   18  C   UNL     1      30.535  45.281  57.676  1.00  0.00     0.030 A 
HETATM   19  C   UNL     1      30.656  43.411  55.593  1.00  0.00     0.017 A 
HETATM   20  C   UNL     1      31.493  43.283  56.705  1.00  0.00     0.001 A 
HETATM   21  C   UNL     1      31.436  44.219  57.741  1.00  0.00     0.002 A 
ENDBRANCH   8  10
ENDBRANCH   7   8
ENDBRANCH   4   7
BRANCH   1  22
HETATM   22  C   UNL     1      24.063  45.081  49.179  1.00  0.00     0.251 C 
HETATM   23  N   UNL     1      23.469  46.271  49.538  1.00  0.00    -0.353 N 
HETATM   24  H   UNL     1      23.801  46.778  50.346  1.00  0.00     0.163 HD
HETATM   25  O   UNL     1      23.848  44.503  48.121  1.00  0.00    -0.268 OA
BRANCH  23  26
HETATM   26  C   UNL     1      22.518  46.942  48.675  1.00  0.00     0.163 C 
BRANCH  26  27
HETATM   27  C   UNL     1      22.619  48.454  48.676  1.00  0.00    -0.019 A 
HETATM   28  C   UNL     1      23.788  49.123  48.273  1.00  0.00     0.010 A 
HETATM   29  C   UNL     1      23.854  50.520  48.258  1.00  0.00     0.001 A 
HETATM   30  C   UNL     1      22.748  51.277  48.634  1.00  0.00     0.002 A 
HETATM   31  C   UNL     1      21.574  50.636  49.022  1.00  0.00     0.024 A 
HETATM   32  C   UNL     1      21.507  49.238  49.039  1.00  0.00     0.042 A 
HETATM   33 CL   UNL     1      20.005  48.524  49.517  1.00  0.00    -0.084 Cl
ENDBRANCH  26  27
ENDBRANCH  23  26
ENDBRANCH   1  22
TORSDOF 6
ENDMDL
MODEL 2
REMARK VINA RESULT:     -10.1      3.937      9.235
REMARK  6 active torsions:
REMARK  status: ('A' for Active; 'I' for Inactive)
REMARK    1  A    between atoms: C_3  and  C_4 
REMARK    2  A    between atoms: C_4  and  N_5 
REMARK       I    between atoms: N_5  and  C_6 
REMARK    3  A    between atoms: C_6  and  C_7 
REMARK    4  A    between atoms: C_10  and  C_11 
REMARK    5  A    between atoms: C_11  and  N_12 
REMARK    6  A    between atoms: N_12  and  C_13 
ROOT
HETATM    1  C   UNL     1      27.449  43.950  51.880  1.00  0.00     0.032 A 
HETATM    2  C   UNL     1      27.336  43.695  50.508  1.00  0.00     0.017 A 
HETATM    3  C   UNL     1      26.232  44.175  49.798  1.00  0.00     0.010 A 
HETATM    4  C   UNL     1      25.233  44.918  50.447  1.00  0.00    -0.041 A 
HETATM    5  C   UNL     1      25.340  45.145  51.826  1.00  0.00     0.010 A 
HETATM    6  C   UNL     1      26.440  44.662  52.538  1.00  0.00     0.017 A 
ENDROOT
BRANCH   4   7
HETATM    7  C   UNL     1      24.039  45.428  49.673  1.00  0.00     0.160 C 
BRANCH   7   8
HETATM    8  N   UNL     1      23.604  46.694  50.235  1.00  0.00    -0.370 N 
HETATM    9  H   UNL     1      23.787  46.772  51.228  1.00  0.00     0.161 HD
BRANCH   8  10
HETATM   10  C   UNL     1      23.654  47.857  49.491  1.00  0.00     0.139 A 
HETATM   11  N   UNL     1      22.544  48.364  49.031  1.00  0.00    -0.202 NA
HETATM   12  C   UNL     1      22.537  49.498  48.265  1.00  0.00     0.200 A 
HETATM   13  S   UNL     1      21.131  50.189  47.661  1.00  0.00    -0.039 SA
HETATM   14  N   UNL     1      23.722  50.109  47.951  1.00  0.00    -0.331 N 
HETATM   15  C   UNL     1      24.946  49.641  48.419  1.00  0.00     0.048 A 
HETATM   16  H   UNL     1      23.669  50.941  47.378  1.00  0.00     0.168 HD
HETATM   17  C   UNL     1      24.970  48.504  49.223  1.00  0.00     0.036 A 
HETATM   18  C   UNL     1      26.124  50.314  48.097  1.00  0.00     0.030 A 
HETATM   19  C   UNL     1      26.186  48.044  49.738  1.00  0.00     0.017 A 
HETATM   20  C   UNL     1      27.370  48.717  49.420  1.00  0.00     0.001 A 
HETATM   21  C   UNL     1      27.338  49.845  48.598  1.00  0.00     0.002 A 
ENDBRANCH   8  10
ENDBRANCH   7   8
ENDBRANCH   4   7
BRANCH   1  22
HETATM   22  C   UNL     1      28.602  43.457  52.681  1.00  0.00     0.251 C 
HETATM   23  N   UNL     1      28.900  44.167  53.823  1.00  0.00    -0.353 N 
HETATM   24  H   UNL     1      28.274  44.892  54.145  1.00  0.00     0.163 HD
HETATM   25  O   UNL     1      29.203  42.450  52.327  1.00  0.00    -0.268 OA
BRANCH  23  26
HETATM   26  C   UNL     1      29.975  43.771  54.711  1.00  0.00     0.163 C 
BRANCH  26  27
HETATM   27  C   UNL     1      30.042  44.548  56.009  1.00  0.00    -0.019 A 
HETATM   28  C   UNL     1      29.129  45.575  56.311  1.00  0.00     0.010 A 
HETATM   29  C   UNL     1      29.192  46.266  57.526  1.00  0.00     0.001 A 
HETATM   30  C   UNL     1      30.159  45.935  58.469  1.00  0.00     0.002 A 
HETATM   31  C   UNL     1      31.063  44.911  58.200  1.00  0.00     0.024 A 
HETATM   32  C   UNL     1      31.004  44.220  56.984  1.00  0.00     0.042 A 
HETATM   33 CL   UNL     1      32.152  42.950  56.737  1.00  0.00    -0.084 Cl
ENDBRANCH  26  27
ENDBRANCH  23  26
ENDBRANCH   1  22
TORSDOF 6
ENDMDL
MODEL 3
REMARK VINA RESULT:     -10.1      1.874      2.749
REMARK  6 active torsions:
REMARK  status: ('A' for Active; 'I' for Inactive)
REMARK    1  A    between atoms: C_3  and  C_4 
REMARK    2  A    between atoms: C_4  and  N_5 
REMARK       I    between atoms: N_5  and  C_6 
REMARK    3  A    between atoms: C_6  and  C_7 
REMARK    4  A    between atoms: C_10  and  C_11 
REMARK    5  A    between atoms: C_11  and  N_12 
REMARK    6  A    between atoms: N_12  and  C_13 
ROOT
HETATM    1  C   UNL     1      23.488  46.756  49.202  1.00  0.00     0.032 A 
HETATM    2  C   UNL     1      24.360  47.578  49.926  1.00  0.00     0.017 A 
HETATM    3  C   UNL     1      25.457  47.018  50.587  1.00  0.00     0.010 A 
HETATM    4  C   UNL     1      25.699  45.637  50.529  1.00  0.00    -0.041 A 
HETATM    5  C   UNL     1      24.806  44.818  49.825  1.00  0.00     0.010 A 
HETATM    6  C   UNL     1      23.706  45.374  49.168  1.00  0.00     0.017 A 
ENDROOT
BRANCH   4   7
HETATM    7  C   UNL     1      26.884  45.039  51.252  1.00  0.00     0.160 C 
BRANCH   7   8
HETATM    8  N   UNL     1      26.506  44.718  52.617  1.00  0.00    -0.370 N 
HETATM    9  H   UNL     1      26.263  43.744  52.743  1.00  0.00     0.161 HD
BRANCH   8  10
HETATM   10  C   UNL     1      27.090  45.367  53.688  1.00  0.00     0.139 A 
HETATM   11  N   UNL     1      26.559  46.474  54.126  1.00  0.00    -0.202 NA
HETATM   12  C   UNL     1      27.112  47.173  55.165  1.00  0.00     0.200 A 
HETATM   13  S   UNL     1      26.456  48.597  55.766  1.00  0.00    -0.039 SA
HETATM   14  N   UNL     1      28.263  46.716  55.751  1.00  0.00    -0.331 N 
HETATM   15  C   UNL     1      28.879  45.533  55.353  1.00  0.00     0.048 A 
HETATM   16  H   UNL     1      28.638  47.266  56.511  1.00  0.00     0.168 HD
HETATM   17  C   UNL     1      28.315  44.794  54.315  1.00  0.00     0.036 A 
HETATM   18  C   UNL     1      30.033  45.092  55.999  1.00  0.00     0.030 A 
HETATM   19  C   UNL     1      28.896  43.581  53.932  1.00  0.00     0.017 A 
HETATM   20  C   UNL     1      30.053  43.134  54.578  1.00  0.00     0.001 A 
HETATM   21  C   UNL     1      30.622  43.890  55.605  1.00  0.00     0.002 A 
ENDBRANCH   8  10
ENDBRANCH   7   8
ENDBRANCH   4   7
BRANCH   1  22
HETATM   22  C   UNL     1      22.305  47.302  48.484  1.00  0.00     0.251 C 
HETATM   23  N   UNL     1      21.103  47.242  49.155  1.00  0.00    -0.353 N 
HETATM   24  H   UNL     1      21.079  46.962  50.125  1.00  0.00     0.163 HD
HETATM   25  O   UNL     1      22.443  47.803  47.375  1.00  0.00    -0.268 OA
BRANCH  23  26
HETATM   26  C   UNL     1      19.881  47.773  48.583  1.00  0.00     0.163 C 
BRANCH  26  27
HETATM   27  C   UNL     1      19.676  49.258  48.797  1.00  0.00    -0.019 A 
HETATM   28  C   UNL     1      20.003  50.205  47.810  1.00  0.00     0.010 A 
HETATM   29  C   UNL     1      19.784  51.571  48.016  1.00  0.00     0.001 A 
HETATM   30  C   UNL     1      19.222  52.017  49.208  1.00  0.00     0.002 A 
HETATM   31  C   UNL     1      18.875  51.097  50.194  1.00  0.00     0.024 A 
HETATM   32  C   UNL     1      19.096  49.730  49.990  1.00  0.00     0.042 A 
HETATM   33 CL   UNL     1      18.620  48.653  51.258  1.00  0.00    -0.084 Cl
ENDBRANCH  26  27
ENDBRANCH  23  26
ENDBRANCH   1  22
TORSDOF 6
ENDMDL
MODEL 4
REMARK VINA RESULT:      -9.8      2.987      4.298
REMARK  6 active torsions:
REMARK  status: ('A' for Active; 'I' for Inactive)
REMARK    1  A    between atoms: C_3  and  C_4 
REMARK    2  A    between atoms: C_4  and  N_5 
REMARK       I    between atoms: N_5  and  C_6 
REMARK    3  A    between atoms: C_6  and  C_7 
REMARK    4  A    between atoms: C_10  and  C_11 
REMARK    5  A    between atoms: C_11  and  N_12 
REMARK    6  A    between atoms: N_12  and  C_13 
ROOT
HETATM    1  C   UNL     1      24.056  47.269  49.639  1.00  0.00     0.032 A 
HETATM    2  C   UNL     1      23.428  46.149  49.082  1.00  0.00     0.017 A 
HETATM    3  C   UNL     1      23.617  44.887  49.655  1.00  0.00     0.010 A 
HETATM    4  C   UNL     1      24.428  44.731  50.790  1.00  0.00    -0.041 A 
HETATM    5  C   UNL     1      25.075  45.854  51.325  1.00  0.00     0.010 A 
HETATM    6  C   UNL     1      24.892  47.114  50.751  1.00  0.00     0.017 A 
ENDROOT
BRANCH   4   7
HETATM    7  C   UNL     1      24.632  43.363  51.398  1.00  0.00     0.160 C 
BRANCH   7   8
HETATM    8  N   UNL     1      25.676  43.433  52.405  1.00  0.00    -0.370 N 
HETATM    9  H   UNL     1      25.314  43.498  53.348  1.00  0.00     0.161 HD
BRANCH   8  10
HETATM   10  C   UNL     1      26.875  42.769  52.233  1.00  0.00     0.139 A 
HETATM   11  N   UNL     1      26.969  41.857  51.307  1.00  0.00    -0.202 NA
HETATM   12  C   UNL     1      28.124  41.148  51.112  1.00  0.00     0.200 A 
HETATM   13  S   UNL     1      28.289  39.972  49.924  1.00  0.00    -0.039 SA
HETATM   14  N   UNL     1      29.205  41.381  51.919  1.00  0.00    -0.331 N 
HETATM   15  C   UNL     1      29.190  42.351  52.917  1.00  0.00     0.048 A 
HETATM   16  H   UNL     1      30.034  40.831  51.742  1.00  0.00     0.168 HD
HETATM   17  C   UNL     1      28.033  43.101  53.112  1.00  0.00     0.036 A 
HETATM   18  C   UNL     1      30.326  42.574  53.695  1.00  0.00     0.030 A 
HETATM   19  C   UNL     1      28.015  44.110  54.081  1.00  0.00     0.017 A 
HETATM   20  C   UNL     1      29.152  44.338  54.862  1.00  0.00     0.001 A 
HETATM   21  C   UNL     1      30.302  43.569  54.672  1.00  0.00     0.002 A 
ENDBRANCH   8  10
ENDBRANCH   7   8
ENDBRANCH   4   7
BRANCH   1  22
HETATM   22  C   UNL     1      23.890  48.631  49.065  1.00  0.00     0.251 C 
HETATM   23  N   UNL     1      22.712  48.871  48.393  1.00  0.00    -0.353 N 
HETATM   24  H   UNL     1      21.968  48.189  48.419  1.00  0.00     0.163 HD
HETATM   25  O   UNL     1      24.762  49.475  49.237  1.00  0.00    -0.268 OA
BRANCH  23  26
HETATM   26  C   UNL     1      22.410  50.167  47.819  1.00  0.00     0.163 C 
BRANCH  26  27
HETATM   27  C   UNL     1      21.007  50.669  48.093  1.00  0.00    -0.019 A 
HETATM   28  C   UNL     1      20.002  50.648  47.110  1.00  0.00     0.010 A 
HETATM   29  C   UNL     1      18.706  51.093  47.388  1.00  0.00     0.001 A 
HETATM   30  C   UNL     1      18.384  51.556  48.660  1.00  0.00     0.002 A 
HETATM   31  C   UNL     1      19.358  51.571  49.656  1.00  0.00     0.024 A 
HETATM   32  C   UNL     1      20.656  51.129  49.377  1.00  0.00     0.042 A 
HETATM   33 CL   UNL     1      21.801  51.164  50.675  1.00  0.00    -0.084 Cl
ENDBRANCH  26  27
ENDBRANCH  23  26
ENDBRANCH   1  22
TORSDOF 6
ENDMDL
MODEL 5
REMARK VINA RESULT:      -9.7      1.501      2.158
REMARK  6 active torsions:
REMARK  status: ('A' for Active; 'I' for Inactive)
REMARK    1  A    between atoms: C_3  and  C_4 
REMARK    2  A    between atoms: C_4  and  N_5 
REMARK       I    between atoms: N_5  and  C_6 
REMARK    3  A    between atoms: C_6  and  C_7 
REMARK    4  A    between atoms: C_10  and  C_11 
REMARK    5  A    between atoms: C_11  and  N_12 
REMARK    6  A    between atoms: N_12  and  C_13 
ROOT
HETATM    1  C   UNL     1      23.867  45.163  49.598  1.00  0.00     0.032 A 
HETATM    2  C   UNL     1      23.807  44.007  50.386  1.00  0.00     0.017 A 
HETATM    3  C   UNL     1      24.931  43.594  51.107  1.00  0.00     0.010 A 
HETATM    4  C   UNL     1      26.125  44.332  51.055  1.00  0.00    -0.041 A 
HETATM    5  C   UNL     1      26.185  45.474  50.243  1.00  0.00     0.010 A 
HETATM    6  C   UNL     1      25.064  45.884  49.517  1.00  0.00     0.017 A 
ENDROOT
BRANCH   4   7
HETATM    7  C   UNL     1      27.337  43.876  51.832  1.00  0.00     0.160 C 
BRANCH   7   8
HETATM    8  N   UNL     1      27.012  43.820  53.246  1.00  0.00    -0.370 N 
HETATM    9  H   UNL     1      26.905  42.874  53.592  1.00  0.00     0.161 HD
BRANCH   8  10
HETATM   10  C   UNL     1      27.507  44.762  54.127  1.00  0.00     0.139 A 
HETATM   11  N   UNL     1      26.847  45.872  54.306  1.00  0.00    -0.202 NA
HETATM   12  C   UNL     1      27.305  46.851  55.146  1.00  0.00     0.200 A 
HETATM   13  S   UNL     1      26.482  48.291  55.412  1.00  0.00    -0.039 SA
HETATM   14  N   UNL     1      28.496  46.678  55.800  1.00  0.00    -0.331 N 
HETATM   15  C   UNL     1      29.249  45.515  55.677  1.00  0.00     0.048 A 
HETATM   16  H   UNL     1      28.797  47.430  56.406  1.00  0.00     0.168 HD
HETATM   17  C   UNL     1      28.785  44.496  54.848  1.00  0.00     0.036 A 
HETATM   18  C   UNL     1      30.440  45.371  56.386  1.00  0.00     0.030 A 
HETATM   19  C   UNL     1      29.506  43.302  54.746  1.00  0.00     0.017 A 
HETATM   20  C   UNL     1      30.700  43.153  55.457  1.00  0.00     0.001 A 
HETATM   21  C   UNL     1      31.168  44.187  56.271  1.00  0.00     0.002 A 
ENDBRANCH   8  10
ENDBRANCH   7   8
ENDBRANCH   4   7
BRANCH   1  22
HETATM   22  C   UNL     1      22.700  45.641  48.810  1.00  0.00     0.251 C 
HETATM   23  N   UNL     1      22.279  46.928  49.062  1.00  0.00    -0.353 N 
HETATM   24  H   UNL     1      22.831  47.533  49.653  1.00  0.00     0.163 HD
HETATM   25  O   UNL     1      22.195  44.910  47.966  1.00  0.00    -0.268 OA
BRANCH  23  26
HETATM   26  C   UNL     1      21.177  47.528  48.336  1.00  0.00     0.163 C 
BRANCH  26  27
HETATM   27  C   UNL     1      20.648  48.813  48.939  1.00  0.00    -0.019 A 
HETATM   28  C   UNL     1      19.579  48.822  49.853  1.00  0.00     0.010 A 
HETATM   29  C   UNL     1      19.119  50.016  50.417  1.00  0.00     0.001 A 
HETATM   30  C   UNL     1      19.727  51.224  50.090  1.00  0.00     0.002 A 
HETATM   31  C   UNL     1      20.797  51.238  49.199  1.00  0.00     0.024 A 
HETATM   32  C   UNL     1      21.257  50.044  48.632  1.00  0.00     0.042 A 
HETATM   33 CL   UNL     1      22.603  50.149  47.549  1.00  0.00    -0.084 Cl
ENDBRANCH  26  27
ENDBRANCH  23  26
ENDBRANCH   1  22
TORSDOF 6
ENDMDL
MODEL 6
REMARK VINA RESULT:      -9.7      3.961     10.665
REMARK  6 active torsions:
REMARK  status: ('A' for Active; 'I' for Inactive)
REMARK    1  A    between atoms: C_3  and  C_4 
REMARK    2  A    between atoms: C_4  and  N_5 
REMARK       I    between atoms: N_5  and  C_6 
REMARK    3  A    between atoms: C_6  and  C_7 
REMARK    4  A    between atoms: C_10  and  C_11 
REMARK    5  A    between atoms: C_11  and  N_12 
REMARK    6  A    between atoms: N_12  and  C_13 
ROOT
HETATM    1  C   UNL     1      25.875  45.975  50.250  1.00  0.00     0.032 A 
HETATM    2  C   UNL     1      26.286  47.301  50.072  1.00  0.00     0.017 A 
HETATM    3  C   UNL     1      25.380  48.255  49.599  1.00  0.00     0.010 A 
HETATM    4  C   UNL     1      24.055  47.898  49.303  1.00  0.00    -0.041 A 
HETATM    5  C   UNL     1      23.659  46.562  49.457  1.00  0.00     0.010 A 
HETATM    6  C   UNL     1      24.565  45.607  49.925  1.00  0.00     0.017 A 
ENDROOT
BRANCH   4   7
HETATM    7  C   UNL     1      23.085  48.933  48.785  1.00  0.00     0.160 C 
BRANCH   7   8
HETATM    8  N   UNL     1      21.885  48.923  49.603  1.00  0.00    -0.370 N 
HETATM    9  H   UNL     1      21.951  49.528  50.412  1.00  0.00     0.161 HD
BRANCH   8  10
HETATM   10  C   UNL     1      20.637  48.766  49.033  1.00  0.00     0.139 A 
HETATM   11  N   UNL     1      20.177  47.563  48.833  1.00  0.00    -0.202 NA
HETATM   12  C   UNL     1      18.959  47.348  48.246  1.00  0.00     0.200 A 
HETATM   13  S   UNL     1      18.326  45.816  47.979  1.00  0.00    -0.039 SA
HETATM   14  N   UNL     1      18.208  48.418  47.836  1.00  0.00    -0.331 N 
HETATM   15  C   UNL     1      18.621  49.733  48.031  1.00  0.00     0.048 A 
HETATM   16  H   UNL     1      17.318  48.212  47.403  1.00  0.00     0.168 HD
HETATM   17  C   UNL     1      19.845  49.971  48.651  1.00  0.00     0.036 A 
HETATM   18  C   UNL     1      17.809  50.790  47.623  1.00  0.00     0.030 A 
HETATM   19  C   UNL     1      20.255  51.285  48.895  1.00  0.00     0.017 A 
HETATM   20  C   UNL     1      19.444  52.349  48.490  1.00  0.00     0.001 A 
HETATM   21  C   UNL     1      18.226  52.101  47.852  1.00  0.00     0.002 A 
ENDBRANCH   8  10
ENDBRANCH   7   8
ENDBRANCH   4   7
BRANCH   1  22
HETATM   22  C   UNL     1      26.801  44.923  50.748  1.00  0.00     0.251 C 
HETATM   23  N   UNL     1      26.867  44.764  52.114  1.00  0.00    -0.353 N 
HETATM   24  H   UNL     1      26.215  45.253  52.712  1.00  0.00     0.163 HD
HETATM   25  O   UNL     1      27.424  44.233  49.949  1.00  0.00    -0.268 OA
BRANCH  23  26
HETATM   26  C   UNL     1      27.701  43.750  52.727  1.00  0.00     0.163 C 
BRANCH  26  27
HETATM   27  C   UNL     1      28.514  44.230  53.911  1.00  0.00    -0.019 A 
HETATM   28  C   UNL     1      28.047  45.234  54.778  1.00  0.00     0.010 A 
HETATM   29  C   UNL     1      28.801  45.648  55.881  1.00  0.00     0.001 A 
HETATM   30  C   UNL     1      30.032  45.056  56.148  1.00  0.00     0.002 A 
HETATM   31  C   UNL     1      30.508  44.048  55.313  1.00  0.00     0.024 A 
HETATM   32  C   UNL     1      29.756  43.635  54.208  1.00  0.00     0.042 A 
HETATM   33 CL   UNL     1      30.412  42.365  53.234  1.00  0.00    -0.084 Cl
ENDBRANCH  26  27
ENDBRANCH  23  26
ENDBRANCH   1  22
TORSDOF 6
ENDMDL
MODEL 7
REMARK VINA RESULT:      -9.5      2.144      2.945
REMARK  6 active torsions:
REMARK  status: ('A' for Active; 'I' for Inactive)
REMARK    1  A    between atoms: C_3  and  C_4 
REMARK    2  A    between atoms: C_4  and  N_5 
REMARK       I    between atoms: N_5  and  C_6 
REMARK    3  A    between atoms: C_6  and  C_7 
REMARK    4  A    between atoms: C_10  and  C_11 
REMARK    5  A    between atoms: C_11  and  N_12 
REMARK    6  A    between atoms: N_12  and  C_13 
ROOT
HETATM    1  C   UNL     1      24.700  46.101  51.065  1.00  0.00     0.032 A 
HETATM    2  C   UNL     1      24.677  44.938  51.844  1.00  0.00     0.017 A 
HETATM    3  C   UNL     1      25.275  44.933  53.107  1.00  0.00     0.010 A 
HETATM    4  C   UNL     1      25.898  46.087  53.609  1.00  0.00    -0.041 A 
HETATM    5  C   UNL     1      25.941  47.239  52.811  1.00  0.00     0.010 A 
HETATM    6  C   UNL     1      25.348  47.245  51.546  1.00  0.00     0.017 A 
ENDROOT
BRANCH   4   7
HETATM    7  C   UNL     1      26.548  46.071  54.972  1.00  0.00     0.160 C 
BRANCH   7   8
HETATM    8  N   UNL     1      27.982  46.245  54.826  1.00  0.00    -0.370 N 
HETATM    9  H   UNL     1      28.317  47.120  55.209  1.00  0.00     0.161 HD
BRANCH   8  10
HETATM   10  C   UNL     1      28.839  45.163  54.882  1.00  0.00     0.139 A 
HETATM   11  N   UNL     1      28.826  44.291  53.912  1.00  0.00    -0.202 NA
HETATM   12  C   UNL     1      29.633  43.186  53.930  1.00  0.00     0.200 A 
HETATM   13  S   UNL     1      29.654  42.045  52.698  1.00  0.00    -0.039 SA
HETATM   14  N   UNL     1      30.462  42.971  54.999  1.00  0.00    -0.331 N 
HETATM   15  C   UNL     1      30.548  43.864  56.062  1.00  0.00     0.048 A 
HETATM   16  H   UNL     1      31.037  42.140  54.971  1.00  0.00     0.168 HD
HETATM   17  C   UNL     1      29.755  45.008  56.049  1.00  0.00     0.036 A 
HETATM   18  C   UNL     1      31.430  43.618  57.115  1.00  0.00     0.030 A 
HETATM   19  C   UNL     1      29.860  45.938  57.088  1.00  0.00     0.017 A 
HETATM   20  C   UNL     1      30.743  45.697  58.144  1.00  0.00     0.001 A 
HETATM   21  C   UNL     1      31.522  44.538  58.159  1.00  0.00     0.002 A 
ENDBRANCH   8  10
ENDBRANCH   7   8
ENDBRANCH   4   7
BRANCH   1  22
HETATM   22  C   UNL     1      24.081  46.157  49.713  1.00  0.00     0.251 C 
HETATM   23  N   UNL     1      23.246  47.225  49.468  1.00  0.00    -0.353 N 
HETATM   24  H   UNL     1      23.182  47.980  50.136  1.00  0.00     0.163 HD
HETATM   25  O   UNL     1      24.356  45.300  48.882  1.00  0.00    -0.268 OA
BRANCH  23  26
HETATM   26  C   UNL     1      22.610  47.417  48.180  1.00  0.00     0.163 C 
BRANCH  26  27
HETATM   27  C   UNL     1      21.686  48.615  48.104  1.00  0.00    -0.019 A 
HETATM   28  C   UNL     1      20.286  48.479  48.111  1.00  0.00     0.010 A 
HETATM   29  C   UNL     1      19.449  49.598  48.064  1.00  0.00     0.001 A 
HETATM   30  C   UNL     1      19.994  50.877  48.022  1.00  0.00     0.002 A 
HETATM   31  C   UNL     1      21.377  51.038  48.030  1.00  0.00     0.024 A 
HETATM   32  C   UNL     1      22.216  49.919  48.075  1.00  0.00     0.042 A 
HETATM   33 CL   UNL     1      23.922  50.209  48.099  1.00  0.00    -0.084 Cl
ENDBRANCH  26  27
ENDBRANCH  23  26
ENDBRANCH   1  22
TORSDOF 6
ENDMDL
MODEL 8
REMARK VINA RESULT:      -9.4      3.930     10.289
REMARK  6 active torsions:
REMARK  status: ('A' for Active; 'I' for Inactive)
REMARK    1  A    between atoms: C_3  and  C_4 
REMARK    2  A    between atoms: C_4  and  N_5 
REMARK       I    between atoms: N_5  and  C_6 
REMARK    3  A    between atoms: C_6  and  C_7 
REMARK    4  A    between atoms: C_10  and  C_11 
REMARK    5  A    between atoms: C_11  and  N_12 
REMARK    6  A    between atoms: N_12  and  C_13 
ROOT
HETATM    1  C   UNL     1      25.192  46.368  51.694  1.00  0.00     0.032 A 
HETATM    2  C   UNL     1      24.895  47.412  50.810  1.00  0.00     0.017 A 
HETATM    3  C   UNL     1      24.100  47.170  49.686  1.00  0.00     0.010 A 
HETATM    4  C   UNL     1      23.589  45.887  49.434  1.00  0.00    -0.041 A 
HETATM    5  C   UNL     1      23.914  44.841  50.309  1.00  0.00     0.010 A 
HETATM    6  C   UNL     1      24.712  45.080  51.430  1.00  0.00     0.017 A 
ENDROOT
BRANCH   4   7
HETATM    7  C   UNL     1      22.736  45.632  48.213  1.00  0.00     0.160 C 
BRANCH   7   8
HETATM    8  N   UNL     1      22.340  46.900  47.627  1.00  0.00    -0.370 N 
HETATM    9  H   UNL     1      22.769  47.072  46.726  1.00  0.00     0.161 HD
BRANCH   8  10
HETATM   10  C   UNL     1      21.074  47.414  47.832  1.00  0.00     0.139 A 
HETATM   11  N   UNL     1      20.049  46.609  47.799  1.00  0.00    -0.202 NA
HETATM   12  C   UNL     1      18.770  47.068  47.967  1.00  0.00     0.200 A 
HETATM   13  S   UNL     1      17.424  46.065  47.940  1.00  0.00    -0.039 SA
HETATM   14  N   UNL     1      18.552  48.407  48.153  1.00  0.00    -0.331 N 
HETATM   15  C   UNL     1      19.594  49.327  48.220  1.00  0.00     0.048 A 
HETATM   16  H   UNL     1      17.591  48.701  48.268  1.00  0.00     0.168 HD
HETATM   17  C   UNL     1      20.904  48.874  48.079  1.00  0.00     0.036 A 
HETATM   18  C   UNL     1      19.324  50.677  48.442  1.00  0.00     0.030 A 
HETATM   19  C   UNL     1      21.965  49.778  48.187  1.00  0.00     0.017 A 
HETATM   20  C   UNL     1      21.700  51.132  48.411  1.00  0.00     0.001 A 
HETATM   21  C   UNL     1      20.383  51.580  48.533  1.00  0.00     0.002 A 
ENDBRANCH   8  10
ENDBRANCH   7   8
ENDBRANCH   4   7
BRANCH   1  22
HETATM   22  C   UNL     1      26.036  46.574  52.901  1.00  0.00     0.251 C 
HETATM   23  N   UNL     1      26.195  45.483  53.727  1.00  0.00    -0.353 N 
HETATM   24  H   UNL     1      25.858  44.576  53.437  1.00  0.00     0.163 HD
HETATM   25  O   UNL     1      26.573  47.659  53.091  1.00  0.00    -0.268 OA
BRANCH  23  26
HETATM   26  C   UNL     1      27.022  45.539  54.916  1.00  0.00     0.163 C 
BRANCH  26  27
HETATM   27  C   UNL     1      28.293  44.718  54.842  1.00  0.00    -0.019 A 
HETATM   28  C   UNL     1      28.507  43.766  53.829  1.00  0.00     0.010 A 
HETATM   29  C   UNL     1      29.697  43.034  53.763  1.00  0.00     0.001 A 
HETATM   30  C   UNL     1      30.703  43.249  54.698  1.00  0.00     0.002 A 
HETATM   31  C   UNL     1      30.522  44.199  55.700  1.00  0.00     0.024 A 
HETATM   32  C   UNL     1      29.330  44.930  55.770  1.00  0.00     0.042 A 
HETATM   33 CL   UNL     1      29.194  46.103  57.035  1.00  0.00    -0.084 Cl
ENDBRANCH  26  27
ENDBRANCH  23  26
ENDBRANCH   1  22
TORSDOF 6
ENDMDL
MODEL 9
REMARK VINA RESULT:      -9.3      2.968      4.920
REMARK  6 active torsions:
REMARK  status: ('A' for Active; 'I' for Inactive)
REMARK    1  A    between atoms: C_3  and  C_4 
REMARK    2  A    between atoms: C_4  and  N_5 
REMARK       I    between atoms: N_5  and  C_6 
REMARK    3  A    between atoms: C_6  and  C_7 
REMARK    4  A    between atoms: C_10  and  C_11 
REMARK    5  A    between atoms: C_11  and  N_12 
REMARK    6  A    between atoms: N_12  and  C_13 
ROOT
HETATM    1  C   UNL     1      23.144  48.325  48.700  1.00  0.00     0.032 A 
HETATM    2  C   UNL     1      22.490  47.116  48.432  1.00  0.00     0.017 A 
HETATM    3  C   UNL     1      23.002  45.919  48.941  1.00  0.00     0.010 A 
HETATM    4  C   UNL     1      24.167  45.914  49.725  1.00  0.00    -0.041 A 
HETATM    5  C   UNL     1      24.831  47.126  49.965  1.00  0.00     0.010 A 
HETATM    6  C   UNL     1      24.323  48.323  49.453  1.00  0.00     0.017 A 
ENDROOT
BRANCH   4   7
HETATM    7  C   UNL     1      24.717  44.615  50.265  1.00  0.00     0.160 C 
BRANCH   7   8
HETATM    8  N   UNL     1      24.728  44.661  51.716  1.00  0.00    -0.370 N 
HETATM    9  H   UNL     1      23.854  44.360  52.129  1.00  0.00     0.161 HD
BRANCH   8  10
HETATM   10  C   UNL     1      25.884  44.403  52.427  1.00  0.00     0.139 A 
HETATM   11  N   UNL     1      26.474  43.249  52.282  1.00  0.00    -0.202 NA
HETATM   12  C   UNL     1      27.605  42.929  52.984  1.00  0.00     0.200 A 
HETATM   13  S   UNL     1      28.401  41.459  52.821  1.00  0.00    -0.039 SA
HETATM   14  N   UNL     1      28.124  43.829  53.877  1.00  0.00    -0.331 N 
HETATM   15  C   UNL     1      27.564  45.087  54.073  1.00  0.00     0.048 A 
HETATM   16  H   UNL     1      28.957  43.548  54.375  1.00  0.00     0.168 HD
HETATM   17  C   UNL     1      26.428  45.441  53.348  1.00  0.00     0.036 A 
HETATM   18  C   UNL     1      28.145  45.981  54.972  1.00  0.00     0.030 A 
HETATM   19  C   UNL     1      25.877  46.717  53.501  1.00  0.00     0.017 A 
HETATM   20  C   UNL     1      26.458  47.618  54.399  1.00  0.00     0.001 A 
HETATM   21  C   UNL     1      27.585  47.248  55.135  1.00  0.00     0.002 A 
ENDBRANCH   8  10
ENDBRANCH   7   8
ENDBRANCH   4   7
BRANCH   1  22
HETATM   22  C   UNL     1      22.641  49.624  48.179  1.00  0.00     0.251 C 
HETATM   23  N   UNL     1      21.503  50.122  48.775  1.00  0.00    -0.353 N 
HETATM   24  H   UNL     1      21.130  49.677  49.602  1.00  0.00     0.163 HD
HETATM   25  O   UNL     1      23.258  50.205  47.294  1.00  0.00    -0.268 OA
BRANCH  23  26
HETATM   26  C   UNL     1      20.932  51.396  48.387  1.00  0.00     0.163 C 
BRANCH  26  27
HETATM   27  C   UNL     1      19.430  51.494  48.558  1.00  0.00    -0.019 A 
HETATM   28  C   UNL     1      18.846  52.044  49.713  1.00  0.00     0.010 A 
HETATM   29  C   UNL     1      17.457  52.148  49.843  1.00  0.00     0.001 A 
HETATM   30  C   UNL     1      16.624  51.717  48.815  1.00  0.00     0.002 A 
HETATM   31  C   UNL     1      17.180  51.184  47.655  1.00  0.00     0.024 A 
HETATM   32  C   UNL     1      18.569  51.076  47.524  1.00  0.00     0.042 A 
HETATM   33 CL   UNL     1      19.177  50.419  46.044  1.00  0.00    -0.084 Cl
ENDBRANCH  26  27
ENDBRANCH  23  26
ENDBRANCH   1  22
TORSDOF 6
ENDMDL
MODEL 10
REMARK VINA RESULT:      -9.2      3.568     10.547
REMARK  6 active torsions:
REMARK  status: ('A' for Active; 'I' for Inactive)
REMARK    1  A    between atoms: C_3  and  C_4 
REMARK    2  A    between atoms: C_4  and  N_5 
REMARK       I    between atoms: N_5  and  C_6 
REMARK    3  A    between atoms: C_6  and  C_7 
REMARK    4  A    between atoms: C_10  and  C_11 
REMARK    5  A    between atoms: C_11  and  N_12 
REMARK    6  A    between atoms: N_12  and  C_13 
ROOT
HETATM    1  C   UNL     1      25.616  45.187  51.068  1.00  0.00     0.032 A 
HETATM    2  C   UNL     1      26.062  46.499  51.270  1.00  0.00     0.017 A 
HETATM    3  C   UNL     1      25.424  47.560  50.622  1.00  0.00     0.010 A 
HETATM    4  C   UNL     1      24.332  47.326  49.771  1.00  0.00    -0.041 A 
HETATM    5  C   UNL     1      23.909  46.007  49.553  1.00  0.00     0.010 A 
HETATM    6  C   UNL     1      24.550  44.945  50.196  1.00  0.00     0.017 A 
ENDROOT
BRANCH   4   7
HETATM    7  C   UNL     1      23.651  48.478  49.069  1.00  0.00     0.160 C 
BRANCH   7   8
HETATM    8  N   UNL     1      22.250  48.513  49.445  1.00  0.00    -0.370 N 
HETATM    9  H   UNL     1      22.079  49.036  50.295  1.00  0.00     0.161 HD
BRANCH   8  10
HETATM   10  C   UNL     1      21.256  48.527  48.485  1.00  0.00     0.139 A 
HETATM   11  N   UNL     1      21.060  47.463  47.758  1.00  0.00    -0.202 NA
HETATM   12  C   UNL     1      20.109  47.431  46.774  1.00  0.00     0.200 A 
HETATM   13  S   UNL     1      19.818  46.079  45.822  1.00  0.00    -0.039 SA
HETATM   14  N   UNL     1      19.355  48.548  46.526  1.00  0.00    -0.331 N 
HETATM   15  C   UNL     1      19.491  49.715  47.271  1.00  0.00     0.048 A 
HETATM   16  H   UNL     1      18.669  48.480  45.787  1.00  0.00     0.168 HD
HETATM   17  C   UNL     1      20.435  49.757  48.294  1.00  0.00     0.036 A 
HETATM   18  C   UNL     1      18.680  50.817  47.001  1.00  0.00     0.030 A 
HETATM   19  C   UNL     1      20.555  50.907  49.081  1.00  0.00     0.017 A 
HETATM   20  C   UNL     1      19.742  52.013  48.816  1.00  0.00     0.001 A 
HETATM   21  C   UNL     1      18.812  51.970  47.776  1.00  0.00     0.002 A 
ENDBRANCH   8  10
ENDBRANCH   7   8
ENDBRANCH   4   7
BRANCH   1  22
HETATM   22  C   UNL     1      26.264  44.024  51.732  1.00  0.00     0.251 C 
HETATM   23  N   UNL     1      27.317  44.310  52.572  1.00  0.00    -0.353 N 
HETATM   24  H   UNL     1      27.529  45.269  52.810  1.00  0.00     0.163 HD
HETATM   25  O   UNL     1      25.828  42.895  51.542  1.00  0.00    -0.268 OA
BRANCH  23  26
HETATM   26  C   UNL     1      28.011  43.272  53.309  1.00  0.00     0.163 C 
BRANCH  26  27
HETATM   27  C   UNL     1      28.951  43.778  54.383  1.00  0.00    -0.019 A 
HETATM   28  C   UNL     1      30.152  43.116  54.695  1.00  0.00     0.010 A 
HETATM   29  C   UNL     1      31.020  43.612  55.674  1.00  0.00     0.001 A 
HETATM   30  C   UNL     1      30.711  44.788  56.350  1.00  0.00     0.002 A 
HETATM   31  C   UNL     1      29.535  45.470  56.047  1.00  0.00     0.024 A 
HETATM   32  C   UNL     1      28.665  44.974  55.070  1.00  0.00     0.042 A 
HETATM   33 CL   UNL     1      27.236  45.892  54.742  1.00  0.00    -0.084 Cl
ENDBRANCH  26  27
ENDBRANCH  23  26
ENDBRANCH   1  22
TORSDOF 6
ENDMDL
