MODEL 1
REMARK VINA RESULT:      -9.2      0.000      0.000
REMARK  2 active torsions:
REMARK  status: ('A' for Active; 'I' for Inactive)
REMARK    1  A    between atoms: C_9  and  N_10 
REMARK    2  A    between atoms: N_10  and  C_11 
ROOT
HETATM    1  C   UNL     1      30.325  42.799  54.306  1.00  0.00     0.050 C 
HETATM    2  C   UNL     1      30.019  43.936  55.231  1.00  0.00    -0.032 A 
HETATM    3  C   UNL     1      28.949  44.912  55.035  1.00  0.00     0.053 A 
HETATM    4  C   UNL     1      28.980  45.873  56.035  1.00  0.00     0.114 A 
HETATM    5  N   UNL     1      28.174  46.938  56.162  1.00  0.00    -0.226 NA
HETATM    6  C   UNL     1      27.272  47.031  55.186  1.00  0.00     0.125 A 
HETATM    7  C   UNL     1      26.324  48.190  55.227  1.00  0.00     0.093 C 
HETATM    8  N   UNL     1      27.125  46.168  54.170  1.00  0.00    -0.215 NA
HETATM    9  C   UNL     1      27.933  45.086  54.058  1.00  0.00     0.143 A 
HETATM   10  S   UNL     1      30.190  45.597  57.192  1.00  0.00    -0.074 SA
HETATM   11  C   UNL     1      30.743  44.198  56.388  1.00  0.00    -0.012 A 
HETATM   12  C   UNL     1      31.900  43.440  56.957  1.00  0.00     0.057 C 
ENDROOT
BRANCH   9  13
HETATM   13  N   UNL     1      27.716  44.157  53.027  1.00  0.00    -0.340 N 
HETATM   14  H   UNL     1      28.165  43.270  53.187  1.00  0.00     0.167 HD
BRANCH  13  15
HETATM   15  C   UNL     1      26.836  44.169  51.930  1.00  0.00     0.036 A 
HETATM   16  C   UNL     1      25.521  43.694  51.987  1.00  0.00     0.069 A 
HETATM   17  C   UNL     1      24.692  43.733  50.863  1.00  0.00     0.104 A 
HETATM   18  C   UNL     1      25.180  44.217  49.647  1.00  0.00     0.102 A 
HETATM   19  O   UNL     1      23.409  43.273  51.024  1.00  0.00    -0.346 OA
HETATM   20  O   UNL     1      24.438  44.251  48.495  1.00  0.00    -0.346 OA
HETATM   21  C   UNL     1      26.479  44.707  49.570  1.00  0.00     0.042 A 
HETATM   22  C   UNL     1      23.270  43.429  48.607  1.00  0.00     0.202 C 
HETATM   23  C   UNL     1      22.570  43.668  49.934  1.00  0.00     0.202 C 
HETATM   24  C   UNL     1      27.297  44.683  50.704  1.00  0.00     0.032 A 
ENDBRANCH  13  15
ENDBRANCH   9  13
TORSDOF 2
ENDMDL
MODEL 2
REMARK VINA RESULT:      -8.5      2.442      2.714
REMARK  2 active torsions:
REMARK  status: ('A' for Active; 'I' for Inactive)
REMARK    1  A    between atoms: C_9  and  N_10 
REMARK    2  A    between atoms: N_10  and  C_11 
ROOT
HETATM    1  C   UNL     1      29.557  42.270  54.461  1.00  0.00     0.050 C 
HETATM    2  C   UNL     1      29.486  43.646  55.047  1.00  0.00    -0.032 A 
HETATM    3  C   UNL     1      28.417  44.611  54.797  1.00  0.00     0.053 A 
HETATM    4  C   UNL     1      28.689  45.812  55.435  1.00  0.00     0.114 A 
HETATM    5  N   UNL     1      27.952  46.932  55.404  1.00  0.00    -0.226 NA
HETATM    6  C   UNL     1      26.856  46.816  54.655  1.00  0.00     0.125 A 
HETATM    7  C   UNL     1      25.962  48.014  54.545  1.00  0.00     0.093 C 
HETATM    8  N   UNL     1      26.469  45.713  53.997  1.00  0.00    -0.215 NA
HETATM    9  C   UNL     1      27.211  44.581  54.047  1.00  0.00     0.143 A 
HETATM   10  S   UNL     1      30.122  45.779  56.343  1.00  0.00    -0.074 SA
HETATM   11  C   UNL     1      30.456  44.167  55.896  1.00  0.00    -0.012 A 
HETATM   12  C   UNL     1      31.696  43.510  56.411  1.00  0.00     0.057 C 
ENDROOT
BRANCH   9  13
HETATM   13  N   UNL     1      26.752  43.417  53.409  1.00  0.00    -0.340 N 
HETATM   14  H   UNL     1      26.061  42.915  53.942  1.00  0.00     0.167 HD
BRANCH  13  15
HETATM   15  C   UNL     1      26.928  42.939  52.098  1.00  0.00     0.036 A 
HETATM   16  C   UNL     1      27.372  41.647  51.799  1.00  0.00     0.069 A 
HETATM   17  C   UNL     1      27.527  41.228  50.475  1.00  0.00     0.104 A 
HETATM   18  C   UNL     1      27.271  42.111  49.424  1.00  0.00     0.102 A 
HETATM   19  O   UNL     1      27.939  39.933  50.281  1.00  0.00    -0.346 OA
HETATM   20  O   UNL     1      27.437  41.781  48.104  1.00  0.00    -0.346 OA
HETATM   21  C   UNL     1      26.815  43.395  49.697  1.00  0.00     0.042 A 
HETATM   22  C   UNL     1      28.215  40.587  47.960  1.00  0.00     0.202 C 
HETATM   23  C   UNL     1      27.736  39.517  48.926  1.00  0.00     0.202 C 
HETATM   24  C   UNL     1      26.645  43.803  51.024  1.00  0.00     0.032 A 
ENDBRANCH  13  15
ENDBRANCH   9  13
TORSDOF 2
ENDMDL
MODEL 3
REMARK VINA RESULT:      -8.5      7.764     11.238
REMARK  2 active torsions:
REMARK  status: ('A' for Active; 'I' for Inactive)
REMARK    1  A    between atoms: C_9  and  N_10 
REMARK    2  A    between atoms: N_10  and  C_11 
ROOT
HETATM    1  C   UNL     1      19.183  51.307  49.875  1.00  0.00     0.050 C 
HETATM    2  C   UNL     1      18.230  50.338  49.247  1.00  0.00    -0.032 A 
HETATM    3  C   UNL     1      18.561  48.968  48.858  1.00  0.00     0.053 A 
HETATM    4  C   UNL     1      17.475  48.363  48.243  1.00  0.00     0.114 A 
HETATM    5  N   UNL     1      17.420  47.126  47.727  1.00  0.00    -0.226 NA
HETATM    6  C   UNL     1      18.568  46.460  47.843  1.00  0.00     0.125 A 
HETATM    7  C   UNL     1      18.620  45.067  47.293  1.00  0.00     0.093 C 
HETATM    8  N   UNL     1      19.687  46.920  48.424  1.00  0.00    -0.215 NA
HETATM    9  C   UNL     1      19.728  48.165  48.956  1.00  0.00     0.143 A 
HETATM   10  S   UNL     1      16.100  49.355  48.183  1.00  0.00    -0.074 SA
HETATM   11  C   UNL     1      16.908  50.648  48.950  1.00  0.00    -0.012 A 
HETATM   12  C   UNL     1      16.170  51.924  49.196  1.00  0.00     0.057 C 
ENDROOT
BRANCH   9  13
HETATM   13  N   UNL     1      20.885  48.601  49.622  1.00  0.00    -0.340 N 
HETATM   14  H   UNL     1      20.844  48.475  50.620  1.00  0.00     0.167 HD
BRANCH  13  15
HETATM   15  C   UNL     1      22.150  48.987  49.142  1.00  0.00     0.036 A 
HETATM   16  C   UNL     1      23.356  48.519  49.675  1.00  0.00     0.069 A 
HETATM   17  C   UNL     1      24.583  48.938  49.155  1.00  0.00     0.104 A 
HETATM   18  C   UNL     1      24.624  49.863  48.110  1.00  0.00     0.102 A 
HETATM   19  O   UNL     1      25.711  48.402  49.724  1.00  0.00    -0.346 OA
HETATM   20  O   UNL     1      25.790  50.347  47.574  1.00  0.00    -0.346 OA
HETATM   21  C   UNL     1      23.438  50.330  47.554  1.00  0.00     0.042 A 
HETATM   22  C   UNL     1      26.907  50.068  48.427  1.00  0.00     0.202 C 
HETATM   23  C   UNL     1      26.867  48.628  48.910  1.00  0.00     0.202 C 
HETATM   24  C   UNL     1      22.213  49.893  48.067  1.00  0.00     0.032 A 
ENDBRANCH  13  15
ENDBRANCH   9  13
TORSDOF 2
ENDMDL
MODEL 4
REMARK VINA RESULT:      -8.4      2.154      2.441
REMARK  2 active torsions:
REMARK  status: ('A' for Active; 'I' for Inactive)
REMARK    1  A    between atoms: C_9  and  N_10 
REMARK    2  A    between atoms: N_10  and  C_11 
ROOT
HETATM    1  C   UNL     1      29.148  43.279  53.553  1.00  0.00     0.050 C 
HETATM    2  C   UNL     1      29.171  44.284  54.663  1.00  0.00    -0.032 A 
HETATM    3  C   UNL     1      28.230  45.392  54.811  1.00  0.00     0.053 A 
HETATM    4  C   UNL     1      28.570  46.175  55.905  1.00  0.00     0.114 A 
HETATM    5  N   UNL     1      27.956  47.291  56.326  1.00  0.00    -0.226 NA
HETATM    6  C   UNL     1      26.919  47.637  55.564  1.00  0.00     0.125 A 
HETATM    7  C   UNL     1      26.164  48.874  55.942  1.00  0.00     0.093 C 
HETATM    8  N   UNL     1      26.477  46.966  54.490  1.00  0.00    -0.215 NA
HETATM    9  C   UNL     1      27.093  45.831  54.081  1.00  0.00     0.143 A 
HETATM   10  S   UNL     1      29.913  45.586  56.758  1.00  0.00    -0.074 SA
HETATM   11  C   UNL     1      30.116  44.277  55.683  1.00  0.00    -0.012 A 
HETATM   12  C   UNL     1      31.236  43.314  55.911  1.00  0.00     0.057 C 
ENDROOT
BRANCH   9  13
HETATM   13  N   UNL     1      26.571  45.106  52.997  1.00  0.00    -0.340 N 
HETATM   14  H   UNL     1      26.711  44.112  53.076  1.00  0.00     0.167 HD
BRANCH  13  15
HETATM   15  C   UNL     1      25.727  45.487  51.938  1.00  0.00     0.036 A 
HETATM   16  C   UNL     1      25.556  46.813  51.524  1.00  0.00     0.069 A 
HETATM   17  C   UNL     1      24.703  47.131  50.464  1.00  0.00     0.104 A 
HETATM   18  C   UNL     1      23.978  46.126  49.820  1.00  0.00     0.102 A 
HETATM   19  O   UNL     1      24.623  48.455  50.111  1.00  0.00    -0.346 OA
HETATM   20  O   UNL     1      23.096  46.368  48.799  1.00  0.00    -0.346 OA
HETATM   21  C   UNL     1      24.143  44.801  50.205  1.00  0.00     0.042 A 
HETATM   22  C   UNL     1      22.759  47.758  48.722  1.00  0.00     0.202 C 
HETATM   23  C   UNL     1      24.006  48.619  48.830  1.00  0.00     0.202 C 
HETATM   24  C   UNL     1      25.012  44.486  51.255  1.00  0.00     0.032 A 
ENDBRANCH  13  15
ENDBRANCH   9  13
TORSDOF 2
ENDMDL
MODEL 5
REMARK VINA RESULT:      -8.4      3.715      5.174
REMARK  2 active torsions:
REMARK  status: ('A' for Active; 'I' for Inactive)
REMARK    1  A    between atoms: C_9  and  N_10 
REMARK    2  A    between atoms: N_10  and  C_11 
ROOT
HETATM    1  C   UNL     1      25.511  44.560  53.350  1.00  0.00     0.050 C 
HETATM    2  C   UNL     1      26.696  45.197  54.006  1.00  0.00    -0.032 A 
HETATM    3  C   UNL     1      27.893  44.485  54.450  1.00  0.00     0.053 A 
HETATM    4  C   UNL     1      28.771  45.357  55.079  1.00  0.00     0.114 A 
HETATM    5  N   UNL     1      29.951  45.055  55.641  1.00  0.00    -0.226 NA
HETATM    6  C   UNL     1      30.253  43.760  55.559  1.00  0.00     0.125 A 
HETATM    7  C   UNL     1      31.549  43.312  56.161  1.00  0.00     0.093 C 
HETATM    8  N   UNL     1      29.504  42.816  54.969  1.00  0.00    -0.215 NA
HETATM    9  C   UNL     1      28.321  43.132  54.390  1.00  0.00     0.143 A 
HETATM   10  S   UNL     1      28.225  46.964  55.090  1.00  0.00    -0.074 SA
HETATM   11  C   UNL     1      26.779  46.557  54.282  1.00  0.00    -0.012 A 
HETATM   12  C   UNL     1      25.785  47.633  53.981  1.00  0.00     0.057 C 
ENDROOT
BRANCH   9  13
HETATM   13  N   UNL     1      27.587  42.142  53.717  1.00  0.00    -0.340 N 
HETATM   14  H   UNL     1      26.647  42.036  54.063  1.00  0.00     0.167 HD
BRANCH  13  15
HETATM   15  C   UNL     1      27.851  41.423  52.537  1.00  0.00     0.036 A 
HETATM   16  C   UNL     1      28.718  40.326  52.478  1.00  0.00     0.069 A 
HETATM   17  C   UNL     1      28.941  39.650  51.276  1.00  0.00     0.104 A 
HETATM   18  C   UNL     1      28.324  40.083  50.101  1.00  0.00     0.102 A 
HETATM   19  O   UNL     1      29.785  38.568  51.322  1.00  0.00    -0.346 OA
HETATM   20  O   UNL     1      28.524  39.493  48.880  1.00  0.00    -0.346 OA
HETATM   21  C   UNL     1      27.447  41.162  50.139  1.00  0.00     0.042 A 
HETATM   22  C   UNL     1      29.674  38.639  48.899  1.00  0.00     0.202 C 
HETATM   23  C   UNL     1      29.672  37.766  50.142  1.00  0.00     0.202 C 
HETATM   24  C   UNL     1      27.214  41.824  51.349  1.00  0.00     0.032 A 
ENDBRANCH  13  15
ENDBRANCH   9  13
TORSDOF 2
ENDMDL
MODEL 6
REMARK VINA RESULT:      -8.2      2.648      4.246
REMARK  2 active torsions:
REMARK  status: ('A' for Active; 'I' for Inactive)
REMARK    1  A    between atoms: C_9  and  N_10 
REMARK    2  A    between atoms: N_10  and  C_11 
ROOT
HETATM    1  C   UNL     1      26.795  45.445  54.876  1.00  0.00     0.050 C 
HETATM    2  C   UNL     1      27.910  44.536  54.461  1.00  0.00    -0.032 A 
HETATM    3  C   UNL     1      27.802  43.479  53.457  1.00  0.00     0.053 A 
HETATM    4  C   UNL     1      28.995  42.778  53.360  1.00  0.00     0.114 A 
HETATM    5  N   UNL     1      29.256  41.725  52.572  1.00  0.00    -0.226 NA
HETATM    6  C   UNL     1      28.212  41.356  51.830  1.00  0.00     0.125 A 
HETATM    7  C   UNL     1      28.392  40.183  50.915  1.00  0.00     0.093 C 
HETATM    8  N   UNL     1      27.010  41.952  51.817  1.00  0.00    -0.215 NA
HETATM    9  C   UNL     1      26.760  43.025  52.605  1.00  0.00     0.143 A 
HETATM   10  S   UNL     1      30.213  43.385  54.375  1.00  0.00    -0.074 SA
HETATM   11  C   UNL     1      29.187  44.592  55.008  1.00  0.00    -0.012 A 
HETATM   12  C   UNL     1      29.717  45.527  56.046  1.00  0.00     0.057 C 
ENDROOT
BRANCH   9  13
HETATM   13  N   UNL     1      25.519  43.677  52.524  1.00  0.00    -0.340 N 
HETATM   14  H   UNL     1      24.991  43.640  53.380  1.00  0.00     0.167 HD
BRANCH  13  15
HETATM   15  C   UNL     1      24.974  44.529  51.546  1.00  0.00     0.036 A 
HETATM   16  C   UNL     1      25.273  45.893  51.456  1.00  0.00     0.069 A 
HETATM   17  C   UNL     1      24.701  46.690  50.461  1.00  0.00     0.104 A 
HETATM   18  C   UNL     1      23.789  46.140  49.557  1.00  0.00     0.102 A 
HETATM   19  O   UNL     1      25.077  48.010  50.434  1.00  0.00    -0.346 OA
HETATM   20  O   UNL     1      23.161  46.868  48.580  1.00  0.00    -0.346 OA
HETATM   21  C   UNL     1      23.489  44.784  49.619  1.00  0.00     0.042 A 
HETATM   22  C   UNL     1      23.281  48.275  48.824  1.00  0.00     0.202 C 
HETATM   23  C   UNL     1      24.708  48.634  49.200  1.00  0.00     0.202 C 
HETATM   24  C   UNL     1      24.078  43.987  50.606  1.00  0.00     0.032 A 
ENDBRANCH  13  15
ENDBRANCH   9  13
TORSDOF 2
ENDMDL
MODEL 7
REMARK VINA RESULT:      -8.2      3.602      4.192
REMARK  2 active torsions:
REMARK  status: ('A' for Active; 'I' for Inactive)
REMARK    1  A    between atoms: C_9  and  N_10 
REMARK    2  A    between atoms: N_10  and  C_11 
ROOT
HETATM    1  C   UNL     1      27.624  43.696  51.003  1.00  0.00     0.050 C 
HETATM    2  C   UNL     1      27.891  44.106  52.418  1.00  0.00    -0.032 A 
HETATM    3  C   UNL     1      27.332  45.290  53.068  1.00  0.00     0.053 A 
HETATM    4  C   UNL     1      27.832  45.418  54.356  1.00  0.00     0.114 A 
HETATM    5  N   UNL     1      27.569  46.397  55.234  1.00  0.00    -0.226 NA
HETATM    6  C   UNL     1      26.736  47.320  54.755  1.00  0.00     0.125 A 
HETATM    7  C   UNL     1      26.380  48.465  55.654  1.00  0.00     0.093 C 
HETATM    8  N   UNL     1      26.172  47.311  53.538  1.00  0.00    -0.215 NA
HETATM    9  C   UNL     1      26.431  46.310  52.663  1.00  0.00     0.143 A 
HETATM   10  S   UNL     1      28.875  44.155  54.798  1.00  0.00    -0.074 SA
HETATM   11  C   UNL     1      28.726  43.399  53.276  1.00  0.00    -0.012 A 
HETATM   12  C   UNL     1      29.479  42.135  53.013  1.00  0.00     0.057 C 
ENDROOT
BRANCH   9  13
HETATM   13  N   UNL     1      25.775  46.283  51.421  1.00  0.00    -0.340 N 
HETATM   14  H   UNL     1      25.369  45.388  51.202  1.00  0.00     0.167 HD
BRANCH  13  15
HETATM   15  C   UNL     1      25.414  47.313  50.533  1.00  0.00     0.036 A 
HETATM   16  C   UNL     1      24.089  47.682  50.275  1.00  0.00     0.069 A 
HETATM   17  C   UNL     1      23.792  48.716  49.383  1.00  0.00     0.104 A 
HETATM   18  C   UNL     1      24.818  49.375  48.703  1.00  0.00     0.102 A 
HETATM   19  O   UNL     1      22.465  49.026  49.217  1.00  0.00    -0.346 OA
HETATM   20  O   UNL     1      24.599  50.371  47.787  1.00  0.00    -0.346 OA
HETATM   21  C   UNL     1      26.142  49.034  48.955  1.00  0.00     0.042 A 
HETATM   22  C   UNL     1      23.230  50.398  47.368  1.00  0.00     0.202 C 
HETATM   23  C   UNL     1      22.300  50.289  48.564  1.00  0.00     0.202 C 
HETATM   24  C   UNL     1      26.435  48.012  49.863  1.00  0.00     0.032 A 
ENDBRANCH  13  15
ENDBRANCH   9  13
TORSDOF 2
ENDMDL
MODEL 8
REMARK VINA RESULT:      -8.1      3.266      4.153
REMARK  2 active torsions:
REMARK  status: ('A' for Active; 'I' for Inactive)
REMARK    1  A    between atoms: C_9  and  N_10 
REMARK    2  A    between atoms: N_10  and  C_11 
ROOT
HETATM    1  C   UNL     1      28.335  43.492  54.810  1.00  0.00     0.050 C 
HETATM    2  C   UNL     1      27.850  44.885  54.551  1.00  0.00    -0.032 A 
HETATM    3  C   UNL     1      26.932  45.268  53.479  1.00  0.00     0.053 A 
HETATM    4  C   UNL     1      26.740  46.642  53.474  1.00  0.00     0.114 A 
HETATM    5  N   UNL     1      25.993  47.353  52.616  1.00  0.00    -0.226 NA
HETATM    6  C   UNL     1      25.403  46.601  51.688  1.00  0.00     0.125 A 
HETATM    7  C   UNL     1      24.548  47.296  50.674  1.00  0.00     0.093 C 
HETATM    8  N   UNL     1      25.494  45.266  51.587  1.00  0.00    -0.215 NA
HETATM    9  C   UNL     1      26.238  44.554  52.467  1.00  0.00     0.143 A 
HETATM   10  S   UNL     1      27.566  47.439  54.724  1.00  0.00    -0.074 SA
HETATM   11  C   UNL     1      28.239  45.984  55.307  1.00  0.00    -0.012 A 
HETATM   12  C   UNL     1      29.148  46.027  56.493  1.00  0.00     0.057 C 
ENDROOT
BRANCH   9  13
HETATM   13  N   UNL     1      26.262  43.152  52.386  1.00  0.00    -0.340 N 
HETATM   14  H   UNL     1      25.583  42.705  52.979  1.00  0.00     0.167 HD
BRANCH  13  15
HETATM   15  C   UNL     1      26.912  42.279  51.494  1.00  0.00     0.036 A 
HETATM   16  C   UNL     1      26.762  42.342  50.104  1.00  0.00     0.069 A 
HETATM   17  C   UNL     1      27.435  41.448  49.267  1.00  0.00     0.104 A 
HETATM   18  C   UNL     1      28.245  40.450  49.812  1.00  0.00     0.102 A 
HETATM   19  O   UNL     1      27.248  41.605  47.916  1.00  0.00    -0.346 OA
HETATM   20  O   UNL     1      28.905  39.516  49.056  1.00  0.00    -0.346 OA
HETATM   21  C   UNL     1      28.420  40.378  51.189  1.00  0.00     0.042 A 
HETATM   22  C   UNL     1      28.392  39.474  47.719  1.00  0.00     0.202 C 
HETATM   23  C   UNL     1      28.226  40.879  47.165  1.00  0.00     0.202 C 
HETATM   24  C   UNL     1      27.759  41.287  52.021  1.00  0.00     0.032 A 
ENDBRANCH  13  15
ENDBRANCH   9  13
TORSDOF 2
ENDMDL
MODEL 9
REMARK VINA RESULT:      -8.0      3.379      4.933
REMARK  2 active torsions:
REMARK  status: ('A' for Active; 'I' for Inactive)
REMARK    1  A    between atoms: C_9  and  N_10 
REMARK    2  A    between atoms: N_10  and  C_11 
ROOT
HETATM    1  C   UNL     1      26.371  46.567  54.023  1.00  0.00     0.050 C 
HETATM    2  C   UNL     1      27.137  45.292  53.856  1.00  0.00    -0.032 A 
HETATM    3  C   UNL     1      26.846  44.263  52.859  1.00  0.00     0.053 A 
HETATM    4  C   UNL     1      27.698  43.180  53.017  1.00  0.00     0.114 A 
HETATM    5  N   UNL     1      27.704  42.042  52.308  1.00  0.00    -0.226 NA
HETATM    6  C   UNL     1      26.759  42.006  51.369  1.00  0.00     0.125 A 
HETATM    7  C   UNL     1      26.671  40.774  50.521  1.00  0.00     0.093 C 
HETATM    8  N   UNL     1      25.881  42.985  51.103  1.00  0.00    -0.215 NA
HETATM    9  C   UNL     1      25.893  44.138  51.814  1.00  0.00     0.143 A 
HETATM   10  S   UNL     1      28.836  43.399  54.257  1.00  0.00    -0.074 SA
HETATM   11  C   UNL     1      28.218  44.938  54.655  1.00  0.00    -0.012 A 
HETATM   12  C   UNL     1      28.844  45.708  55.772  1.00  0.00     0.057 C 
ENDROOT
BRANCH   9  13
HETATM   13  N   UNL     1      25.012  45.177  51.472  1.00  0.00    -0.340 N 
HETATM   14  H   UNL     1      24.140  45.145  51.975  1.00  0.00     0.167 HD
BRANCH  13  15
HETATM   15  C   UNL     1      25.199  46.350  50.717  1.00  0.00     0.036 A 
HETATM   16  C   UNL     1      24.146  47.132  50.230  1.00  0.00     0.069 A 
HETATM   17  C   UNL     1      24.394  48.289  49.486  1.00  0.00     0.104 A 
HETATM   18  C   UNL     1      25.705  48.665  49.187  1.00  0.00     0.102 A 
HETATM   19  O   UNL     1      23.298  49.006  49.075  1.00  0.00    -0.346 OA
HETATM   20  O   UNL     1      26.023  49.764  48.433  1.00  0.00    -0.346 OA
HETATM   21  C   UNL     1      26.767  47.911  49.674  1.00  0.00     0.042 A 
HETATM   22  C   UNL     1      24.880  50.252  47.720  1.00  0.00     0.202 C 
HETATM   23  C   UNL     1      23.667  50.316  48.633  1.00  0.00     0.202 C 
HETATM   24  C   UNL     1      26.513  46.764  50.433  1.00  0.00     0.032 A 
ENDBRANCH  13  15
ENDBRANCH   9  13
TORSDOF 2
ENDMDL
MODEL 10
REMARK VINA RESULT:      -7.6      4.206      7.149
REMARK  2 active torsions:
REMARK  status: ('A' for Active; 'I' for Inactive)
REMARK    1  A    between atoms: C_9  and  N_10 
REMARK    2  A    between atoms: N_10  and  C_11 
ROOT
HETATM    1  C   UNL     1      28.473  40.301  51.813  1.00  0.00     0.050 C 
HETATM    2  C   UNL     1      27.879  40.839  50.549  1.00  0.00    -0.032 A 
HETATM    3  C   UNL     1      26.861  41.886  50.479  1.00  0.00     0.053 A 
HETATM    4  C   UNL     1      26.477  42.102  49.163  1.00  0.00     0.114 A 
HETATM    5  N   UNL     1      25.546  42.959  48.720  1.00  0.00    -0.226 NA
HETATM    6  C   UNL     1      24.957  43.644  49.700  1.00  0.00     0.125 A 
HETATM    7  C   UNL     1      23.895  44.628  49.316  1.00  0.00     0.093 C 
HETATM    8  N   UNL     1      25.240  43.542  51.007  1.00  0.00    -0.215 NA
HETATM    9  C   UNL     1      26.194  42.684  51.445  1.00  0.00     0.143 A 
HETATM   10  S   UNL     1      27.331  41.145  48.051  1.00  0.00    -0.074 SA
HETATM   11  C   UNL     1      28.228  40.381  49.283  1.00  0.00    -0.012 A 
HETATM   12  C   UNL     1      29.231  39.336  48.913  1.00  0.00     0.057 C 
ENDROOT
BRANCH   9  13
HETATM   13  N   UNL     1      26.524  42.645  52.809  1.00  0.00    -0.340 N 
HETATM   14  H   UNL     1      26.231  41.797  53.267  1.00  0.00     0.167 HD
BRANCH  13  15
HETATM   15  C   UNL     1      27.350  43.469  53.594  1.00  0.00     0.036 A 
HETATM   16  C   UNL     1      28.494  43.010  54.257  1.00  0.00     0.069 A 
HETATM   17  C   UNL     1      29.278  43.878  55.023  1.00  0.00     0.104 A 
HETATM   18  C   UNL     1      28.909  45.217  55.166  1.00  0.00     0.102 A 
HETATM   19  O   UNL     1      30.396  43.342  55.612  1.00  0.00    -0.346 OA
HETATM   20  O   UNL     1      29.608  46.115  55.930  1.00  0.00    -0.346 OA
HETATM   21  C   UNL     1      27.785  45.698  54.504  1.00  0.00     0.042 A 
HETATM   22  C   UNL     1      30.519  45.448  56.812  1.00  0.00     0.202 C 
HETATM   23  C   UNL     1      31.286  44.365  56.072  1.00  0.00     0.202 C 
HETATM   24  C   UNL     1      27.015  44.829  53.725  1.00  0.00     0.032 A 
ENDBRANCH  13  15
ENDBRANCH   9  13
TORSDOF 2
ENDMDL
