MODEL 1
REMARK VINA RESULT:      -9.8      0.000      0.000
REMARK  3 active torsions:
REMARK  status: ('A' for Active; 'I' for Inactive)
REMARK    1  A    between atoms: N_3  and  C_4 
REMARK    2  A    between atoms: C_12  and  C_13 
REMARK       I    between atoms: C_13  and  N_14 
REMARK    3  A    between atoms: N_14  and  C_15 
ROOT
HETATM    1  C   UNL     1      28.012  48.475  49.511  1.00  0.00     0.070 C 
HETATM    2  C   UNL     1      26.533  48.725  49.328  1.00  0.00     0.036 C 
HETATM    3  N   UNL     1      25.585  47.971  50.039  1.00  0.00    -0.235 N 
HETATM    4  N   UNL     1      24.225  48.150  49.916  1.00  0.00    -0.157 NA
HETATM    5  C   UNL     1      23.800  49.026  49.050  1.00  0.00     0.195 C 
HETATM    6  C   UNL     1      24.739  49.778  48.150  1.00  0.00     0.209 C 
HETATM    7  O   UNL     1      24.322  50.426  47.201  1.00  0.00    -0.286 OA
HETATM    8  C   UNL     1      26.172  49.634  48.410  1.00  0.00     0.084 C 
ENDROOT
BRANCH   5   9
HETATM    9  C   UNL     1      22.305  49.229  48.951  1.00  0.00     0.280 C 
HETATM   10  N   UNL     1      21.943  50.524  48.622  1.00  0.00    -0.322 N 
HETATM   11  H   UNL     1      22.694  51.113  48.269  1.00  0.00     0.169 HD
HETATM   12  O   UNL     1      21.564  48.276  49.139  1.00  0.00    -0.265 OA
BRANCH  10  13
HETATM   13  C   UNL     1      20.641  51.057  48.690  1.00  0.00     0.035 A 
HETATM   14  C   UNL     1      19.879  51.322  47.547  1.00  0.00     0.039 A 
HETATM   15  C   UNL     1      18.579  51.781  47.695  1.00  0.00    -0.022 A 
HETATM   16  C   UNL     1      18.026  51.992  48.957  1.00  0.00    -0.025 A 
HETATM   17  C   UNL     1      17.587  52.052  46.619  1.00  0.00     0.274 C 
HETATM   18  C   UNL     1      16.610  52.440  48.837  1.00  0.00     0.273 C 
HETATM   19  C   UNL     1      18.766  51.745  50.101  1.00  0.00     0.012 A 
HETATM   20  N   UNL     1      16.368  52.620  47.339  1.00  0.00    -0.067 N 
HETATM   21  H   UNL     1      16.379  53.630  47.162  1.00  0.00     0.280 HD
HETATM   22  C   UNL     1      15.072  52.062  46.858  1.00  0.00     0.270 C 
HETATM   23  C   UNL     1      20.076  51.266  49.961  1.00  0.00     0.030 A 
ENDBRANCH  10  13
ENDBRANCH   5   9
BRANCH   3  24
HETATM   24  C   UNL     1      25.924  46.910  50.930  1.00  0.00     0.097 A 
HETATM   25  C   UNL     1      26.176  45.615  50.448  1.00  0.00     0.145 A 
HETATM   26  F   UNL     1      26.100  45.354  49.132  1.00  0.00    -0.204 F 
HETATM   27  C   UNL     1      26.544  44.576  51.303  1.00  0.00     0.045 A 
HETATM   28  C   UNL     1      26.650  44.810  52.671  1.00  0.00     0.003 A 
HETATM   29  C   UNL     1      26.372  46.079  53.180  1.00  0.00     0.002 A 
HETATM   30  C   UNL     1      26.005  47.117  52.319  1.00  0.00     0.035 A 
ENDBRANCH   3  24
TORSDOF 3
ENDMDL
MODEL 2
REMARK VINA RESULT:      -9.4      3.209      9.641
REMARK  3 active torsions:
REMARK  status: ('A' for Active; 'I' for Inactive)
REMARK    1  A    between atoms: N_3  and  C_4 
REMARK    2  A    between atoms: C_12  and  C_13 
REMARK       I    between atoms: C_13  and  N_14 
REMARK    3  A    between atoms: N_14  and  C_15 
ROOT
HETATM    1  C   UNL     1      20.546  46.833  47.361  1.00  0.00     0.070 C 
HETATM    2  C   UNL     1      21.776  46.847  48.239  1.00  0.00     0.036 C 
HETATM    3  N   UNL     1      22.115  47.991  48.980  1.00  0.00    -0.235 N 
HETATM    4  N   UNL     1      23.221  48.068  49.797  1.00  0.00    -0.157 NA
HETATM    5  C   UNL     1      24.024  47.042  49.835  1.00  0.00     0.195 C 
HETATM    6  C   UNL     1      23.813  45.830  48.971  1.00  0.00     0.209 C 
HETATM    7  O   UNL     1      24.681  44.979  48.854  1.00  0.00    -0.286 OA
HETATM    8  C   UNL     1      22.560  45.759  48.218  1.00  0.00     0.084 C 
ENDROOT
BRANCH   5   9
HETATM    9  C   UNL     1      25.217  47.134  50.760  1.00  0.00     0.280 C 
HETATM   10  N   UNL     1      25.207  46.190  51.772  1.00  0.00    -0.322 N 
HETATM   11  H   UNL     1      24.548  45.423  51.650  1.00  0.00     0.169 HD
HETATM   12  O   UNL     1      26.070  47.980  50.543  1.00  0.00    -0.265 OA
BRANCH  10  13
HETATM   13  C   UNL     1      26.048  46.183  52.900  1.00  0.00     0.035 A 
HETATM   14  C   UNL     1      26.951  45.146  53.157  1.00  0.00     0.039 A 
HETATM   15  C   UNL     1      27.798  45.244  54.251  1.00  0.00    -0.022 A 
HETATM   16  C   UNL     1      27.756  46.347  55.101  1.00  0.00    -0.025 A 
HETATM   17  C   UNL     1      28.869  44.292  54.654  1.00  0.00     0.274 C 
HETATM   18  C   UNL     1      28.793  46.225  56.164  1.00  0.00     0.273 C 
HETATM   19  C   UNL     1      26.864  47.381  54.871  1.00  0.00     0.012 A 
HETATM   20  N   UNL     1      29.412  44.842  55.969  1.00  0.00    -0.067 N 
HETATM   21  H   UNL     1      29.026  44.244  56.707  1.00  0.00     0.280 HD
HETATM   22  C   UNL     1      30.900  44.819  56.060  1.00  0.00     0.270 C 
HETATM   23  C   UNL     1      26.015  47.298  53.758  1.00  0.00     0.030 A 
ENDBRANCH  10  13
ENDBRANCH   5   9
BRANCH   3  24
HETATM   24  C   UNL     1      21.378  49.212  48.933  1.00  0.00     0.097 A 
HETATM   25  C   UNL     1      20.137  49.330  49.582  1.00  0.00     0.145 A 
HETATM   26  F   UNL     1      19.622  48.289  50.258  1.00  0.00    -0.204 F 
HETATM   27  C   UNL     1      19.421  50.527  49.575  1.00  0.00     0.045 A 
HETATM   28  C   UNL     1      19.929  51.634  48.900  1.00  0.00     0.003 A 
HETATM   29  C   UNL     1      21.142  51.534  48.220  1.00  0.00     0.002 A 
HETATM   30  C   UNL     1      21.857  50.331  48.230  1.00  0.00     0.035 A 
ENDBRANCH   3  24
TORSDOF 3
ENDMDL
MODEL 3
REMARK VINA RESULT:      -9.3      3.480      6.498
REMARK  3 active torsions:
REMARK  status: ('A' for Active; 'I' for Inactive)
REMARK    1  A    between atoms: N_3  and  C_4 
REMARK    2  A    between atoms: C_12  and  C_13 
REMARK       I    between atoms: C_13  and  N_14 
REMARK    3  A    between atoms: N_14  and  C_15 
ROOT
HETATM    1  C   UNL     1      28.172  41.043  53.689  1.00  0.00     0.070 C 
HETATM    2  C   UNL     1      27.818  42.159  52.734  1.00  0.00     0.036 C 
HETATM    3  N   UNL     1      28.293  43.463  52.946  1.00  0.00    -0.235 N 
HETATM    4  N   UNL     1      28.006  44.522  52.114  1.00  0.00    -0.157 NA
HETATM    5  C   UNL     1      27.202  44.309  51.111  1.00  0.00     0.195 C 
HETATM    6  C   UNL     1      26.538  42.979  50.888  1.00  0.00     0.209 C 
HETATM    7  O   UNL     1      25.627  42.855  50.084  1.00  0.00    -0.286 OA
HETATM    8  C   UNL     1      26.976  41.867  51.732  1.00  0.00     0.084 C 
ENDROOT
BRANCH   5   9
HETATM    9  C   UNL     1      26.921  45.477  50.192  1.00  0.00     0.280 C 
HETATM   10  N   UNL     1      25.957  46.344  50.676  1.00  0.00    -0.322 N 
HETATM   11  H   UNL     1      25.722  46.233  51.660  1.00  0.00     0.169 HD
HETATM   12  O   UNL     1      27.551  45.574  49.150  1.00  0.00    -0.265 OA
BRANCH  10  13
HETATM   13  C   UNL     1      25.331  47.370  49.943  1.00  0.00     0.035 A 
HETATM   14  C   UNL     1      23.945  47.423  49.760  1.00  0.00     0.039 A 
HETATM   15  C   UNL     1      23.394  48.503  49.087  1.00  0.00    -0.022 A 
HETATM   16  C   UNL     1      24.195  49.526  48.583  1.00  0.00    -0.025 A 
HETATM   17  C   UNL     1      21.951  48.781  48.850  1.00  0.00     0.274 C 
HETATM   18  C   UNL     1      23.356  50.580  47.948  1.00  0.00     0.273 C 
HETATM   19  C   UNL     1      25.570  49.489  48.745  1.00  0.00     0.012 A 
HETATM   20  N   UNL     1      21.927  50.039  47.988  1.00  0.00    -0.067 N 
HETATM   21  H   UNL     1      21.709  49.725  47.036  1.00  0.00     0.280 HD
HETATM   22  C   UNL     1      20.906  51.039  48.411  1.00  0.00     0.270 C 
HETATM   23  C   UNL     1      26.134  48.409  49.438  1.00  0.00     0.030 A 
ENDBRANCH  10  13
ENDBRANCH   5   9
BRANCH   3  24
HETATM   24  C   UNL     1      29.088  43.843  54.068  1.00  0.00     0.097 A 
HETATM   25  C   UNL     1      28.708  44.917  54.892  1.00  0.00     0.145 A 
HETATM   26  F   UNL     1      27.585  45.608  54.631  1.00  0.00    -0.204 F 
HETATM   27  C   UNL     1      29.455  45.277  56.013  1.00  0.00     0.045 A 
HETATM   28  C   UNL     1      30.617  44.576  56.326  1.00  0.00     0.003 A 
HETATM   29  C   UNL     1      31.034  43.528  55.506  1.00  0.00     0.002 A 
HETATM   30  C   UNL     1      30.281  43.169  54.384  1.00  0.00     0.035 A 
ENDBRANCH   3  24
TORSDOF 3
ENDMDL
MODEL 4
REMARK VINA RESULT:      -9.2      3.215      9.806
REMARK  3 active torsions:
REMARK  status: ('A' for Active; 'I' for Inactive)
REMARK    1  A    between atoms: N_3  and  C_4 
REMARK    2  A    between atoms: C_12  and  C_13 
REMARK       I    between atoms: C_13  and  N_14 
REMARK    3  A    between atoms: N_14  and  C_15 
ROOT
HETATM    1  C   UNL     1      21.028  46.589  47.442  1.00  0.00     0.070 C 
HETATM    2  C   UNL     1      22.233  46.622  48.353  1.00  0.00     0.036 C 
HETATM    3  N   UNL     1      22.579  47.795  49.044  1.00  0.00    -0.235 N 
HETATM    4  N   UNL     1      23.664  47.889  49.887  1.00  0.00    -0.157 NA
HETATM    5  C   UNL     1      24.441  46.849  50.000  1.00  0.00     0.195 C 
HETATM    6  C   UNL     1      24.225  45.600  49.193  1.00  0.00     0.209 C 
HETATM    7  O   UNL     1      25.076  44.724  49.144  1.00  0.00    -0.286 OA
HETATM    8  C   UNL     1      22.992  45.517  48.409  1.00  0.00     0.084 C 
ENDROOT
BRANCH   5   9
HETATM    9  C   UNL     1      25.610  46.962  50.952  1.00  0.00     0.280 C 
HETATM   10  N   UNL     1      25.691  45.917  51.857  1.00  0.00    -0.322 N 
HETATM   11  H   UNL     1      25.117  45.105  51.640  1.00  0.00     0.169 HD
HETATM   12  O   UNL     1      26.372  47.911  50.844  1.00  0.00    -0.265 OA
BRANCH  10  13
HETATM   13  C   UNL     1      26.519  45.875  52.994  1.00  0.00     0.035 A 
HETATM   14  C   UNL     1      27.418  44.829  53.229  1.00  0.00     0.039 A 
HETATM   15  C   UNL     1      28.252  44.891  54.335  1.00  0.00    -0.022 A 
HETATM   16  C   UNL     1      28.201  45.968  55.218  1.00  0.00    -0.025 A 
HETATM   17  C   UNL     1      29.317  43.926  54.720  1.00  0.00     0.274 C 
HETATM   18  C   UNL     1      29.226  45.811  56.289  1.00  0.00     0.273 C 
HETATM   19  C   UNL     1      27.313  47.010  55.010  1.00  0.00     0.012 A 
HETATM   20  N   UNL     1      29.846  44.434  56.058  1.00  0.00    -0.067 N 
HETATM   21  H   UNL     1      29.450  43.814  56.773  1.00  0.00     0.280 HD
HETATM   22  C   UNL     1      31.332  44.407  56.166  1.00  0.00     0.270 C 
HETATM   23  C   UNL     1      26.477  46.962  53.886  1.00  0.00     0.030 A 
ENDBRANCH  10  13
ENDBRANCH   5   9
BRANCH   3  24
HETATM   24  C   UNL     1      21.872  49.027  48.915  1.00  0.00     0.097 A 
HETATM   25  C   UNL     1      22.384  50.074  48.129  1.00  0.00     0.145 A 
HETATM   26  F   UNL     1      23.555  49.930  47.486  1.00  0.00    -0.204 F 
HETATM   27  C   UNL     1      21.687  51.271  47.964  1.00  0.00     0.045 A 
HETATM   28  C   UNL     1      20.462  51.453  48.601  1.00  0.00     0.003 A 
HETATM   29  C   UNL     1      19.947  50.442  49.413  1.00  0.00     0.002 A 
HETATM   30  C   UNL     1      20.650  49.244  49.574  1.00  0.00     0.035 A 
ENDBRANCH   3  24
TORSDOF 3
ENDMDL
MODEL 5
REMARK VINA RESULT:      -8.9      2.895      9.474
REMARK  3 active torsions:
REMARK  status: ('A' for Active; 'I' for Inactive)
REMARK    1  A    between atoms: N_3  and  C_4 
REMARK    2  A    between atoms: C_12  and  C_13 
REMARK       I    between atoms: C_13  and  N_14 
REMARK    3  A    between atoms: N_14  and  C_15 
ROOT
HETATM    1  C   UNL     1      18.656  48.030  46.728  1.00  0.00     0.070 C 
HETATM    2  C   UNL     1      19.967  47.818  47.448  1.00  0.00     0.036 C 
HETATM    3  N   UNL     1      20.421  48.745  48.400  1.00  0.00    -0.235 N 
HETATM    4  N   UNL     1      21.605  48.609  49.090  1.00  0.00    -0.157 NA
HETATM    5  C   UNL     1      22.369  47.595  48.796  1.00  0.00     0.195 C 
HETATM    6  C   UNL     1      22.028  46.630  47.695  1.00  0.00     0.209 C 
HETATM    7  O   UNL     1      22.848  45.822  47.286  1.00  0.00    -0.286 OA
HETATM    8  C   UNL     1      20.704  46.758  47.084  1.00  0.00     0.084 C 
ENDROOT
BRANCH   5   9
HETATM    9  C   UNL     1      23.651  47.447  49.584  1.00  0.00     0.280 C 
HETATM   10  N   UNL     1      23.891  46.152  50.012  1.00  0.00    -0.322 N 
HETATM   11  H   UNL     1      23.324  45.432  49.570  1.00  0.00     0.169 HD
HETATM   12  O   UNL     1      24.356  48.429  49.758  1.00  0.00    -0.265 OA
BRANCH  10  13
HETATM   13  C   UNL     1      24.867  45.763  50.949  1.00  0.00     0.035 A 
HETATM   14  C   UNL     1      25.599  44.578  50.822  1.00  0.00     0.039 A 
HETATM   15  C   UNL     1      26.592  44.295  51.747  1.00  0.00    -0.022 A 
HETATM   16  C   UNL     1      26.865  45.163  52.802  1.00  0.00    -0.025 A 
HETATM   17  C   UNL     1      27.524  43.134  51.749  1.00  0.00     0.274 C 
HETATM   18  C   UNL     1      28.001  44.651  53.619  1.00  0.00     0.273 C 
HETATM   19  C   UNL     1      26.147  46.338  52.953  1.00  0.00     0.012 A 
HETATM   20  N   UNL     1      28.333  43.278  53.034  1.00  0.00    -0.067 N 
HETATM   21  H   UNL     1      27.953  42.585  53.687  1.00  0.00     0.280 HD
HETATM   22  C   UNL     1      29.791  43.025  52.857  1.00  0.00     0.270 C 
HETATM   23  C   UNL     1      25.151  46.638  52.013  1.00  0.00     0.030 A 
ENDBRANCH  10  13
ENDBRANCH   5   9
BRANCH   3  24
HETATM   24  C   UNL     1      19.728  49.949  48.725  1.00  0.00     0.097 A 
HETATM   25  C   UNL     1      18.667  49.945  49.647  1.00  0.00     0.145 A 
HETATM   26  F   UNL     1      18.286  48.799  50.238  1.00  0.00    -0.204 F 
HETATM   27  C   UNL     1      18.004  51.119  50.002  1.00  0.00     0.045 A 
HETATM   28  C   UNL     1      18.380  52.329  49.424  1.00  0.00     0.003 A 
HETATM   29  C   UNL     1      19.407  52.356  48.481  1.00  0.00     0.002 A 
HETATM   30  C   UNL     1      20.070  51.176  48.130  1.00  0.00     0.035 A 
ENDBRANCH   3  24
TORSDOF 3
ENDMDL
MODEL 6
REMARK VINA RESULT:      -8.8      2.908      9.272
REMARK  3 active torsions:
REMARK  status: ('A' for Active; 'I' for Inactive)
REMARK    1  A    between atoms: N_3  and  C_4 
REMARK    2  A    between atoms: C_12  and  C_13 
REMARK       I    between atoms: C_13  and  N_14 
REMARK    3  A    between atoms: N_14  and  C_15 
ROOT
HETATM    1  C   UNL     1      18.881  47.523  47.256  1.00  0.00     0.070 C 
HETATM    2  C   UNL     1      20.249  47.351  47.874  1.00  0.00     0.036 C 
HETATM    3  N   UNL     1      20.811  48.366  48.666  1.00  0.00    -0.235 N 
HETATM    4  N   UNL     1      22.052  48.271  49.256  1.00  0.00    -0.157 NA
HETATM    5  C   UNL     1      22.762  47.206  49.014  1.00  0.00     0.195 C 
HETATM    6  C   UNL     1      22.298  46.134  48.068  1.00  0.00     0.209 C 
HETATM    7  O   UNL     1      23.059  45.258  47.683  1.00  0.00    -0.286 OA
HETATM    8  C   UNL     1      20.926  46.234  47.570  1.00  0.00     0.084 C 
ENDROOT
BRANCH   5   9
HETATM    9  C   UNL     1      24.110  47.107  49.693  1.00  0.00     0.280 C 
HETATM   10  N   UNL     1      24.238  45.995  50.508  1.00  0.00    -0.322 N 
HETATM   11  H   UNL     1      23.529  45.275  50.383  1.00  0.00     0.169 HD
HETATM   12  O   UNL     1      24.951  47.963  49.467  1.00  0.00    -0.265 OA
BRANCH  10  13
HETATM   13  C   UNL     1      25.274  45.769  51.435  1.00  0.00     0.035 A 
HETATM   14  C   UNL     1      25.648  46.721  52.389  1.00  0.00     0.039 A 
HETATM   15  C   UNL     1      26.630  46.400  53.314  1.00  0.00    -0.022 A 
HETATM   16  C   UNL     1      27.254  45.154  53.302  1.00  0.00    -0.025 A 
HETATM   17  C   UNL     1      27.116  47.237  54.444  1.00  0.00     0.274 C 
HETATM   18  C   UNL     1      28.231  45.051  54.422  1.00  0.00     0.273 C 
HETATM   19  C   UNL     1      26.905  44.200  52.361  1.00  0.00     0.012 A 
HETATM   20  N   UNL     1      28.253  46.435  55.070  1.00  0.00    -0.067 N 
HETATM   21  H   UNL     1      29.121  46.886  54.762  1.00  0.00     0.280 HD
HETATM   22  C   UNL     1      28.224  46.413  56.560  1.00  0.00     0.270 C 
HETATM   23  C   UNL     1      25.903  44.511  51.432  1.00  0.00     0.030 A 
ENDBRANCH  10  13
ENDBRANCH   5   9
BRANCH   3  24
HETATM   24  C   UNL     1      20.178  49.621  48.911  1.00  0.00     0.097 A 
HETATM   25  C   UNL     1      20.524  50.761  48.165  1.00  0.00     0.145 A 
HETATM   26  F   UNL     1      21.463  50.686  47.207  1.00  0.00    -0.204 F 
HETATM   27  C   UNL     1      19.889  51.986  48.368  1.00  0.00     0.045 A 
HETATM   28  C   UNL     1      18.899  52.100  49.341  1.00  0.00     0.003 A 
HETATM   29  C   UNL     1      18.560  50.992  50.118  1.00  0.00     0.002 A 
HETATM   30  C   UNL     1      19.199  49.766  49.909  1.00  0.00     0.035 A 
ENDBRANCH   3  24
TORSDOF 3
ENDMDL
MODEL 7
REMARK VINA RESULT:      -8.8      3.189      9.101
REMARK  3 active torsions:
REMARK  status: ('A' for Active; 'I' for Inactive)
REMARK    1  A    between atoms: N_3  and  C_4 
REMARK    2  A    between atoms: C_12  and  C_13 
REMARK       I    between atoms: C_13  and  N_14 
REMARK    3  A    between atoms: N_14  and  C_15 
ROOT
HETATM    1  C   UNL     1      20.871  50.575  47.215  1.00  0.00     0.070 C 
HETATM    2  C   UNL     1      21.905  49.717  47.906  1.00  0.00     0.036 C 
HETATM    3  N   UNL     1      21.536  48.521  48.541  1.00  0.00    -0.235 N 
HETATM    4  N   UNL     1      22.429  47.696  49.188  1.00  0.00    -0.157 NA
HETATM    5  C   UNL     1      23.671  48.081  49.262  1.00  0.00     0.195 C 
HETATM    6  C   UNL     1      24.128  49.411  48.732  1.00  0.00     0.209 C 
HETATM    7  O   UNL     1      25.236  49.852  49.000  1.00  0.00    -0.286 OA
HETATM    8  C   UNL     1      23.161  50.185  47.952  1.00  0.00     0.084 C 
ENDROOT
BRANCH   5   9
HETATM    9  C   UNL     1      24.643  47.149  49.950  1.00  0.00     0.280 C 
HETATM   10  N   UNL     1      24.475  47.089  51.323  1.00  0.00    -0.322 N 
HETATM   11  H   UNL     1      23.605  47.481  51.676  1.00  0.00     0.169 HD
HETATM   12  O   UNL     1      25.452  46.533  49.274  1.00  0.00    -0.265 OA
BRANCH  10  13
HETATM   13  C   UNL     1      25.370  46.500  52.237  1.00  0.00     0.035 A 
HETATM   14  C   UNL     1      26.219  47.258  53.050  1.00  0.00     0.039 A 
HETATM   15  C   UNL     1      27.022  46.609  53.976  1.00  0.00    -0.022 A 
HETATM   16  C   UNL     1      27.005  45.222  54.102  1.00  0.00    -0.025 A 
HETATM   17  C   UNL     1      27.935  47.231  54.975  1.00  0.00     0.274 C 
HETATM   18  C   UNL     1      27.921  44.786  55.193  1.00  0.00     0.273 C 
HETATM   19  C   UNL     1      26.178  44.452  53.301  1.00  0.00     0.012 A 
HETATM   20  N   UNL     1      28.629  46.058  55.660  1.00  0.00    -0.067 N 
HETATM   21  H   UNL     1      29.577  46.022  55.269  1.00  0.00     0.280 HD
HETATM   22  C   UNL     1      28.723  46.197  57.140  1.00  0.00     0.270 C 
HETATM   23  C   UNL     1      25.352  45.100  52.373  1.00  0.00     0.030 A 
ENDBRANCH  10  13
ENDBRANCH   5   9
BRANCH   3  24
HETATM   24  C   UNL     1      20.191  48.050  48.624  1.00  0.00     0.097 A 
HETATM   25  C   UNL     1      19.320  48.525  49.620  1.00  0.00     0.145 A 
HETATM   26  F   UNL     1      19.745  49.433  50.515  1.00  0.00    -0.204 F 
HETATM   27  C   UNL     1      17.993  48.102  49.691  1.00  0.00     0.045 A 
HETATM   28  C   UNL     1      17.511  47.175  48.771  1.00  0.00     0.003 A 
HETATM   29  C   UNL     1      18.364  46.662  47.793  1.00  0.00     0.002 A 
HETATM   30  C   UNL     1      19.694  47.091  47.725  1.00  0.00     0.035 A 
ENDBRANCH   3  24
TORSDOF 3
ENDMDL
MODEL 8
REMARK VINA RESULT:      -8.7      3.263      9.656
REMARK  3 active torsions:
REMARK  status: ('A' for Active; 'I' for Inactive)
REMARK    1  A    between atoms: N_3  and  C_4 
REMARK    2  A    between atoms: C_12  and  C_13 
REMARK       I    between atoms: C_13  and  N_14 
REMARK    3  A    between atoms: N_14  and  C_15 
ROOT
HETATM    1  C   UNL     1      23.632  50.882  47.537  1.00  0.00     0.070 C 
HETATM    2  C   UNL     1      24.231  49.777  48.377  1.00  0.00     0.036 C 
HETATM    3  N   UNL     1      23.418  48.984  49.203  1.00  0.00    -0.235 N 
HETATM    4  N   UNL     1      23.902  47.964  49.992  1.00  0.00    -0.157 NA
HETATM    5  C   UNL     1      25.190  47.768  50.015  1.00  0.00     0.195 C 
HETATM    6  C   UNL     1      26.146  48.658  49.270  1.00  0.00     0.209 C 
HETATM    7  O   UNL     1      27.349  48.601  49.473  1.00  0.00    -0.286 OA
HETATM    8  C   UNL     1      25.565  49.644  48.358  1.00  0.00     0.084 C 
ENDROOT
BRANCH   5   9
HETATM    9  C   UNL     1      25.699  46.626  50.864  1.00  0.00     0.280 C 
HETATM   10  N   UNL     1      26.554  45.772  50.188  1.00  0.00    -0.322 N 
HETATM   11  H   UNL     1      26.914  46.122  49.303  1.00  0.00     0.169 HD
HETATM   12  O   UNL     1      25.351  46.556  52.033  1.00  0.00    -0.265 OA
BRANCH  10  13
HETATM   13  C   UNL     1      26.989  44.512  50.644  1.00  0.00     0.035 A 
HETATM   14  C   UNL     1      26.789  43.339  49.909  1.00  0.00     0.039 A 
HETATM   15  C   UNL     1      27.307  42.146  50.389  1.00  0.00    -0.022 A 
HETATM   16  C   UNL     1      28.012  42.095  51.590  1.00  0.00    -0.025 A 
HETATM   17  C   UNL     1      27.267  40.812  49.730  1.00  0.00     0.274 C 
HETATM   18  C   UNL     1      28.497  40.711  51.852  1.00  0.00     0.273 C 
HETATM   19  C   UNL     1      28.214  43.243  52.338  1.00  0.00     0.012 A 
HETATM   20  N   UNL     1      27.898  39.855  50.736  1.00  0.00    -0.067 N 
HETATM   21  H   UNL     1      27.122  39.332  51.156  1.00  0.00     0.280 HD
HETATM   22  C   UNL     1      28.856  38.889  50.127  1.00  0.00     0.270 C 
HETATM   23  C   UNL     1      27.706  44.456  51.852  1.00  0.00     0.030 A 
ENDBRANCH  10  13
ENDBRANCH   5   9
BRANCH   3  24
HETATM   24  C   UNL     1      22.012  49.174  49.348  1.00  0.00     0.097 A 
HETATM   25  C   UNL     1      21.501  50.287  50.039  1.00  0.00     0.145 A 
HETATM   26  F   UNL     1      22.336  51.192  50.578  1.00  0.00    -0.204 F 
HETATM   27  C   UNL     1      20.129  50.506  50.158  1.00  0.00     0.045 A 
HETATM   28  C   UNL     1      19.232  49.599  49.598  1.00  0.00     0.003 A 
HETATM   29  C   UNL     1      19.712  48.469  48.936  1.00  0.00     0.002 A 
HETATM   30  C   UNL     1      21.089  48.255  48.818  1.00  0.00     0.035 A 
ENDBRANCH   3  24
TORSDOF 3
ENDMDL
MODEL 9
REMARK VINA RESULT:      -8.6      8.654     11.341
REMARK  3 active torsions:
REMARK  status: ('A' for Active; 'I' for Inactive)
REMARK    1  A    between atoms: N_3  and  C_4 
REMARK    2  A    between atoms: C_12  and  C_13 
REMARK       I    between atoms: C_13  and  N_14 
REMARK    3  A    between atoms: N_14  and  C_15 
ROOT
HETATM    1  C   UNL     1      23.990  40.327  47.182  1.00  0.00     0.070 C 
HETATM    2  C   UNL     1      24.835  41.153  48.124  1.00  0.00     0.036 C 
HETATM    3  N   UNL     1      26.232  41.197  47.985  1.00  0.00    -0.235 N 
HETATM    4  N   UNL     1      27.056  41.930  48.810  1.00  0.00    -0.157 NA
HETATM    5  C   UNL     1      26.511  42.566  49.807  1.00  0.00     0.195 C 
HETATM    6  C   UNL     1      25.043  42.463  50.114  1.00  0.00     0.209 C 
HETATM    7  O   UNL     1      24.587  42.880  51.168  1.00  0.00    -0.286 OA
HETATM    8  C   UNL     1      24.205  41.770  49.135  1.00  0.00     0.084 C 
ENDROOT
BRANCH   5   9
HETATM    9  C   UNL     1      27.428  43.388  50.685  1.00  0.00     0.280 C 
HETATM   10  N   UNL     1      27.965  42.677  51.744  1.00  0.00    -0.322 N 
HETATM   11  H   UNL     1      27.874  41.665  51.684  1.00  0.00     0.169 HD
HETATM   12  O   UNL     1      27.632  44.557  50.396  1.00  0.00    -0.265 OA
BRANCH  10  13
HETATM   13  C   UNL     1      28.652  43.229  52.842  1.00  0.00     0.035 A 
HETATM   14  C   UNL     1      28.132  44.284  53.599  1.00  0.00     0.039 A 
HETATM   15  C   UNL     1      28.835  44.728  54.709  1.00  0.00    -0.022 A 
HETATM   16  C   UNL     1      30.049  44.151  55.075  1.00  0.00    -0.025 A 
HETATM   17  C   UNL     1      28.423  45.780  55.678  1.00  0.00     0.274 C 
HETATM   18  C   UNL     1      30.570  44.778  56.322  1.00  0.00     0.273 C 
HETATM   19  C   UNL     1      30.587  43.111  54.334  1.00  0.00     0.012 A 
HETATM   20  N   UNL     1      29.605  45.922  56.633  1.00  0.00    -0.067 N 
HETATM   21  H   UNL     1      30.084  46.788  56.364  1.00  0.00     0.280 HD
HETATM   22  C   UNL     1      29.211  46.015  58.067  1.00  0.00     0.270 C 
HETATM   23  C   UNL     1      29.876  42.646  53.219  1.00  0.00     0.030 A 
ENDBRANCH  10  13
ENDBRANCH   5   9
BRANCH   3  24
HETATM   24  C   UNL     1      26.952  40.456  47.001  1.00  0.00     0.097 A 
HETATM   25  C   UNL     1      27.393  39.147  47.264  1.00  0.00     0.145 A 
HETATM   26  F   UNL     1      27.143  38.573  48.453  1.00  0.00    -0.204 F 
HETATM   27  C   UNL     1      28.067  38.397  46.301  1.00  0.00     0.045 A 
HETATM   28  C   UNL     1      28.331  38.951  45.051  1.00  0.00     0.003 A 
HETATM   29  C   UNL     1      27.934  40.260  44.776  1.00  0.00     0.002 A 
HETATM   30  C   UNL     1      27.258  41.007  45.745  1.00  0.00     0.035 A 
ENDBRANCH   3  24
TORSDOF 3
ENDMDL
MODEL 10
REMARK VINA RESULT:      -8.5      5.967     10.811
REMARK  3 active torsions:
REMARK  status: ('A' for Active; 'I' for Inactive)
REMARK    1  A    between atoms: N_3  and  C_4 
REMARK    2  A    between atoms: C_12  and  C_13 
REMARK       I    between atoms: C_13  and  N_14 
REMARK    3  A    between atoms: N_14  and  C_15 
ROOT
HETATM    1  C   UNL     1      22.857  41.105  47.300  1.00  0.00     0.070 C 
HETATM    2  C   UNL     1      23.990  41.690  48.111  1.00  0.00     0.036 C 
HETATM    3  N   UNL     1      23.997  43.051  48.456  1.00  0.00    -0.235 N 
HETATM    4  N   UNL     1      25.000  43.644  49.191  1.00  0.00    -0.157 NA
HETATM    5  C   UNL     1      26.021  42.911  49.532  1.00  0.00     0.195 C 
HETATM    6  C   UNL     1      26.162  41.482  49.089  1.00  0.00     0.209 C 
HETATM    7  O   UNL     1      27.216  40.879  49.227  1.00  0.00    -0.286 OA
HETATM    8  C   UNL     1      25.013  40.877  48.415  1.00  0.00     0.084 C 
ENDROOT
BRANCH   5   9
HETATM    9  C   UNL     1      27.097  43.572  50.364  1.00  0.00     0.280 C 
HETATM   10  N   UNL     1      27.441  42.854  51.497  1.00  0.00    -0.322 N 
HETATM   11  H   UNL     1      27.114  41.891  51.521  1.00  0.00     0.169 HD
HETATM   12  O   UNL     1      27.575  44.630  49.982  1.00  0.00    -0.265 OA
BRANCH  10  13
HETATM   13  C   UNL     1      28.228  43.327  52.564  1.00  0.00     0.035 A 
HETATM   14  C   UNL     1      27.829  44.396  53.374  1.00  0.00     0.039 A 
HETATM   15  C   UNL     1      28.624  44.761  54.450  1.00  0.00    -0.022 A 
HETATM   16  C   UNL     1      29.813  44.090  54.730  1.00  0.00    -0.025 A 
HETATM   17  C   UNL     1      28.346  45.813  55.465  1.00  0.00     0.274 C 
HETATM   18  C   UNL     1      30.448  44.646  55.958  1.00  0.00     0.273 C 
HETATM   19  C   UNL     1      30.231  43.035  53.936  1.00  0.00     0.012 A 
HETATM   20  N   UNL     1      29.587  45.846  56.351  1.00  0.00    -0.067 N 
HETATM   21  H   UNL     1      30.111  46.683  56.073  1.00  0.00     0.280 HD
HETATM   22  C   UNL     1      29.284  45.929  57.808  1.00  0.00     0.270 C 
HETATM   23  C   UNL     1      29.426  42.650  52.855  1.00  0.00     0.030 A 
ENDBRANCH  10  13
ENDBRANCH   5   9
BRANCH   3  24
HETATM   24  C   UNL     1      22.992  43.977  48.046  1.00  0.00     0.097 A 
HETATM   25  C   UNL     1      21.981  44.384  48.933  1.00  0.00     0.145 A 
HETATM   26  F   UNL     1      21.945  43.903  50.188  1.00  0.00    -0.204 F 
HETATM   27  C   UNL     1      21.013  45.316  48.559  1.00  0.00     0.045 A 
HETATM   28  C   UNL     1      21.026  45.850  47.273  1.00  0.00     0.003 A 
HETATM   29  C   UNL     1      21.998  45.437  46.362  1.00  0.00     0.002 A 
HETATM   30  C   UNL     1      22.968  44.504  46.743  1.00  0.00     0.035 A 
ENDBRANCH   3  24
TORSDOF 3
ENDMDL
