MODEL 1
REMARK VINA RESULT:      -8.5      0.000      0.000
REMARK  4 active torsions:
REMARK  status: ('A' for Active; 'I' for Inactive)
REMARK    1  A    between atoms: C_2  and  N_3 
REMARK       I    between atoms: N_3  and  C_4 
REMARK       I    between atoms: C_4  and  N_5 
REMARK    2  A    between atoms: N_5  and  C_6 
REMARK    3  A    between atoms: C_14  and  C_15 
REMARK       I    between atoms: C_15  and  N_16 
REMARK    4  A    between atoms: N_16  and  C_17 
ROOT
HETATM    1  C   UNL     1      26.575  48.003  49.831  1.00  0.00     0.031 A 
HETATM    2  C   UNL     1      25.741  46.979  50.271  1.00  0.00     0.037 A 
HETATM    3  C   UNL     1      24.375  47.047  49.968  1.00  0.00     0.048 A 
HETATM    4  C   UNL     1      23.832  48.117  49.222  1.00  0.00     0.055 A 
HETATM    5  C   UNL     1      24.695  49.120  48.763  1.00  0.00     0.049 A 
HETATM    6 CL   UNL     1      24.207  50.462  47.788  1.00  0.00    -0.083 Cl
HETATM    7  C   UNL     1      26.058  49.059  49.075  1.00  0.00     0.027 A 
ENDROOT
BRANCH   2   8
HETATM    8  N   UNL     1      26.186  45.882  51.038  1.00  0.00    -0.309 N 
HETATM    9  C   UNL     1      26.887  44.794  50.597  1.00  0.00     0.325 C 
HETATM   10  N   UNL     1      27.367  43.938  51.551  1.00  0.00    -0.306 N 
HETATM   11  O   UNL     1      27.087  44.503  49.419  1.00  0.00    -0.247 OA
HETATM   12  H   UNL     1      27.739  43.086  51.149  1.00  0.00     0.171 HD
HETATM   13  H   UNL     1      25.764  45.775  51.948  1.00  0.00     0.170 HD
BRANCH  10  14
HETATM   14  C   UNL     1      27.555  44.111  52.907  1.00  0.00     0.072 A 
HETATM   15  C   UNL     1      26.679  44.361  53.985  1.00  0.00     0.169 A 
HETATM   16  N   UNL     1      27.319  44.465  55.154  1.00  0.00    -0.185 NA
HETATM   17  N   UNL     1      28.610  44.322  54.821  1.00  0.00    -0.287 N 
HETATM   18  H   UNL     1      29.307  44.380  55.557  1.00  0.00     0.188 HD
HETATM   19  C   UNL     1      28.804  44.119  53.486  1.00  0.00     0.140 A 
ENDBRANCH  10  14
ENDBRANCH   2   8
BRANCH   4  20
HETATM   20  C   UNL     1      22.353  48.059  48.994  1.00  0.00     0.253 C 
HETATM   21  N   UNL     1      21.589  49.109  49.449  1.00  0.00    -0.352 N 
HETATM   22  H   UNL     1      22.043  49.857  49.957  1.00  0.00     0.163 HD
HETATM   23  O   UNL     1      21.864  47.072  48.455  1.00  0.00    -0.268 OA
BRANCH  21  24
HETATM   24  C   UNL     1      20.132  49.112  49.379  1.00  0.00     0.084 C 
HETATM   25  C   UNL     1      19.537  50.123  50.369  1.00  0.00     0.025 C 
HETATM   26  C   UNL     1      19.766  51.571  49.936  1.00  0.00     0.002 C 
HETATM   27  C   UNL     1      19.255  51.821  48.521  1.00  0.00     0.000 C 
HETATM   28  C   UNL     1      19.865  50.844  47.519  1.00  0.00     0.002 C 
HETATM   29  C   UNL     1      19.658  49.392  47.947  1.00  0.00     0.025 C 
ENDBRANCH  21  24
ENDBRANCH   4  20
TORSDOF 4
ENDMDL
MODEL 2
REMARK VINA RESULT:      -8.5      2.421      7.940
REMARK  4 active torsions:
REMARK  status: ('A' for Active; 'I' for Inactive)
REMARK    1  A    between atoms: C_2  and  N_3 
REMARK       I    between atoms: N_3  and  C_4 
REMARK       I    between atoms: C_4  and  N_5 
REMARK    2  A    between atoms: N_5  and  C_6 
REMARK    3  A    between atoms: C_14  and  C_15 
REMARK       I    between atoms: C_15  and  N_16 
REMARK    4  A    between atoms: N_16  and  C_17 
ROOT
HETATM    1  C   UNL     1      24.490  49.988  47.876  1.00  0.00     0.031 A 
HETATM    2  C   UNL     1      23.628  49.193  48.627  1.00  0.00     0.037 A 
HETATM    3  C   UNL     1      24.176  48.298  49.554  1.00  0.00     0.048 A 
HETATM    4  C   UNL     1      25.571  48.193  49.751  1.00  0.00     0.055 A 
HETATM    5  C   UNL     1      26.417  49.025  49.007  1.00  0.00     0.049 A 
HETATM    6 CL   UNL     1      28.139  49.068  49.169  1.00  0.00    -0.083 Cl
HETATM    7  C   UNL     1      25.872  49.911  48.071  1.00  0.00     0.027 A 
ENDROOT
BRANCH   2   8
HETATM    8  N   UNL     1      22.225  49.212  48.487  1.00  0.00    -0.309 N 
HETATM    9  C   UNL     1      21.450  48.316  47.804  1.00  0.00     0.325 C 
HETATM   10  N   UNL     1      20.094  48.432  47.951  1.00  0.00    -0.306 N 
HETATM   11  O   UNL     1      21.868  47.446  47.042  1.00  0.00    -0.247 OA
HETATM   12  H   UNL     1      19.587  47.840  47.303  1.00  0.00     0.171 HD
HETATM   13  H   UNL     1      21.765  50.079  48.722  1.00  0.00     0.170 HD
BRANCH  10  14
HETATM   14  C   UNL     1      19.342  49.085  48.905  1.00  0.00     0.072 A 
HETATM   15  C   UNL     1      19.105  48.858  50.279  1.00  0.00     0.169 A 
HETATM   16  N   UNL     1      18.281  49.763  50.815  1.00  0.00    -0.185 NA
HETATM   17  N   UNL     1      17.956  50.549  49.777  1.00  0.00    -0.287 N 
HETATM   18  H   UNL     1      17.314  51.318  49.938  1.00  0.00     0.188 HD
HETATM   19  C   UNL     1      18.557  50.176  48.610  1.00  0.00     0.140 A 
ENDBRANCH  10  14
ENDBRANCH   2   8
BRANCH   4  20
HETATM   20  C   UNL     1      26.005  47.180  50.764  1.00  0.00     0.253 C 
HETATM   21  N   UNL     1      26.093  45.866  50.366  1.00  0.00    -0.352 N 
HETATM   22  H   UNL     1      25.821  45.625  49.421  1.00  0.00     0.163 HD
HETATM   23  O   UNL     1      26.225  47.535  51.917  1.00  0.00    -0.268 OA
BRANCH  21  24
HETATM   24  C   UNL     1      26.400  44.780  51.290  1.00  0.00     0.084 C 
HETATM   25  C   UNL     1      25.114  44.148  51.842  1.00  0.00     0.025 C 
HETATM   26  C   UNL     1      24.373  43.320  50.793  1.00  0.00     0.002 C 
HETATM   27  C   UNL     1      25.279  42.266  50.165  1.00  0.00     0.000 C 
HETATM   28  C   UNL     1      26.546  42.885  49.582  1.00  0.00     0.002 C 
HETATM   29  C   UNL     1      27.291  43.729  50.616  1.00  0.00     0.025 C 
ENDBRANCH  21  24
ENDBRANCH   4  20
TORSDOF 4
ENDMDL
MODEL 3
REMARK VINA RESULT:      -8.5      2.405      3.195
REMARK  4 active torsions:
REMARK  status: ('A' for Active; 'I' for Inactive)
REMARK    1  A    between atoms: C_2  and  N_3 
REMARK       I    between atoms: N_3  and  C_4 
REMARK       I    between atoms: C_4  and  N_5 
REMARK    2  A    between atoms: N_5  and  C_6 
REMARK    3  A    between atoms: C_14  and  C_15 
REMARK       I    between atoms: C_15  and  N_16 
REMARK    4  A    between atoms: N_16  and  C_17 
ROOT
HETATM    1  C   UNL     1      24.125  44.039  50.306  1.00  0.00     0.031 A 
HETATM    2  C   UNL     1      24.959  44.897  51.017  1.00  0.00     0.037 A 
HETATM    3  C   UNL     1      24.895  46.271  50.752  1.00  0.00     0.048 A 
HETATM    4  C   UNL     1      24.000  46.802  49.797  1.00  0.00     0.055 A 
HETATM    5  C   UNL     1      23.147  45.923  49.116  1.00  0.00     0.049 A 
HETATM    6 CL   UNL     1      21.953  46.413  47.964  1.00  0.00    -0.083 Cl
HETATM    7  C   UNL     1      23.220  44.549  49.370  1.00  0.00     0.027 A 
ENDROOT
BRANCH   2   8
HETATM    8  N   UNL     1      25.899  44.460  51.974  1.00  0.00    -0.309 N 
HETATM    9  C   UNL     1      25.645  44.037  53.249  1.00  0.00     0.325 C 
HETATM   10  N   UNL     1      26.692  43.491  53.941  1.00  0.00    -0.306 N 
HETATM   11  O   UNL     1      24.570  44.143  53.836  1.00  0.00    -0.247 OA
HETATM   12  H   UNL     1      26.470  43.343  54.918  1.00  0.00     0.171 HD
HETATM   13  H   UNL     1      26.864  44.684  51.785  1.00  0.00     0.170 HD
BRANCH  10  14
HETATM   14  C   UNL     1      27.900  42.988  53.502  1.00  0.00     0.072 A 
HETATM   15  C   UNL     1      29.200  43.529  53.407  1.00  0.00     0.169 A 
HETATM   16  N   UNL     1      30.083  42.661  52.904  1.00  0.00    -0.185 NA
HETATM   17  N   UNL     1      29.342  41.575  52.637  1.00  0.00    -0.287 N 
HETATM   18  H   UNL     1      29.800  40.769  52.225  1.00  0.00     0.188 HD
HETATM   19  C   UNL     1      28.026  41.726  52.967  1.00  0.00     0.140 A 
ENDBRANCH  10  14
ENDBRANCH   2   8
BRANCH   4  20
HETATM   20  C   UNL     1      24.058  48.287  49.614  1.00  0.00     0.253 C 
HETATM   21  N   UNL     1      22.876  48.989  49.653  1.00  0.00    -0.352 N 
HETATM   22  H   UNL     1      22.009  48.477  49.758  1.00  0.00     0.163 HD
HETATM   23  O   UNL     1      25.138  48.825  49.394  1.00  0.00    -0.268 OA
BRANCH  21  24
HETATM   24  C   UNL     1      22.799  50.420  49.381  1.00  0.00     0.084 C 
HETATM   25  C   UNL     1      22.427  50.681  47.914  1.00  0.00     0.025 C 
HETATM   26  C   UNL     1      20.968  50.337  47.611  1.00  0.00     0.002 C 
HETATM   27  C   UNL     1      20.013  51.054  48.558  1.00  0.00     0.000 C 
HETATM   28  C   UNL     1      20.351  50.776  50.020  1.00  0.00     0.002 C 
HETATM   29  C   UNL     1      21.811  51.102  50.335  1.00  0.00     0.025 C 
ENDBRANCH  21  24
ENDBRANCH   4  20
TORSDOF 4
ENDMDL
MODEL 4
REMARK VINA RESULT:      -8.2      1.811      2.483
REMARK  4 active torsions:
REMARK  status: ('A' for Active; 'I' for Inactive)
REMARK    1  A    between atoms: C_2  and  N_3 
REMARK       I    between atoms: N_3  and  C_4 
REMARK       I    between atoms: C_4  and  N_5 
REMARK    2  A    between atoms: N_5  and  C_6 
REMARK    3  A    between atoms: C_14  and  C_15 
REMARK       I    between atoms: C_15  and  N_16 
REMARK    4  A    between atoms: N_16  and  C_17 
ROOT
HETATM    1  C   UNL     1      23.695  44.552  48.655  1.00  0.00     0.031 A 
HETATM    2  C   UNL     1      24.459  45.242  49.592  1.00  0.00     0.037 A 
HETATM    3  C   UNL     1      24.226  46.611  49.773  1.00  0.00     0.048 A 
HETATM    4  C   UNL     1      23.232  47.298  49.041  1.00  0.00     0.055 A 
HETATM    5  C   UNL     1      22.454  46.577  48.127  1.00  0.00     0.049 A 
HETATM    6 CL   UNL     1      21.158  47.250  47.199  1.00  0.00    -0.083 Cl
HETATM    7  C   UNL     1      22.694  45.212  47.935  1.00  0.00     0.027 A 
ENDROOT
BRANCH   2   8
HETATM    8  N   UNL     1      25.486  44.648  50.354  1.00  0.00    -0.309 N 
HETATM    9  C   UNL     1      26.831  44.866  50.243  1.00  0.00     0.325 C 
HETATM   10  N   UNL     1      27.631  44.313  51.206  1.00  0.00    -0.306 N 
HETATM   11  O   UNL     1      27.381  45.482  49.331  1.00  0.00    -0.247 OA
HETATM   12  H   UNL     1      28.615  44.387  50.976  1.00  0.00     0.171 HD
HETATM   13  H   UNL     1      25.232  43.825  50.880  1.00  0.00     0.170 HD
BRANCH  10  14
HETATM   14  C   UNL     1      27.328  43.828  52.461  1.00  0.00     0.072 A 
HETATM   15  C   UNL     1      26.849  44.429  53.646  1.00  0.00     0.169 A 
HETATM   16  N   UNL     1      26.706  43.553  54.645  1.00  0.00    -0.185 NA
HETATM   17  N   UNL     1      27.131  42.397  54.115  1.00  0.00    -0.287 N 
HETATM   18  H   UNL     1      27.131  41.568  54.702  1.00  0.00     0.188 HD
HETATM   19  C   UNL     1      27.525  42.512  52.814  1.00  0.00     0.140 A 
ENDBRANCH  10  14
ENDBRANCH   2   8
BRANCH   4  20
HETATM   20  C   UNL     1      23.112  48.762  49.334  1.00  0.00     0.253 C 
HETATM   21  N   UNL     1      21.855  49.277  49.551  1.00  0.00    -0.352 N 
HETATM   22  H   UNL     1      21.056  48.661  49.462  1.00  0.00     0.163 HD
HETATM   23  O   UNL     1      24.119  49.462  49.329  1.00  0.00    -0.268 OA
BRANCH  21  24
HETATM   24  C   UNL     1      21.607  50.701  49.737  1.00  0.00     0.084 C 
HETATM   25  C   UNL     1      21.357  51.396  48.391  1.00  0.00     0.025 C 
HETATM   26  C   UNL     1      20.002  51.030  47.787  1.00  0.00     0.002 C 
HETATM   27  C   UNL     1      18.861  51.295  48.763  1.00  0.00     0.000 C 
HETATM   28  C   UNL     1      19.080  50.583  50.095  1.00  0.00     0.002 C 
HETATM   29  C   UNL     1      20.438  50.927  50.705  1.00  0.00     0.025 C 
ENDBRANCH  21  24
ENDBRANCH   4  20
TORSDOF 4
ENDMDL
MODEL 5
REMARK VINA RESULT:      -8.1      2.107      2.800
REMARK  4 active torsions:
REMARK  status: ('A' for Active; 'I' for Inactive)
REMARK    1  A    between atoms: C_2  and  N_3 
REMARK       I    between atoms: N_3  and  C_4 
REMARK       I    between atoms: C_4  and  N_5 
REMARK    2  A    between atoms: N_5  and  C_6 
REMARK    3  A    between atoms: C_14  and  C_15 
REMARK       I    between atoms: C_15  and  N_16 
REMARK    4  A    between atoms: N_16  and  C_17 
ROOT
HETATM    1  C   UNL     1      26.360  46.967  50.076  1.00  0.00     0.031 A 
HETATM    2  C   UNL     1      25.416  45.944  50.081  1.00  0.00     0.037 A 
HETATM    3  C   UNL     1      24.109  46.233  49.669  1.00  0.00     0.048 A 
HETATM    4  C   UNL     1      23.734  47.525  49.239  1.00  0.00     0.055 A 
HETATM    5  C   UNL     1      24.708  48.532  49.213  1.00  0.00     0.049 A 
HETATM    6 CL   UNL     1      24.433  50.146  48.657  1.00  0.00    -0.083 Cl
HETATM    7  C   UNL     1      26.011  48.248  49.636  1.00  0.00     0.027 A 
ENDROOT
BRANCH   2   8
HETATM    8  N   UNL     1      25.690  44.629  50.511  1.00  0.00    -0.309 N 
HETATM    9  C   UNL     1      25.116  43.965  51.560  1.00  0.00     0.325 C 
HETATM   10  N   UNL     1      25.408  42.634  51.685  1.00  0.00    -0.306 N 
HETATM   11  O   UNL     1      24.395  44.473  52.417  1.00  0.00    -0.247 OA
HETATM   12  H   UNL     1      25.074  42.249  52.561  1.00  0.00     0.171 HD
HETATM   13  H   UNL     1      26.539  44.213  50.158  1.00  0.00     0.170 HD
BRANCH  10  14
HETATM   14  C   UNL     1      25.928  41.735  50.777  1.00  0.00     0.072 A 
HETATM   15  C   UNL     1      25.415  41.123  49.612  1.00  0.00     0.169 A 
HETATM   16  N   UNL     1      26.291  40.293  49.039  1.00  0.00    -0.185 NA
HETATM   17  N   UNL     1      27.353  40.340  49.857  1.00  0.00    -0.287 N 
HETATM   18  H   UNL     1      28.161  39.768  49.632  1.00  0.00     0.188 HD
HETATM   19  C   UNL     1      27.180  41.181  50.918  1.00  0.00     0.140 A 
ENDBRANCH  10  14
ENDBRANCH   2   8
BRANCH   4  20
HETATM   20  C   UNL     1      22.298  47.682  48.845  1.00  0.00     0.253 C 
HETATM   21  N   UNL     1      21.566  48.674  49.455  1.00  0.00    -0.352 N 
HETATM   22  H   UNL     1      22.008  49.231  50.177  1.00  0.00     0.163 HD
HETATM   23  O   UNL     1      21.807  46.906  48.032  1.00  0.00    -0.268 OA
BRANCH  21  24
HETATM   24  C   UNL     1      20.136  48.851  49.231  1.00  0.00     0.084 C 
HETATM   25  C   UNL     1      19.518  49.749  50.313  1.00  0.00     0.025 C 
HETATM   26  C   UNL     1      19.930  51.213  50.164  1.00  0.00     0.002 C 
HETATM   27  C   UNL     1      19.626  51.744  48.767  1.00  0.00     0.000 C 
HETATM   28  C   UNL     1      20.263  50.880  47.683  1.00  0.00     0.002 C 
HETATM   29  C   UNL     1      19.872  49.410  47.827  1.00  0.00     0.025 C 
ENDBRANCH  21  24
ENDBRANCH   4  20
TORSDOF 4
ENDMDL
MODEL 6
REMARK VINA RESULT:      -8.0      2.983      8.859
REMARK  4 active torsions:
REMARK  status: ('A' for Active; 'I' for Inactive)
REMARK    1  A    between atoms: C_2  and  N_3 
REMARK       I    between atoms: N_3  and  C_4 
REMARK       I    between atoms: C_4  and  N_5 
REMARK    2  A    between atoms: N_5  and  C_6 
REMARK    3  A    between atoms: C_14  and  C_15 
REMARK       I    between atoms: C_15  and  N_16 
REMARK    4  A    between atoms: N_16  and  C_17 
ROOT
HETATM    1  C   UNL     1      24.147  45.253  48.759  1.00  0.00     0.031 A 
HETATM    2  C   UNL     1      24.279  46.174  49.795  1.00  0.00     0.037 A 
HETATM    3  C   UNL     1      24.696  45.718  51.052  1.00  0.00     0.048 A 
HETATM    4  C   UNL     1      24.996  44.357  51.286  1.00  0.00     0.055 A 
HETATM    5  C   UNL     1      24.887  43.454  50.221  1.00  0.00     0.049 A 
HETATM    6 CL   UNL     1      25.275  41.771  50.320  1.00  0.00    -0.083 Cl
HETATM    7  C   UNL     1      24.457  43.906  48.968  1.00  0.00     0.027 A 
ENDROOT
BRANCH   2   8
HETATM    8  N   UNL     1      23.983  47.547  49.664  1.00  0.00    -0.309 N 
HETATM    9  C   UNL     1      24.837  48.544  49.283  1.00  0.00     0.325 C 
HETATM   10  N   UNL     1      24.287  49.777  49.054  1.00  0.00    -0.306 N 
HETATM   11  O   UNL     1      26.056  48.435  49.170  1.00  0.00    -0.247 OA
HETATM   12  H   UNL     1      24.992  50.493  48.927  1.00  0.00     0.171 HD
HETATM   13  H   UNL     1      23.129  47.862  50.099  1.00  0.00     0.170 HD
BRANCH  10  14
HETATM   14  C   UNL     1      22.980  50.154  48.826  1.00  0.00     0.072 A 
HETATM   15  C   UNL     1      22.138  50.103  47.694  1.00  0.00     0.169 A 
HETATM   16  N   UNL     1      20.920  50.599  47.937  1.00  0.00    -0.185 NA
HETATM   17  N   UNL     1      20.993  51.005  49.213  1.00  0.00    -0.287 N 
HETATM   18  H   UNL     1      20.175  51.439  49.628  1.00  0.00     0.188 HD
HETATM   19  C   UNL     1      22.210  50.771  49.785  1.00  0.00     0.140 A 
ENDBRANCH  10  14
ENDBRANCH   2   8
BRANCH   4  20
HETATM   20  C   UNL     1      25.413  44.020  52.684  1.00  0.00     0.253 C 
HETATM   21  N   UNL     1      26.662  43.474  52.871  1.00  0.00    -0.352 N 
HETATM   22  H   UNL     1      27.234  43.279  52.059  1.00  0.00     0.163 HD
HETATM   23  O   UNL     1      24.626  44.196  53.607  1.00  0.00    -0.268 OA
BRANCH  21  24
HETATM   24  C   UNL     1      27.133  43.008  54.170  1.00  0.00     0.084 C 
HETATM   25  C   UNL     1      28.102  41.827  54.012  1.00  0.00     0.025 C 
HETATM   26  C   UNL     1      29.456  42.253  53.445  1.00  0.00     0.002 C 
HETATM   27  C   UNL     1      30.083  43.373  54.268  1.00  0.00     0.000 C 
HETATM   28  C   UNL     1      29.143  44.568  54.405  1.00  0.00     0.002 C 
HETATM   29  C   UNL     1      27.779  44.156  54.957  1.00  0.00     0.025 C 
ENDBRANCH  21  24
ENDBRANCH   4  20
TORSDOF 4
ENDMDL
MODEL 7
REMARK VINA RESULT:      -7.9      4.724      7.418
REMARK  4 active torsions:
REMARK  status: ('A' for Active; 'I' for Inactive)
REMARK    1  A    between atoms: C_2  and  N_3 
REMARK       I    between atoms: N_3  and  C_4 
REMARK       I    between atoms: C_4  and  N_5 
REMARK    2  A    between atoms: N_5  and  C_6 
REMARK    3  A    between atoms: C_14  and  C_15 
REMARK       I    between atoms: C_15  and  N_16 
REMARK    4  A    between atoms: N_16  and  C_17 
ROOT
HETATM    1  C   UNL     1      29.776  41.710  53.412  1.00  0.00     0.031 A 
HETATM    2  C   UNL     1      28.639  41.419  52.663  1.00  0.00     0.037 A 
HETATM    3  C   UNL     1      27.577  42.332  52.671  1.00  0.00     0.048 A 
HETATM    4  C   UNL     1      27.639  43.537  53.406  1.00  0.00     0.055 A 
HETATM    5  C   UNL     1      28.805  43.824  54.127  1.00  0.00     0.049 A 
HETATM    6 CL   UNL     1      29.069  45.278  55.026  1.00  0.00    -0.083 Cl
HETATM    7  C   UNL     1      29.862  42.906  54.130  1.00  0.00     0.027 A 
ENDROOT
BRANCH   2   8
HETATM    8  N   UNL     1      28.476  40.235  51.916  1.00  0.00    -0.309 N 
HETATM    9  C   UNL     1      28.408  40.117  50.555  1.00  0.00     0.325 C 
HETATM   10  N   UNL     1      28.426  38.849  50.041  1.00  0.00    -0.306 N 
HETATM   11  O   UNL     1      28.293  41.051  49.763  1.00  0.00    -0.247 OA
HETATM   12  H   UNL     1      28.221  38.835  49.048  1.00  0.00     0.171 HD
HETATM   13  H   UNL     1      28.161  39.424  52.428  1.00  0.00     0.170 HD
BRANCH  10  14
HETATM   14  C   UNL     1      28.815  37.652  50.604  1.00  0.00     0.072 A 
HETATM   15  C   UNL     1      29.976  37.232  51.289  1.00  0.00     0.169 A 
HETATM   16  N   UNL     1      29.919  35.948  51.659  1.00  0.00    -0.185 NA
HETATM   17  N   UNL     1      28.738  35.533  51.177  1.00  0.00    -0.287 N 
HETATM   18  H   UNL     1      28.472  34.565  51.324  1.00  0.00     0.188 HD
HETATM   19  C   UNL     1      28.046  36.513  50.528  1.00  0.00     0.140 A 
ENDBRANCH  10  14
ENDBRANCH   2   8
BRANCH   4  20
HETATM   20  C   UNL     1      26.420  44.403  53.329  1.00  0.00     0.253 C 
HETATM   21  N   UNL     1      25.951  44.750  52.083  1.00  0.00    -0.352 N 
HETATM   22  H   UNL     1      26.470  44.448  51.267  1.00  0.00     0.163 HD
HETATM   23  O   UNL     1      25.902  44.809  54.364  1.00  0.00    -0.268 OA
BRANCH  21  24
HETATM   24  C   UNL     1      24.840  45.673  51.887  1.00  0.00     0.084 C 
HETATM   25  C   UNL     1      25.299  47.128  52.049  1.00  0.00     0.025 C 
HETATM   26  C   UNL     1      26.166  47.602  50.883  1.00  0.00     0.002 C 
HETATM   27  C   UNL     1      25.469  47.391  49.543  1.00  0.00     0.000 C 
HETATM   28  C   UNL     1      25.037  45.940  49.353  1.00  0.00     0.002 C 
HETATM   29  C   UNL     1      24.182  45.447  50.519  1.00  0.00     0.025 C 
ENDBRANCH  21  24
ENDBRANCH   4  20
TORSDOF 4
ENDMDL
MODEL 8
REMARK VINA RESULT:      -7.7      2.685      8.298
REMARK  4 active torsions:
REMARK  status: ('A' for Active; 'I' for Inactive)
REMARK    1  A    between atoms: C_2  and  N_3 
REMARK       I    between atoms: N_3  and  C_4 
REMARK       I    between atoms: C_4  and  N_5 
REMARK    2  A    between atoms: N_5  and  C_6 
REMARK    3  A    between atoms: C_14  and  C_15 
REMARK       I    between atoms: C_15  and  N_16 
REMARK    4  A    between atoms: N_16  and  C_17 
ROOT
HETATM    1  C   UNL     1      22.813  49.863  47.896  1.00  0.00     0.031 A 
HETATM    2  C   UNL     1      22.358  48.817  48.694  1.00  0.00     0.037 A 
HETATM    3  C   UNL     1      23.293  48.072  49.425  1.00  0.00     0.048 A 
HETATM    4  C   UNL     1      24.674  48.365  49.380  1.00  0.00     0.055 A 
HETATM    5  C   UNL     1      25.106  49.442  48.595  1.00  0.00     0.049 A 
HETATM    6 CL   UNL     1      26.748  49.972  48.478  1.00  0.00    -0.083 Cl
HETATM    7  C   UNL     1      24.175  50.179  47.854  1.00  0.00     0.027 A 
ENDROOT
BRANCH   2   8
HETATM    8  N   UNL     1      21.003  48.437  48.788  1.00  0.00    -0.309 N 
HETATM    9  C   UNL     1      20.006  49.085  49.462  1.00  0.00     0.325 C 
HETATM   10  N   UNL     1      18.730  48.631  49.268  1.00  0.00    -0.306 N 
HETATM   11  O   UNL     1      20.167  50.012  50.254  1.00  0.00    -0.247 OA
HETATM   12  H   UNL     1      18.071  49.055  49.910  1.00  0.00     0.171 HD
HETATM   13  H   UNL     1      20.788  47.488  48.520  1.00  0.00     0.170 HD
BRANCH  10  14
HETATM   14  C   UNL     1      18.196  47.834  48.277  1.00  0.00     0.072 A 
HETATM   15  C   UNL     1      18.349  47.795  46.874  1.00  0.00     0.169 A 
HETATM   16  N   UNL     1      17.614  46.836  46.303  1.00  0.00    -0.185 NA
HETATM   17  N   UNL     1      16.958  46.284  47.335  1.00  0.00    -0.287 N 
HETATM   18  H   UNL     1      16.311  45.525  47.145  1.00  0.00     0.188 HD
HETATM   19  C   UNL     1      17.264  46.855  48.536  1.00  0.00     0.140 A 
ENDBRANCH  10  14
ENDBRANCH   2   8
BRANCH   4  20
HETATM   20  C   UNL     1      25.550  47.470  50.201  1.00  0.00     0.253 C 
HETATM   21  N   UNL     1      25.307  46.117  50.162  1.00  0.00    -0.352 N 
HETATM   22  H   UNL     1      24.522  45.779  49.619  1.00  0.00     0.163 HD
HETATM   23  O   UNL     1      26.420  47.964  50.910  1.00  0.00    -0.268 OA
BRANCH  21  24
HETATM   24  C   UNL     1      26.023  45.162  51.000  1.00  0.00     0.084 C 
HETATM   25  C   UNL     1      25.044  44.282  51.791  1.00  0.00     0.025 C 
HETATM   26  C   UNL     1      24.319  43.271  50.903  1.00  0.00     0.002 C 
HETATM   27  C   UNL     1      25.300  42.421  50.103  1.00  0.00     0.000 C 
HETATM   28  C   UNL     1      26.258  43.283  49.285  1.00  0.00     0.002 C 
HETATM   29  C   UNL     1      26.980  44.310  50.157  1.00  0.00     0.025 C 
ENDBRANCH  21  24
ENDBRANCH   4  20
TORSDOF 4
ENDMDL
MODEL 9
REMARK VINA RESULT:      -7.6      4.154      9.081
REMARK  4 active torsions:
REMARK  status: ('A' for Active; 'I' for Inactive)
REMARK    1  A    between atoms: C_2  and  N_3 
REMARK       I    between atoms: N_3  and  C_4 
REMARK       I    between atoms: C_4  and  N_5 
REMARK    2  A    between atoms: N_5  and  C_6 
REMARK    3  A    between atoms: C_14  and  C_15 
REMARK       I    between atoms: C_15  and  N_16 
REMARK    4  A    between atoms: N_16  and  C_17 
ROOT
HETATM    1  C   UNL     1      27.182  45.361  53.105  1.00  0.00     0.031 A 
HETATM    2  C   UNL     1      26.696  44.814  51.921  1.00  0.00     0.037 A 
HETATM    3  C   UNL     1      27.127  43.536  51.543  1.00  0.00     0.048 A 
HETATM    4  C   UNL     1      28.028  42.792  52.337  1.00  0.00     0.055 A 
HETATM    5  C   UNL     1      28.480  43.349  53.539  1.00  0.00     0.049 A 
HETATM    6 CL   UNL     1      29.533  42.550  54.655  1.00  0.00    -0.083 Cl
HETATM    7  C   UNL     1      28.060  44.631  53.912  1.00  0.00     0.027 A 
ENDROOT
BRANCH   2   8
HETATM    8  N   UNL     1      25.811  45.487  51.053  1.00  0.00    -0.309 N 
HETATM    9  C   UNL     1      24.462  45.298  50.937  1.00  0.00     0.325 C 
HETATM   10  N   UNL     1      23.776  46.188  50.156  1.00  0.00    -0.306 N 
HETATM   11  O   UNL     1      23.825  44.375  51.442  1.00  0.00    -0.247 OA
HETATM   12  H   UNL     1      22.818  45.898  49.994  1.00  0.00     0.171 HD
HETATM   13  H   UNL     1      26.235  45.999  50.294  1.00  0.00     0.170 HD
BRANCH  10  14
HETATM   14  C   UNL     1      24.123  47.442  49.698  1.00  0.00     0.072 A 
HETATM   15  C   UNL     1      25.356  48.115  49.550  1.00  0.00     0.169 A 
HETATM   16  N   UNL     1      25.211  49.351  49.062  1.00  0.00    -0.185 NA
HETATM   17  N   UNL     1      23.882  49.487  48.934  1.00  0.00    -0.287 N 
HETATM   18  H   UNL     1      23.520  50.369  48.587  1.00  0.00     0.188 HD
HETATM   19  C   UNL     1      23.188  48.375  49.313  1.00  0.00     0.140 A 
ENDBRANCH  10  14
ENDBRANCH   2   8
BRANCH   4  20
HETATM   20  C   UNL     1      28.409  41.450  51.793  1.00  0.00     0.253 C 
HETATM   21  N   UNL     1      27.958  41.109  50.539  1.00  0.00    -0.352 N 
HETATM   22  H   UNL     1      27.351  41.755  50.048  1.00  0.00     0.163 HD
HETATM   23  O   UNL     1      29.068  40.683  52.487  1.00  0.00    -0.268 OA
BRANCH  21  24
HETATM   24  C   UNL     1      28.175  39.792  49.952  1.00  0.00     0.084 C 
HETATM   25  C   UNL     1      26.840  39.094  49.659  1.00  0.00     0.025 C 
HETATM   26  C   UNL     1      26.097  39.723  48.480  1.00  0.00     0.002 C 
HETATM   27  C   UNL     1      26.972  39.782  47.233  1.00  0.00     0.000 C 
HETATM   28  C   UNL     1      28.290  40.504  47.501  1.00  0.00     0.002 C 
HETATM   29  C   UNL     1      29.037  39.896  48.688  1.00  0.00     0.025 C 
ENDBRANCH  21  24
ENDBRANCH   4  20
TORSDOF 4
ENDMDL
MODEL 10
REMARK VINA RESULT:      -7.5      1.862      2.705
REMARK  4 active torsions:
REMARK  status: ('A' for Active; 'I' for Inactive)
REMARK    1  A    between atoms: C_2  and  N_3 
REMARK       I    between atoms: N_3  and  C_4 
REMARK       I    between atoms: C_4  and  N_5 
REMARK    2  A    between atoms: N_5  and  C_6 
REMARK    3  A    between atoms: C_14  and  C_15 
REMARK       I    between atoms: C_15  and  N_16 
REMARK    4  A    between atoms: N_16  and  C_17 
ROOT
HETATM    1  C   UNL     1      26.662  48.086  49.752  1.00  0.00     0.031 A 
HETATM    2  C   UNL     1      25.826  47.104  50.276  1.00  0.00     0.037 A 
HETATM    3  C   UNL     1      24.448  47.201  50.046  1.00  0.00     0.048 A 
HETATM    4  C   UNL     1      23.894  48.258  49.290  1.00  0.00     0.055 A 
HETATM    5  C   UNL     1      24.757  49.218  48.747  1.00  0.00     0.049 A 
HETATM    6 CL   UNL     1      24.252  50.537  47.749  1.00  0.00    -0.083 Cl
HETATM    7  C   UNL     1      26.133  49.129  48.986  1.00  0.00     0.027 A 
ENDROOT
BRANCH   2   8
HETATM    8  N   UNL     1      26.283  46.024  51.059  1.00  0.00    -0.309 N 
HETATM    9  C   UNL     1      26.911  44.891  50.620  1.00  0.00     0.325 C 
HETATM   10  N   UNL     1      27.424  44.057  51.576  1.00  0.00    -0.306 N 
HETATM   11  O   UNL     1      27.015  44.542  49.445  1.00  0.00    -0.247 OA
HETATM   12  H   UNL     1      27.735  43.174  51.188  1.00  0.00     0.171 HD
HETATM   13  H   UNL     1      25.923  45.972  52.000  1.00  0.00     0.170 HD
BRANCH  10  14
HETATM   14  C   UNL     1      27.715  44.279  52.906  1.00  0.00     0.072 A 
HETATM   15  C   UNL     1      27.016  44.904  53.962  1.00  0.00     0.169 A 
HETATM   16  N   UNL     1      27.702  44.894  55.109  1.00  0.00    -0.185 NA
HETATM   17  N   UNL     1      28.858  44.299  54.781  1.00  0.00    -0.287 N 
HETATM   18  H   UNL     1      29.564  44.188  55.502  1.00  0.00     0.188 HD
HETATM   19  C   UNL     1      28.918  43.923  53.471  1.00  0.00     0.140 A 
ENDBRANCH  10  14
ENDBRANCH   2   8
BRANCH   4  20
HETATM   20  C   UNL     1      22.404  48.236  49.146  1.00  0.00     0.253 C 
HETATM   21  N   UNL     1      21.816  47.074  48.700  1.00  0.00    -0.352 N 
HETATM   22  H   UNL     1      22.410  46.296  48.444  1.00  0.00     0.163 HD
HETATM   23  O   UNL     1      21.759  49.251  49.384  1.00  0.00    -0.268 OA
BRANCH  21  24
HETATM   24  C   UNL     1      20.389  46.970  48.420  1.00  0.00     0.084 C 
HETATM   25  C   UNL     1      20.064  47.506  47.018  1.00  0.00     0.025 C 
HETATM   26  C   UNL     1      20.559  46.580  45.908  1.00  0.00     0.002 C 
HETATM   27  C   UNL     1      20.037  45.159  46.087  1.00  0.00     0.000 C 
HETATM   28  C   UNL     1      20.383  44.600  47.465  1.00  0.00     0.002 C 
HETATM   29  C   UNL     1      19.908  45.523  48.586  1.00  0.00     0.025 C 
ENDBRANCH  21  24
ENDBRANCH   4  20
TORSDOF 4
ENDMDL
