MODEL 1
REMARK VINA RESULT:     -10.5      0.000      0.000
REMARK  2 active torsions:
REMARK  status: ('A' for Active; 'I' for Inactive)
REMARK    1  A    between atoms: C_5  and  N_6 
REMARK    2  A    between atoms: C_8  and  C_9 
REMARK       I    between atoms: C_9  and  N_10 
ROOT
HETATM    1  C   UNL     1      24.841  44.818  51.868  1.00  0.00     0.279 C 
HETATM    2  N   UNL     1      24.482  45.589  50.736  1.00  0.00    -0.301 N 
HETATM    3  C   UNL     1      23.695  45.053  49.656  1.00  0.00     0.067 A 
HETATM    4  C   UNL     1      23.083  45.916  48.735  1.00  0.00     0.079 A 
HETATM    5  C   UNL     1      22.301  45.377  47.716  1.00  0.00     0.148 A 
HETATM    6  N   UNL     1      22.102  44.056  47.533  1.00  0.00    -0.271 NA
HETATM    7  C   UNL     1      22.715  43.238  48.409  1.00  0.00     0.118 A 
HETATM    8  C   UNL     1      23.508  43.679  49.461  1.00  0.00     0.051 A 
HETATM    9  N   UNL     1      23.216  47.301  48.827  1.00  0.00    -0.323 N 
HETATM   10  C   UNL     1      24.004  47.912  49.753  1.00  0.00     0.240 C 
HETATM   11  O   UNL     1      24.098  49.139  49.771  1.00  0.00    -0.271 OA
HETATM   12  C   UNL     1      24.826  47.016  50.664  1.00  0.00     0.235 C 
HETATM   13  O   UNL     1      24.310  43.736  52.130  1.00  0.00    -0.265 OA
HETATM   14  H   UNL     1      22.726  47.914  48.189  1.00  0.00     0.169 HD
ENDROOT
BRANCH   1  15
HETATM   15  C   UNL     1      25.861  45.333  52.817  1.00  0.00     0.147 A 
HETATM   16  N   UNL     1      26.845  44.605  53.361  1.00  0.00    -0.162 NA
HETATM   17  N   UNL     1      27.556  45.447  54.172  1.00  0.00    -0.238 N 
HETATM   18  C   UNL     1      26.992  46.721  54.161  1.00  0.00     0.035 A 
HETATM   19  C   UNL     1      25.902  46.650  53.318  1.00  0.00     0.066 A 
HETATM   20  C   UNL     1      27.461  47.923  54.892  1.00  0.00     0.070 C 
BRANCH  17  21
HETATM   21  C   UNL     1      28.703  44.920  54.855  1.00  0.00     0.058 A 
HETATM   22  C   UNL     1      29.187  45.602  55.988  1.00  0.00     0.032 A 
HETATM   23  C   UNL     1      30.289  45.126  56.708  1.00  0.00     0.009 A 
HETATM   24  C   UNL     1      30.944  43.961  56.307  1.00  0.00    -0.062 A 
HETATM   25  C   UNL     1      32.109  43.421  57.082  1.00  0.00     0.048 C 
HETATM   26  C   UNL     1      30.474  43.280  55.182  1.00  0.00     0.009 A 
HETATM   27  C   UNL     1      29.368  43.754  54.461  1.00  0.00     0.032 A 
ENDBRANCH  17  21
ENDBRANCH   1  15
TORSDOF 2
ENDMDL
MODEL 2
REMARK VINA RESULT:     -10.4      2.393      3.597
REMARK  2 active torsions:
REMARK  status: ('A' for Active; 'I' for Inactive)
REMARK    1  A    between atoms: C_5  and  N_6 
REMARK    2  A    between atoms: C_8  and  C_9 
REMARK       I    between atoms: C_9  and  N_10 
ROOT
HETATM    1  C   UNL     1      25.035  46.081  50.359  1.00  0.00     0.279 C 
HETATM    2  N   UNL     1      25.455  47.190  49.585  1.00  0.00    -0.301 N 
HETATM    3  C   UNL     1      24.523  48.080  48.943  1.00  0.00     0.067 A 
HETATM    4  C   UNL     1      24.952  49.332  48.480  1.00  0.00     0.079 A 
HETATM    5  C   UNL     1      24.027  50.190  47.889  1.00  0.00     0.148 A 
HETATM    6  N   UNL     1      22.725  49.889  47.707  1.00  0.00    -0.271 NA
HETATM    7  C   UNL     1      22.333  48.674  48.134  1.00  0.00     0.118 A 
HETATM    8  C   UNL     1      23.177  47.753  48.740  1.00  0.00     0.051 A 
HETATM    9  N   UNL     1      26.275  49.752  48.617  1.00  0.00    -0.323 N 
HETATM   10  C   UNL     1      27.257  48.961  49.129  1.00  0.00     0.240 C 
HETATM   11  O   UNL     1      28.411  49.380  49.204  1.00  0.00    -0.271 OA
HETATM   12  C   UNL     1      26.881  47.532  49.485  1.00  0.00     0.235 C 
HETATM   13  O   UNL     1      23.871  45.942  50.743  1.00  0.00    -0.265 OA
HETATM   14  H   UNL     1      26.559  50.679  48.327  1.00  0.00     0.169 HD
ENDROOT
BRANCH   1  15
HETATM   15  C   UNL     1      26.024  45.055  50.776  1.00  0.00     0.147 A 
HETATM   16  N   UNL     1      26.844  45.159  51.831  1.00  0.00    -0.162 NA
HETATM   17  N   UNL     1      27.590  44.012  51.864  1.00  0.00    -0.238 N 
HETATM   18  C   UNL     1      27.254  43.184  50.795  1.00  0.00     0.035 A 
HETATM   19  C   UNL     1      26.275  43.851  50.087  1.00  0.00     0.066 A 
HETATM   20  C   UNL     1      27.817  41.851  50.473  1.00  0.00     0.070 C 
BRANCH  17  21
HETATM   21  C   UNL     1      28.534  43.850  52.933  1.00  0.00     0.058 A 
HETATM   22  C   UNL     1      28.366  44.614  54.104  1.00  0.00     0.032 A 
HETATM   23  C   UNL     1      29.242  44.485  55.188  1.00  0.00     0.009 A 
HETATM   24  C   UNL     1      30.315  43.596  55.127  1.00  0.00    -0.062 A 
HETATM   25  C   UNL     1      31.247  43.424  56.289  1.00  0.00     0.048 C 
HETATM   26  C   UNL     1      30.492  42.837  53.968  1.00  0.00     0.009 A 
HETATM   27  C   UNL     1      29.615  42.963  52.881  1.00  0.00     0.032 A 
ENDBRANCH  17  21
ENDBRANCH   1  15
TORSDOF 2
ENDMDL
MODEL 3
REMARK VINA RESULT:     -10.4      2.930      8.430
REMARK  2 active torsions:
REMARK  status: ('A' for Active; 'I' for Inactive)
REMARK    1  A    between atoms: C_5  and  N_6 
REMARK    2  A    between atoms: C_8  and  C_9 
REMARK       I    between atoms: C_9  and  N_10 
ROOT
HETATM    1  C   UNL     1      26.116  46.489  51.820  1.00  0.00     0.279 C 
HETATM    2  N   UNL     1      26.745  45.270  51.468  1.00  0.00    -0.301 N 
HETATM    3  C   UNL     1      27.358  44.408  52.445  1.00  0.00     0.067 A 
HETATM    4  C   UNL     1      27.664  43.079  52.118  1.00  0.00     0.079 A 
HETATM    5  C   UNL     1      28.229  42.255  53.088  1.00  0.00     0.148 A 
HETATM    6  N   UNL     1      28.529  42.655  54.340  1.00  0.00    -0.271 NA
HETATM    7  C   UNL     1      28.253  43.940  54.633  1.00  0.00     0.118 A 
HETATM    8  C   UNL     1      27.685  44.836  53.738  1.00  0.00     0.051 A 
HETATM    9  N   UNL     1      27.395  42.554  50.854  1.00  0.00    -0.323 N 
HETATM   10  C   UNL     1      26.898  43.299  49.830  1.00  0.00     0.240 C 
HETATM   11  O   UNL     1      26.702  42.784  48.730  1.00  0.00    -0.271 OA
HETATM   12  C   UNL     1      26.713  44.787  50.080  1.00  0.00     0.235 C 
HETATM   13  O   UNL     1      25.829  46.775  52.985  1.00  0.00    -0.265 OA
HETATM   14  H   UNL     1      27.571  41.579  50.648  1.00  0.00     0.169 HD
ENDROOT
BRANCH   1  15
HETATM   15  C   UNL     1      25.735  47.455  50.759  1.00  0.00     0.147 A 
HETATM   16  N   UNL     1      24.479  47.768  50.415  1.00  0.00    -0.162 NA
HETATM   17  N   UNL     1      24.564  48.686  49.404  1.00  0.00    -0.238 N 
HETATM   18  C   UNL     1      25.898  48.935  49.086  1.00  0.00     0.035 A 
HETATM   19  C   UNL     1      26.647  48.140  49.929  1.00  0.00     0.066 A 
HETATM   20  C   UNL     1      26.423  49.867  48.060  1.00  0.00     0.070 C 
BRANCH  17  21
HETATM   21  C   UNL     1      23.343  49.221  48.871  1.00  0.00     0.058 A 
HETATM   22  C   UNL     1      22.461  48.351  48.201  1.00  0.00     0.032 A 
HETATM   23  C   UNL     1      21.246  48.810  47.678  1.00  0.00     0.009 A 
HETATM   24  C   UNL     1      20.886  50.152  47.802  1.00  0.00    -0.062 A 
HETATM   25  C   UNL     1      19.576  50.655  47.273  1.00  0.00     0.048 C 
HETATM   26  C   UNL     1      21.756  51.022  48.462  1.00  0.00     0.009 A 
HETATM   27  C   UNL     1      22.973  50.564  48.988  1.00  0.00     0.032 A 
ENDBRANCH  17  21
ENDBRANCH   1  15
TORSDOF 2
ENDMDL
MODEL 4
REMARK VINA RESULT:     -10.1      1.420      2.234
REMARK  2 active torsions:
REMARK  status: ('A' for Active; 'I' for Inactive)
REMARK    1  A    between atoms: C_5  and  N_6 
REMARK    2  A    between atoms: C_8  and  C_9 
REMARK       I    between atoms: C_9  and  N_10 
ROOT
HETATM    1  C   UNL     1      25.140  44.145  51.576  1.00  0.00     0.279 C 
HETATM    2  N   UNL     1      25.014  45.205  50.646  1.00  0.00    -0.301 N 
HETATM    3  C   UNL     1      23.866  45.345  49.787  1.00  0.00     0.067 A 
HETATM    4  C   UNL     1      23.619  46.561  49.135  1.00  0.00     0.079 A 
HETATM    5  C   UNL     1      22.488  46.684  48.333  1.00  0.00     0.148 A 
HETATM    6  N   UNL     1      21.603  45.689  48.115  1.00  0.00    -0.271 NA
HETATM    7  C   UNL     1      21.866  44.519  48.727  1.00  0.00     0.118 A 
HETATM    8  C   UNL     1      22.963  44.301  49.550  1.00  0.00     0.051 A 
HETATM    9  N   UNL     1      24.464  47.661  49.289  1.00  0.00    -0.323 N 
HETATM   10  C   UNL     1      25.620  47.616  50.006  1.00  0.00     0.240 C 
HETATM   11  O   UNL     1      26.335  48.614  50.087  1.00  0.00    -0.271 OA
HETATM   12  C   UNL     1      26.023  46.272  50.588  1.00  0.00     0.235 C 
HETATM   13  O   UNL     1      24.191  43.424  51.894  1.00  0.00    -0.265 OA
HETATM   14  H   UNL     1      24.245  48.549  48.856  1.00  0.00     0.169 HD
ENDROOT
BRANCH   1  15
HETATM   15  C   UNL     1      26.444  43.901  52.244  1.00  0.00     0.147 A 
HETATM   16  N   UNL     1      26.892  44.556  53.323  1.00  0.00    -0.162 NA
HETATM   17  N   UNL     1      28.123  44.037  53.616  1.00  0.00    -0.238 N 
HETATM   18  C   UNL     1      28.469  43.057  52.688  1.00  0.00     0.035 A 
HETATM   19  C   UNL     1      27.416  42.981  51.800  1.00  0.00     0.066 A 
HETATM   20  C   UNL     1      29.709  42.245  52.652  1.00  0.00     0.070 C 
BRANCH  17  21
HETATM   21  C   UNL     1      28.815  44.544  54.767  1.00  0.00     0.058 A 
HETATM   22  C   UNL     1      28.234  45.603  55.492  1.00  0.00     0.032 A 
HETATM   23  C   UNL     1      28.851  46.127  56.634  1.00  0.00     0.009 A 
HETATM   24  C   UNL     1      30.070  45.613  57.077  1.00  0.00    -0.062 A 
HETATM   25  C   UNL     1      30.731  46.142  58.314  1.00  0.00     0.048 C 
HETATM   26  C   UNL     1      30.655  44.564  56.362  1.00  0.00     0.009 A 
HETATM   27  C   UNL     1      30.038  44.037  55.219  1.00  0.00     0.032 A 
ENDBRANCH  17  21
ENDBRANCH   1  15
TORSDOF 2
ENDMDL
MODEL 5
REMARK VINA RESULT:     -10.0      3.227      8.256
REMARK  2 active torsions:
REMARK  status: ('A' for Active; 'I' for Inactive)
REMARK    1  A    between atoms: C_5  and  N_6 
REMARK    2  A    between atoms: C_8  and  C_9 
REMARK       I    between atoms: C_9  and  N_10 
ROOT
HETATM    1  C   UNL     1      26.679  46.182  50.384  1.00  0.00     0.279 C 
HETATM    2  N   UNL     1      26.442  45.930  51.757  1.00  0.00    -0.301 N 
HETATM    3  C   UNL     1      26.767  44.671  52.377  1.00  0.00     0.067 A 
HETATM    4  C   UNL     1      26.835  44.572  53.774  1.00  0.00     0.079 A 
HETATM    5  C   UNL     1      27.181  43.353  54.351  1.00  0.00     0.148 A 
HETATM    6  N   UNL     1      27.441  42.230  53.651  1.00  0.00    -0.271 NA
HETATM    7  C   UNL     1      27.348  42.333  52.311  1.00  0.00     0.118 A 
HETATM    8  C   UNL     1      27.017  43.505  51.643  1.00  0.00     0.051 A 
HETATM    9  N   UNL     1      26.589  45.669  54.600  1.00  0.00    -0.323 N 
HETATM   10  C   UNL     1      26.191  46.881  54.128  1.00  0.00     0.240 C 
HETATM   11  O   UNL     1      25.968  47.805  54.909  1.00  0.00    -0.271 OA
HETATM   12  C   UNL     1      25.933  46.993  52.634  1.00  0.00     0.235 C 
HETATM   13  O   UNL     1      27.395  45.456  49.689  1.00  0.00    -0.265 OA
HETATM   14  H   UNL     1      26.694  45.597  55.604  1.00  0.00     0.169 HD
ENDROOT
BRANCH   1  15
HETATM   15  C   UNL     1      26.092  47.386  49.744  1.00  0.00     0.147 A 
HETATM   16  N   UNL     1      24.782  47.604  49.565  1.00  0.00    -0.162 NA
HETATM   17  N   UNL     1      24.666  48.817  48.942  1.00  0.00    -0.238 N 
HETATM   18  C   UNL     1      25.926  49.360  48.699  1.00  0.00     0.035 A 
HETATM   19  C   UNL     1      26.837  48.446  49.186  1.00  0.00     0.066 A 
HETATM   20  C   UNL     1      26.241  50.659  48.057  1.00  0.00     0.070 C 
BRANCH  17  21
HETATM   21  C   UNL     1      23.347  49.311  48.665  1.00  0.00     0.058 A 
HETATM   22  C   UNL     1      23.006  50.607  49.099  1.00  0.00     0.032 A 
HETATM   23  C   UNL     1      21.743  51.152  48.841  1.00  0.00     0.009 A 
HETATM   24  C   UNL     1      20.783  50.412  48.151  1.00  0.00    -0.062 A 
HETATM   25  C   UNL     1      19.434  50.989  47.841  1.00  0.00     0.048 C 
HETATM   26  C   UNL     1      21.111  49.125  47.719  1.00  0.00     0.009 A 
HETATM   27  C   UNL     1      22.377  48.578  47.975  1.00  0.00     0.032 A 
ENDBRANCH  17  21
ENDBRANCH   1  15
TORSDOF 2
ENDMDL
MODEL 6
REMARK VINA RESULT:      -9.9      1.427      2.841
REMARK  2 active torsions:
REMARK  status: ('A' for Active; 'I' for Inactive)
REMARK    1  A    between atoms: C_5  and  N_6 
REMARK    2  A    between atoms: C_8  and  C_9 
REMARK       I    between atoms: C_9  and  N_10 
ROOT
HETATM    1  C   UNL     1      25.417  46.479  51.415  1.00  0.00     0.279 C 
HETATM    2  N   UNL     1      24.375  45.990  50.589  1.00  0.00    -0.301 N 
HETATM    3  C   UNL     1      23.718  46.814  49.608  1.00  0.00     0.067 A 
HETATM    4  C   UNL     1      22.946  46.224  48.597  1.00  0.00     0.079 A 
HETATM    5  C   UNL     1      22.343  47.038  47.641  1.00  0.00     0.148 A 
HETATM    6  N   UNL     1      22.434  48.383  47.627  1.00  0.00    -0.271 NA
HETATM    7  C   UNL     1      23.158  48.938  48.616  1.00  0.00     0.118 A 
HETATM    8  C   UNL     1      23.801  48.212  49.611  1.00  0.00     0.051 A 
HETATM    9  N   UNL     1      22.784  44.841  48.511  1.00  0.00    -0.323 N 
HETATM   10  C   UNL     1      23.287  43.974  49.431  1.00  0.00     0.240 C 
HETATM   11  O   UNL     1      23.092  42.765  49.312  1.00  0.00    -0.271 OA
HETATM   12  C   UNL     1      23.983  44.575  50.641  1.00  0.00     0.235 C 
HETATM   13  O   UNL     1      25.999  47.543  51.189  1.00  0.00    -0.265 OA
HETATM   14  H   UNL     1      22.268  44.425  47.746  1.00  0.00     0.169 HD
ENDROOT
BRANCH   1  15
HETATM   15  C   UNL     1      25.876  45.676  52.576  1.00  0.00     0.147 A 
HETATM   16  N   UNL     1      27.153  45.516  52.947  1.00  0.00    -0.162 NA
HETATM   17  N   UNL     1      27.144  44.709  54.053  1.00  0.00    -0.238 N 
HETATM   18  C   UNL     1      25.841  44.331  54.367  1.00  0.00     0.035 A 
HETATM   19  C   UNL     1      25.031  44.924  53.419  1.00  0.00     0.066 A 
HETATM   20  C   UNL     1      25.394  43.475  55.491  1.00  0.00     0.070 C 
BRANCH  17  21
HETATM   21  C   UNL     1      28.400  44.408  54.680  1.00  0.00     0.058 A 
HETATM   22  C   UNL     1      28.941  45.338  55.588  1.00  0.00     0.032 A 
HETATM   23  C   UNL     1      30.151  45.092  56.247  1.00  0.00     0.009 A 
HETATM   24  C   UNL     1      30.858  43.913  56.007  1.00  0.00    -0.062 A 
HETATM   25  C   UNL     1      32.142  43.619  56.724  1.00  0.00     0.048 C 
HETATM   26  C   UNL     1      30.331  42.986  55.105  1.00  0.00     0.009 A 
HETATM   27  C   UNL     1      29.117  43.231  54.446  1.00  0.00     0.032 A 
ENDBRANCH  17  21
ENDBRANCH   1  15
TORSDOF 2
ENDMDL
MODEL 7
REMARK VINA RESULT:      -9.9      2.166      3.793
REMARK  2 active torsions:
REMARK  status: ('A' for Active; 'I' for Inactive)
REMARK    1  A    between atoms: C_5  and  N_6 
REMARK    2  A    between atoms: C_8  and  C_9 
REMARK       I    between atoms: C_9  and  N_10 
ROOT
HETATM    1  C   UNL     1      25.834  46.237  49.664  1.00  0.00     0.279 C 
HETATM    2  N   UNL     1      24.424  46.197  49.538  1.00  0.00    -0.301 N 
HETATM    3  C   UNL     1      23.653  47.341  49.126  1.00  0.00     0.067 A 
HETATM    4  C   UNL     1      22.330  47.179  48.692  1.00  0.00     0.079 A 
HETATM    5  C   UNL     1      21.613  48.296  48.271  1.00  0.00     0.148 A 
HETATM    6  N   UNL     1      22.102  49.553  48.268  1.00  0.00    -0.271 NA
HETATM    7  C   UNL     1      23.365  49.697  48.710  1.00  0.00     0.118 A 
HETATM    8  C   UNL     1      24.162  48.646  49.145  1.00  0.00     0.051 A 
HETATM    9  N   UNL     1      21.720  45.925  48.650  1.00  0.00    -0.323 N 
HETATM   10  C   UNL     1      22.323  44.790  49.094  1.00  0.00     0.240 C 
HETATM   11  O   UNL     1      21.725  43.715  49.050  1.00  0.00    -0.271 OA
HETATM   12  C   UNL     1      23.693  44.937  49.736  1.00  0.00     0.235 C 
HETATM   13  O   UNL     1      26.516  47.154  49.200  1.00  0.00    -0.265 OA
HETATM   14  H   UNL     1      20.783  45.815  48.284  1.00  0.00     0.169 HD
ENDROOT
BRANCH   1  15
HETATM   15  C   UNL     1      26.546  45.121  50.335  1.00  0.00     0.147 A 
HETATM   16  N   UNL     1      27.294  45.237  51.441  1.00  0.00    -0.162 NA
HETATM   17  N   UNL     1      27.770  43.986  51.728  1.00  0.00    -0.238 N 
HETATM   18  C   UNL     1      27.338  43.071  50.770  1.00  0.00     0.035 A 
HETATM   19  C   UNL     1      26.577  43.789  49.870  1.00  0.00     0.066 A 
HETATM   20  C   UNL     1      27.619  41.617  50.718  1.00  0.00     0.070 C 
BRANCH  17  21
HETATM   21  C   UNL     1      28.580  43.824  52.902  1.00  0.00     0.058 A 
HETATM   22  C   UNL     1      29.730  43.014  52.822  1.00  0.00     0.032 A 
HETATM   23  C   UNL     1      30.570  42.834  53.927  1.00  0.00     0.009 A 
HETATM   24  C   UNL     1      30.278  43.450  55.144  1.00  0.00    -0.062 A 
HETATM   25  C   UNL     1      31.181  43.291  56.330  1.00  0.00     0.048 C 
HETATM   26  C   UNL     1      29.138  44.252  55.233  1.00  0.00     0.009 A 
HETATM   27  C   UNL     1      28.296  44.435  54.127  1.00  0.00     0.032 A 
ENDBRANCH  17  21
ENDBRANCH   1  15
TORSDOF 2
ENDMDL
MODEL 8
REMARK VINA RESULT:      -9.8      1.971      3.349
REMARK  2 active torsions:
REMARK  status: ('A' for Active; 'I' for Inactive)
REMARK    1  A    between atoms: C_5  and  N_6 
REMARK    2  A    between atoms: C_8  and  C_9 
REMARK       I    between atoms: C_9  and  N_10 
ROOT
HETATM    1  C   UNL     1      25.698  45.048  50.447  1.00  0.00     0.279 C 
HETATM    2  N   UNL     1      25.292  43.717  50.183  1.00  0.00    -0.301 N 
HETATM    3  C   UNL     1      24.524  43.362  49.017  1.00  0.00     0.067 A 
HETATM    4  C   UNL     1      24.432  42.021  48.617  1.00  0.00     0.079 A 
HETATM    5  C   UNL     1      23.709  41.704  47.470  1.00  0.00     0.148 A 
HETATM    6  N   UNL     1      23.060  42.609  46.710  1.00  0.00    -0.271 NA
HETATM    7  C   UNL     1      23.136  43.889  47.119  1.00  0.00     0.118 A 
HETATM    8  C   UNL     1      23.837  44.305  48.244  1.00  0.00     0.051 A 
HETATM    9  N   UNL     1      25.065  40.999  49.325  1.00  0.00    -0.323 N 
HETATM   10  C   UNL     1      25.744  41.208  50.485  1.00  0.00     0.240 C 
HETATM   11  O   UNL     1      26.264  40.262  51.076  1.00  0.00    -0.271 OA
HETATM   12  C   UNL     1      25.726  42.617  51.055  1.00  0.00     0.235 C 
HETATM   13  O   UNL     1      25.646  45.939  49.596  1.00  0.00    -0.265 OA
HETATM   14  H   UNL     1      25.035  40.043  48.995  1.00  0.00     0.169 HD
ENDROOT
BRANCH   1  15
HETATM   15  C   UNL     1      26.254  45.398  51.778  1.00  0.00     0.147 A 
HETATM   16  N   UNL     1      27.265  44.760  52.384  1.00  0.00    -0.162 NA
HETATM   17  N   UNL     1      27.465  45.389  53.583  1.00  0.00    -0.238 N 
HETATM   18  C   UNL     1      26.546  46.423  53.748  1.00  0.00     0.035 A 
HETATM   19  C   UNL     1      25.759  46.420  52.614  1.00  0.00     0.066 A 
HETATM   20  C   UNL     1      26.428  47.352  54.897  1.00  0.00     0.070 C 
BRANCH  17  21
HETATM   21  C   UNL     1      28.530  44.919  54.423  1.00  0.00     0.058 A 
HETATM   22  C   UNL     1      29.067  43.640  54.181  1.00  0.00     0.032 A 
HETATM   23  C   UNL     1      30.120  43.135  54.954  1.00  0.00     0.009 A 
HETATM   24  C   UNL     1      30.657  43.892  55.995  1.00  0.00    -0.062 A 
HETATM   25  C   UNL     1      31.803  43.379  56.814  1.00  0.00     0.048 C 
HETATM   26  C   UNL     1      30.128  45.160  56.245  1.00  0.00     0.009 A 
HETATM   27  C   UNL     1      29.075  45.668  55.471  1.00  0.00     0.032 A 
ENDBRANCH  17  21
ENDBRANCH   1  15
TORSDOF 2
ENDMDL
MODEL 9
REMARK VINA RESULT:      -9.7      3.707      6.230
REMARK  2 active torsions:
REMARK  status: ('A' for Active; 'I' for Inactive)
REMARK    1  A    between atoms: C_5  and  N_6 
REMARK    2  A    between atoms: C_8  and  C_9 
REMARK       I    between atoms: C_9  and  N_10 
ROOT
HETATM    1  C   UNL     1      22.915  50.194  48.674  1.00  0.00     0.279 C 
HETATM    2  N   UNL     1      21.713  49.583  48.242  1.00  0.00    -0.301 N 
HETATM    3  C   UNL     1      20.505  50.333  48.014  1.00  0.00     0.067 A 
HETATM    4  C   UNL     1      19.454  49.767  47.279  1.00  0.00     0.079 A 
HETATM    5  C   UNL     1      18.307  50.522  47.045  1.00  0.00     0.148 A 
HETATM    6  N   UNL     1      18.120  51.777  47.501  1.00  0.00    -0.271 NA
HETATM    7  C   UNL     1      19.127  52.299  48.226  1.00  0.00     0.118 A 
HETATM    8  C   UNL     1      20.311  51.629  48.508  1.00  0.00     0.051 A 
HETATM    9  N   UNL     1      19.536  48.477  46.755  1.00  0.00    -0.323 N 
HETATM   10  C   UNL     1      20.591  47.649  46.981  1.00  0.00     0.240 C 
HETATM   11  O   UNL     1      20.597  46.512  46.509  1.00  0.00    -0.271 OA
HETATM   12  C   UNL     1      21.679  48.150  47.916  1.00  0.00     0.235 C 
HETATM   13  O   UNL     1      23.087  51.416  48.644  1.00  0.00    -0.265 OA
HETATM   14  H   UNL     1      18.792  48.101  46.181  1.00  0.00     0.169 HD
ENDROOT
BRANCH   1  15
HETATM   15  C   UNL     1      24.045  49.351  49.141  1.00  0.00     0.147 A 
HETATM   16  N   UNL     1      23.982  48.463  50.142  1.00  0.00    -0.162 NA
HETATM   17  N   UNL     1      25.227  47.905  50.253  1.00  0.00    -0.238 N 
HETATM   18  C   UNL     1      26.096  48.472  49.323  1.00  0.00     0.035 A 
HETATM   19  C   UNL     1      25.357  49.408  48.628  1.00  0.00     0.066 A 
HETATM   20  C   UNL     1      27.525  48.144  49.106  1.00  0.00     0.070 C 
BRANCH  17  21
HETATM   21  C   UNL     1      25.424  46.881  51.239  1.00  0.00     0.058 A 
HETATM   22  C   UNL     1      26.112  47.209  52.424  1.00  0.00     0.032 A 
HETATM   23  C   UNL     1      26.318  46.259  53.431  1.00  0.00     0.009 A 
HETATM   24  C   UNL     1      25.850  44.953  53.277  1.00  0.00    -0.062 A 
HETATM   25  C   UNL     1      26.036  43.930  54.357  1.00  0.00     0.048 C 
HETATM   26  C   UNL     1      25.170  44.619  52.104  1.00  0.00     0.009 A 
HETATM   27  C   UNL     1      24.961  45.570  51.094  1.00  0.00     0.032 A 
ENDBRANCH  17  21
ENDBRANCH   1  15
TORSDOF 2
ENDMDL
MODEL 10
REMARK VINA RESULT:      -9.6      2.031      3.156
REMARK  2 active torsions:
REMARK  status: ('A' for Active; 'I' for Inactive)
REMARK    1  A    between atoms: C_5  and  N_6 
REMARK    2  A    between atoms: C_8  and  C_9 
REMARK       I    between atoms: C_9  and  N_10 
ROOT
HETATM    1  C   UNL     1      23.993  44.066  50.322  1.00  0.00     0.279 C 
HETATM    2  N   UNL     1      24.000  45.339  49.704  1.00  0.00    -0.301 N 
HETATM    3  C   UNL     1      22.840  45.885  49.049  1.00  0.00     0.067 A 
HETATM    4  C   UNL     1      22.778  47.254  48.752  1.00  0.00     0.079 A 
HETATM    5  C   UNL     1      21.634  47.766  48.146  1.00  0.00     0.148 A 
HETATM    6  N   UNL     1      20.565  47.022  47.797  1.00  0.00    -0.271 NA
HETATM    7  C   UNL     1      20.647  45.705  48.066  1.00  0.00     0.118 A 
HETATM    8  C   UNL     1      21.742  45.103  48.672  1.00  0.00     0.051 A 
HETATM    9  N   UNL     1      23.824  48.122  49.069  1.00  0.00    -0.323 N 
HETATM   10  C   UNL     1      25.000  47.703  49.609  1.00  0.00     0.240 C 
HETATM   11  O   UNL     1      25.894  48.514  49.848  1.00  0.00    -0.271 OA
HETATM   12  C   UNL     1      25.185  46.205  49.790  1.00  0.00     0.235 C 
HETATM   13  O   UNL     1      22.952  43.450  50.563  1.00  0.00    -0.265 OA
HETATM   14  H   UNL     1      23.744  49.116  48.898  1.00  0.00     0.169 HD
ENDROOT
BRANCH   1  15
HETATM   15  C   UNL     1      25.274  43.446  50.748  1.00  0.00     0.147 A 
HETATM   16  N   UNL     1      26.034  43.869  51.767  1.00  0.00    -0.162 NA
HETATM   17  N   UNL     1      27.118  43.035  51.823  1.00  0.00    -0.238 N 
HETATM   18  C   UNL     1      27.053  42.087  50.804  1.00  0.00     0.035 A 
HETATM   19  C   UNL     1      25.895  42.356  50.103  1.00  0.00     0.066 A 
HETATM   20  C   UNL     1      28.018  40.998  50.520  1.00  0.00     0.070 C 
BRANCH  17  21
HETATM   21  C   UNL     1      28.083  43.248  52.864  1.00  0.00     0.058 A 
HETATM   22  C   UNL     1      29.355  42.658  52.737  1.00  0.00     0.032 A 
HETATM   23  C   UNL     1      30.344  42.846  53.709  1.00  0.00     0.009 A 
HETATM   24  C   UNL     1      30.085  43.622  54.840  1.00  0.00    -0.062 A 
HETATM   25  C   UNL     1      31.141  43.858  55.877  1.00  0.00     0.048 C 
HETATM   26  C   UNL     1      28.825  44.209  54.975  1.00  0.00     0.009 A 
HETATM   27  C   UNL     1      27.833  44.023  54.002  1.00  0.00     0.032 A 
ENDBRANCH  17  21
ENDBRANCH   1  15
TORSDOF 2
ENDMDL
