MODEL 1
REMARK VINA RESULT:     -10.6      0.000      0.000
REMARK  6 active torsions:
REMARK  status: ('A' for Active; 'I' for Inactive)
REMARK    1  A    between atoms: C_7  and  C_8 
REMARK    2  A    between atoms: C_8  and  O_9 
REMARK    3  A    between atoms: O_9  and  C_10 
REMARK    4  A    between atoms: C_10  and  C_11 
REMARK       I    between atoms: C_11  and  N_12 
REMARK    5  A    between atoms: N_12  and  N_13 
REMARK    6  A    between atoms: C_17  and  C_18 
ROOT
HETATM    1  C   UNL     1      26.012  46.633  51.579  1.00  0.00     0.261 C 
HETATM    2  N   UNL     1      25.949  45.262  51.446  1.00  0.00    -0.255 N 
HETATM    3  O   UNL     1      26.339  47.206  52.616  1.00  0.00    -0.269 OA
HETATM    4  H   UNL     1      25.872  44.830  50.525  1.00  0.00     0.191 HD
ENDROOT
BRANCH   1   5
HETATM    5  C   UNL     1      25.682  47.398  50.293  1.00  0.00     0.283 C 
BRANCH   5   6
HETATM    6  O   UNL     1      24.484  48.175  50.345  1.00  0.00    -0.308 OA
BRANCH   6   7
HETATM    7  C   UNL     1      23.526  47.837  49.449  1.00  0.00     0.293 C 
HETATM    8  O   UNL     1      23.395  46.727  48.951  1.00  0.00    -0.259 OA
BRANCH   7   9
HETATM    9  C   UNL     1      22.591  48.967  49.211  1.00  0.00     0.040 A 
HETATM   10  C   UNL     1      23.140  50.228  48.949  1.00  0.00     0.020 A 
HETATM   11  C   UNL     1      22.325  51.327  48.665  1.00  0.00     0.031 A 
HETATM   12  C   UNL     1      20.942  51.119  48.651  1.00  0.00     0.043 A 
HETATM   13  C   UNL     1      20.356  49.885  48.928  1.00  0.00    -0.001 A 
HETATM   14  N   UNL     1      19.921  51.997  48.378  1.00  0.00    -0.359 N 
HETATM   15  C   UNL     1      18.937  50.051  48.830  1.00  0.00    -0.027 A 
HETATM   16  C   UNL     1      21.198  48.790  49.218  1.00  0.00     0.032 A 
HETATM   17  C   UNL     1      17.898  49.008  49.053  1.00  0.00     0.051 C 
HETATM   18  C   UNL     1      18.706  51.367  48.462  1.00  0.00     0.012 A 
HETATM   19  C   UNL     1      17.435  52.081  48.174  1.00  0.00     0.068 C 
HETATM   20  H   UNL     1      20.056  52.968  48.129  1.00  0.00     0.166 HD
ENDBRANCH   7   9
ENDBRANCH   6   7
ENDBRANCH   5   6
ENDBRANCH   1   5
BRANCH   2  21
HETATM   21  N   UNL     1      26.426  44.483  52.478  1.00  0.00    -0.167 N 
HETATM   22  C   UNL     1      25.678  44.094  53.555  1.00  0.00     0.345 A 
HETATM   23  O   UNL     1      24.506  44.330  53.799  1.00  0.00    -0.245 OA
HETATM   24  N   UNL     1      26.479  43.295  54.349  1.00  0.00    -0.319 N 
HETATM   25  C   UNL     1      27.812  43.109  53.798  1.00  0.00     0.141 A 
HETATM   26  H   UNL     1      26.126  42.879  55.201  1.00  0.00     0.166 HD
HETATM   27  C   UNL     1      27.670  43.906  52.475  1.00  0.00     0.279 A 
HETATM   28  C   UNL     1      28.022  41.626  53.481  1.00  0.00     0.055 C 
HETATM   29  O   UNL     1      28.500  43.968  51.573  1.00  0.00    -0.268 OA
BRANCH  25  30
HETATM   30  C   UNL     1      28.914  43.679  54.685  1.00  0.00    -0.021 A 
HETATM   31  C   UNL     1      28.873  44.991  55.190  1.00  0.00     0.010 A 
HETATM   32  C   UNL     1      29.900  45.486  55.999  1.00  0.00     0.001 A 
HETATM   33  C   UNL     1      30.991  44.682  56.316  1.00  0.00     0.000 A 
HETATM   34  C   UNL     1      31.057  43.384  55.824  1.00  0.00     0.001 A 
HETATM   35  C   UNL     1      30.031  42.888  55.017  1.00  0.00     0.010 A 
ENDBRANCH  25  30
ENDBRANCH   2  21
TORSDOF 6
ENDMDL
MODEL 2
REMARK VINA RESULT:     -10.6      1.631      2.302
REMARK  6 active torsions:
REMARK  status: ('A' for Active; 'I' for Inactive)
REMARK    1  A    between atoms: C_7  and  C_8 
REMARK    2  A    between atoms: C_8  and  O_9 
REMARK    3  A    between atoms: O_9  and  C_10 
REMARK    4  A    between atoms: C_10  and  C_11 
REMARK       I    between atoms: C_11  and  N_12 
REMARK    5  A    between atoms: N_12  and  N_13 
REMARK    6  A    between atoms: C_17  and  C_18 
ROOT
HETATM    1  C   UNL     1      25.107  47.168  50.581  1.00  0.00     0.261 C 
HETATM    2  N   UNL     1      26.221  47.389  51.362  1.00  0.00    -0.255 N 
HETATM    3  O   UNL     1      24.269  46.299  50.815  1.00  0.00    -0.269 OA
HETATM    4  H   UNL     1      26.777  48.238  51.251  1.00  0.00     0.191 HD
ENDROOT
BRANCH   1   5
HETATM    5  C   UNL     1      24.969  48.139  49.405  1.00  0.00     0.283 C 
BRANCH   5   6
HETATM    6  O   UNL     1      24.068  49.225  49.624  1.00  0.00    -0.308 OA
BRANCH   6   7
HETATM    7  C   UNL     1      23.615  49.846  48.509  1.00  0.00     0.293 C 
HETATM    8  O   UNL     1      24.252  49.971  47.471  1.00  0.00    -0.259 OA
BRANCH   7   9
HETATM    9  C   UNL     1      22.204  50.282  48.672  1.00  0.00     0.040 A 
HETATM   10  C   UNL     1      21.797  50.723  49.936  1.00  0.00     0.020 A 
HETATM   11  C   UNL     1      20.500  51.197  50.153  1.00  0.00     0.031 A 
HETATM   12  C   UNL     1      19.626  51.213  49.061  1.00  0.00     0.043 A 
HETATM   13  C   UNL     1      19.987  50.762  47.792  1.00  0.00    -0.001 A 
HETATM   14  N   UNL     1      18.325  51.647  48.979  1.00  0.00    -0.359 N 
HETATM   15  C   UNL     1      18.848  50.923  46.939  1.00  0.00    -0.027 A 
HETATM   16  C   UNL     1      21.300  50.283  47.596  1.00  0.00     0.032 A 
HETATM   17  C   UNL     1      18.757  50.566  45.496  1.00  0.00     0.051 C 
HETATM   18  C   UNL     1      17.845  51.497  47.703  1.00  0.00     0.012 A 
HETATM   19  C   UNL     1      16.472  51.926  47.330  1.00  0.00     0.068 C 
HETATM   20  H   UNL     1      17.807  52.041  49.752  1.00  0.00     0.166 HD
ENDBRANCH   7   9
ENDBRANCH   6   7
ENDBRANCH   5   6
ENDBRANCH   1   5
BRANCH   2  21
HETATM   21  N   UNL     1      26.329  46.709  52.556  1.00  0.00    -0.167 N 
HETATM   22  C   UNL     1      25.888  47.192  53.757  1.00  0.00     0.345 A 
HETATM   23  O   UNL     1      25.331  48.251  53.999  1.00  0.00    -0.245 OA
HETATM   24  N   UNL     1      26.128  46.220  54.709  1.00  0.00    -0.319 N 
HETATM   25  C   UNL     1      26.735  45.022  54.150  1.00  0.00     0.141 A 
HETATM   26  H   UNL     1      25.867  46.355  55.677  1.00  0.00     0.166 HD
HETATM   27  C   UNL     1      26.777  45.416  52.651  1.00  0.00     0.279 A 
HETATM   28  C   UNL     1      25.781  43.840  54.341  1.00  0.00     0.055 C 
HETATM   29  O   UNL     1      27.105  44.689  51.718  1.00  0.00    -0.268 OA
BRANCH  25  30
HETATM   30  C   UNL     1      28.130  44.742  54.699  1.00  0.00    -0.021 A 
HETATM   31  C   UNL     1      28.840  43.568  54.393  1.00  0.00     0.010 A 
HETATM   32  C   UNL     1      30.117  43.339  54.915  1.00  0.00     0.001 A 
HETATM   33  C   UNL     1      30.708  44.277  55.756  1.00  0.00     0.000 A 
HETATM   34  C   UNL     1      30.023  45.443  56.079  1.00  0.00     0.001 A 
HETATM   35  C   UNL     1      28.748  45.673  55.557  1.00  0.00     0.010 A 
ENDBRANCH  25  30
ENDBRANCH   2  21
TORSDOF 6
ENDMDL
MODEL 3
REMARK VINA RESULT:     -10.5      1.563      2.257
REMARK  6 active torsions:
REMARK  status: ('A' for Active; 'I' for Inactive)
REMARK    1  A    between atoms: C_7  and  C_8 
REMARK    2  A    between atoms: C_8  and  O_9 
REMARK    3  A    between atoms: O_9  and  C_10 
REMARK    4  A    between atoms: C_10  and  C_11 
REMARK       I    between atoms: C_11  and  N_12 
REMARK    5  A    between atoms: N_12  and  N_13 
REMARK    6  A    between atoms: C_17  and  C_18 
ROOT
HETATM    1  C   UNL     1      25.780  47.272  50.449  1.00  0.00     0.261 C 
HETATM    2  N   UNL     1      25.635  45.963  50.042  1.00  0.00    -0.255 N 
HETATM    3  O   UNL     1      26.050  47.605  51.601  1.00  0.00    -0.269 OA
HETATM    4  H   UNL     1      25.613  45.724  49.050  1.00  0.00     0.191 HD
ENDROOT
BRANCH   1   5
HETATM    5  C   UNL     1      25.625  48.295  49.319  1.00  0.00     0.283 C 
BRANCH   5   6
HETATM    6  O   UNL     1      24.486  49.151  49.434  1.00  0.00    -0.308 OA
BRANCH   6   7
HETATM    7  C   UNL     1      24.033  49.684  48.275  1.00  0.00     0.293 C 
HETATM    8  O   UNL     1      24.739  50.208  47.424  1.00  0.00    -0.259 OA
BRANCH   7   9
HETATM    9  C   UNL     1      22.571  49.469  48.121  1.00  0.00     0.040 A 
HETATM   10  C   UNL     1      22.118  48.161  47.917  1.00  0.00     0.020 A 
HETATM   11  C   UNL     1      20.754  47.875  47.816  1.00  0.00     0.031 A 
HETATM   12  C   UNL     1      19.859  48.945  47.926  1.00  0.00     0.043 A 
HETATM   13  C   UNL     1      20.271  50.265  48.108  1.00  0.00    -0.001 A 
HETATM   14  N   UNL     1      18.486  48.953  47.896  1.00  0.00    -0.359 N 
HETATM   15  C   UNL     1      19.094  51.078  48.169  1.00  0.00    -0.027 A 
HETATM   16  C   UNL     1      21.655  50.531  48.202  1.00  0.00     0.032 A 
HETATM   17  C   UNL     1      19.039  52.556  48.342  1.00  0.00     0.051 C 
HETATM   18  C   UNL     1      18.006  50.227  48.059  1.00  0.00     0.012 A 
HETATM   19  C   UNL     1      16.548  50.512  48.104  1.00  0.00     0.068 C 
HETATM   20  H   UNL     1      17.914  48.126  47.789  1.00  0.00     0.166 HD
ENDBRANCH   7   9
ENDBRANCH   6   7
ENDBRANCH   5   6
ENDBRANCH   1   5
BRANCH   2  21
HETATM   21  N   UNL     1      25.959  44.962  50.932  1.00  0.00    -0.167 N 
HETATM   22  C   UNL     1      25.069  44.383  51.793  1.00  0.00     0.345 A 
HETATM   23  O   UNL     1      23.877  44.609  51.930  1.00  0.00    -0.245 OA
HETATM   24  N   UNL     1      25.745  43.399  52.490  1.00  0.00    -0.319 N 
HETATM   25  C   UNL     1      27.137  43.280  52.087  1.00  0.00     0.141 A 
HETATM   26  H   UNL     1      25.276  42.826  53.178  1.00  0.00     0.166 HD
HETATM   27  C   UNL     1      27.184  44.347  50.962  1.00  0.00     0.279 A 
HETATM   28  C   UNL     1      27.369  41.892  51.484  1.00  0.00     0.055 C 
HETATM   29  O   UNL     1      28.128  44.566  50.210  1.00  0.00    -0.268 OA
BRANCH  25  30
HETATM   30  C   UNL     1      28.117  43.601  53.211  1.00  0.00    -0.021 A 
HETATM   31  C   UNL     1      29.272  42.834  53.447  1.00  0.00     0.010 A 
HETATM   32  C   UNL     1      30.150  43.153  54.487  1.00  0.00     0.001 A 
HETATM   33  C   UNL     1      29.890  44.240  55.315  1.00  0.00     0.000 A 
HETATM   34  C   UNL     1      28.751  45.010  55.106  1.00  0.00     0.001 A 
HETATM   35  C   UNL     1      27.874  44.693  54.066  1.00  0.00     0.010 A 
ENDBRANCH  25  30
ENDBRANCH   2  21
TORSDOF 6
ENDMDL
MODEL 4
REMARK VINA RESULT:     -10.3      1.749      2.335
REMARK  6 active torsions:
REMARK  status: ('A' for Active; 'I' for Inactive)
REMARK    1  A    between atoms: C_7  and  C_8 
REMARK    2  A    between atoms: C_8  and  O_9 
REMARK    3  A    between atoms: O_9  and  C_10 
REMARK    4  A    between atoms: C_10  and  C_11 
REMARK       I    between atoms: C_11  and  N_12 
REMARK    5  A    between atoms: N_12  and  N_13 
REMARK    6  A    between atoms: C_17  and  C_18 
ROOT
HETATM    1  C   UNL     1      24.520  46.879  50.059  1.00  0.00     0.261 C 
HETATM    2  N   UNL     1      24.716  45.606  49.566  1.00  0.00    -0.255 N 
HETATM    3  O   UNL     1      24.711  47.196  51.231  1.00  0.00    -0.269 OA
HETATM    4  H   UNL     1      24.742  45.433  48.561  1.00  0.00     0.191 HD
ENDROOT
BRANCH   1   5
HETATM    5  C   UNL     1      24.083  47.895  48.999  1.00  0.00     0.283 C 
BRANCH   5   6
HETATM    6  O   UNL     1      24.320  49.261  49.341  1.00  0.00    -0.308 OA
BRANCH   6   7
HETATM    7  C   UNL     1      23.844  50.177  48.464  1.00  0.00     0.293 C 
HETATM    8  O   UNL     1      24.483  50.655  47.538  1.00  0.00    -0.259 OA
BRANCH   7   9
HETATM    9  C   UNL     1      22.408  50.464  48.714  1.00  0.00     0.040 A 
HETATM   10  C   UNL     1      22.023  50.797  50.018  1.00  0.00     0.020 A 
HETATM   11  C   UNL     1      20.700  51.130  50.319  1.00  0.00     0.031 A 
HETATM   12  C   UNL     1      19.775  51.118  49.269  1.00  0.00     0.043 A 
HETATM   13  C   UNL     1      20.114  50.771  47.962  1.00  0.00    -0.001 A 
HETATM   14  N   UNL     1      18.436  51.427  49.270  1.00  0.00    -0.359 N 
HETATM   15  C   UNL     1      18.924  50.864  47.171  1.00  0.00    -0.027 A 
HETATM   16  C   UNL     1      21.456  50.433  47.681  1.00  0.00     0.032 A 
HETATM   17  C   UNL     1      18.796  50.575  45.716  1.00  0.00     0.051 C 
HETATM   18  C   UNL     1      17.910  51.298  48.010  1.00  0.00     0.012 A 
HETATM   19  C   UNL     1      16.486  51.609  47.723  1.00  0.00     0.068 C 
HETATM   20  H   UNL     1      17.922  51.728  50.086  1.00  0.00     0.166 HD
ENDBRANCH   7   9
ENDBRANCH   6   7
ENDBRANCH   5   6
ENDBRANCH   1   5
BRANCH   2  21
HETATM   21  N   UNL     1      25.306  44.670  50.389  1.00  0.00    -0.167 N 
HETATM   22  C   UNL     1      24.613  43.742  51.116  1.00  0.00     0.345 A 
HETATM   23  O   UNL     1      23.408  43.555  51.169  1.00  0.00    -0.245 OA
HETATM   24  N   UNL     1      25.538  42.958  51.778  1.00  0.00    -0.319 N 
HETATM   25  C   UNL     1      26.911  43.341  51.488  1.00  0.00     0.141 A 
HETATM   26  H   UNL     1      25.249  42.191  52.370  1.00  0.00     0.166 HD
HETATM   27  C   UNL     1      26.662  44.485  50.470  1.00  0.00     0.279 A 
HETATM   28  C   UNL     1      27.619  42.179  50.787  1.00  0.00     0.055 C 
HETATM   29  O   UNL     1      27.519  45.080  49.824  1.00  0.00    -0.268 OA
BRANCH  25  30
HETATM   30  C   UNL     1      27.670  43.834  52.716  1.00  0.00    -0.021 A 
HETATM   31  C   UNL     1      27.250  44.946  53.466  1.00  0.00     0.010 A 
HETATM   32  C   UNL     1      27.969  45.375  54.586  1.00  0.00     0.001 A 
HETATM   33  C   UNL     1      29.124  44.703  54.976  1.00  0.00     0.000 A 
HETATM   34  C   UNL     1      29.563  43.604  54.246  1.00  0.00     0.001 A 
HETATM   35  C   UNL     1      28.844  43.175  53.129  1.00  0.00     0.010 A 
ENDBRANCH  25  30
ENDBRANCH   2  21
TORSDOF 6
ENDMDL
MODEL 5
REMARK VINA RESULT:     -10.0      2.084     10.969
REMARK  6 active torsions:
REMARK  status: ('A' for Active; 'I' for Inactive)
REMARK    1  A    between atoms: C_7  and  C_8 
REMARK    2  A    between atoms: C_8  and  O_9 
REMARK    3  A    between atoms: O_9  and  C_10 
REMARK    4  A    between atoms: C_10  and  C_11 
REMARK       I    between atoms: C_11  and  N_12 
REMARK    5  A    between atoms: N_12  and  N_13 
REMARK    6  A    between atoms: C_17  and  C_18 
ROOT
HETATM    1  C   UNL     1      23.651  47.241  49.276  1.00  0.00     0.261 C 
HETATM    2  N   UNL     1      23.140  48.479  49.604  1.00  0.00    -0.255 N 
HETATM    3  O   UNL     1      23.199  46.529  48.382  1.00  0.00    -0.269 OA
HETATM    4  H   UNL     1      23.662  49.116  50.206  1.00  0.00     0.191 HD
ENDROOT
BRANCH   1   5
HETATM    5  C   UNL     1      24.879  46.838  50.098  1.00  0.00     0.283 C 
BRANCH   5   6
HETATM    6  O   UNL     1      24.691  46.861  51.513  1.00  0.00    -0.308 OA
BRANCH   6   7
HETATM    7  C   UNL     1      24.938  45.696  52.158  1.00  0.00     0.293 C 
HETATM    8  O   UNL     1      24.340  44.647  51.959  1.00  0.00    -0.259 OA
BRANCH   7   9
HETATM    9  C   UNL     1      26.096  45.828  53.080  1.00  0.00     0.040 A 
HETATM   10  C   UNL     1      26.244  47.031  53.778  1.00  0.00     0.020 A 
HETATM   11  C   UNL     1      27.278  47.209  54.701  1.00  0.00     0.031 A 
HETATM   12  C   UNL     1      28.158  46.140  54.901  1.00  0.00     0.043 A 
HETATM   13  C   UNL     1      28.057  44.934  54.209  1.00  0.00    -0.001 A 
HETATM   14  N   UNL     1      29.229  46.027  55.754  1.00  0.00    -0.359 N 
HETATM   15  C   UNL     1      29.119  44.088  54.663  1.00  0.00    -0.027 A 
HETATM   16  C   UNL     1      27.008  44.777  53.278  1.00  0.00     0.032 A 
HETATM   17  C   UNL     1      29.419  42.705  54.200  1.00  0.00     0.051 C 
HETATM   18  C   UNL     1      29.809  44.790  55.639  1.00  0.00     0.012 A 
HETATM   19  C   UNL     1      30.967  44.390  56.480  1.00  0.00     0.068 C 
HETATM   20  H   UNL     1      29.528  46.752  56.391  1.00  0.00     0.166 HD
ENDBRANCH   7   9
ENDBRANCH   6   7
ENDBRANCH   5   6
ENDBRANCH   1   5
BRANCH   2  21
HETATM   21  N   UNL     1      22.170  49.022  48.790  1.00  0.00    -0.167 N 
HETATM   22  C   UNL     1      22.429  49.857  47.738  1.00  0.00     0.345 A 
HETATM   23  O   UNL     1      23.506  50.253  47.321  1.00  0.00    -0.245 OA
HETATM   24  N   UNL     1      21.221  50.159  47.140  1.00  0.00    -0.319 N 
HETATM   25  C   UNL     1      20.094  49.501  47.783  1.00  0.00     0.141 A 
HETATM   26  H   UNL     1      21.172  50.755  46.325  1.00  0.00     0.166 HD
HETATM   27  C   UNL     1      20.843  48.684  48.868  1.00  0.00     0.279 A 
HETATM   28  C   UNL     1      19.436  48.543  46.787  1.00  0.00     0.055 C 
HETATM   29  O   UNL     1      20.346  47.856  49.625  1.00  0.00    -0.268 OA
BRANCH  25  30
HETATM   30  C   UNL     1      19.099  50.479  48.399  1.00  0.00    -0.021 A 
HETATM   31  C   UNL     1      19.388  51.844  48.567  1.00  0.00     0.010 A 
HETATM   32  C   UNL     1      18.455  52.716  49.138  1.00  0.00     0.001 A 
HETATM   33  C   UNL     1      17.217  52.239  49.556  1.00  0.00     0.000 A 
HETATM   34  C   UNL     1      16.910  50.891  49.407  1.00  0.00     0.001 A 
HETATM   35  C   UNL     1      17.840  50.021  48.835  1.00  0.00     0.010 A 
ENDBRANCH  25  30
ENDBRANCH   2  21
TORSDOF 6
ENDMDL
MODEL 6
REMARK VINA RESULT:      -9.9      1.502      2.019
REMARK  6 active torsions:
REMARK  status: ('A' for Active; 'I' for Inactive)
REMARK    1  A    between atoms: C_7  and  C_8 
REMARK    2  A    between atoms: C_8  and  O_9 
REMARK    3  A    between atoms: O_9  and  C_10 
REMARK    4  A    between atoms: C_10  and  C_11 
REMARK       I    between atoms: C_11  and  N_12 
REMARK    5  A    between atoms: N_12  and  N_13 
REMARK    6  A    between atoms: C_17  and  C_18 
ROOT
HETATM    1  C   UNL     1      25.549  44.539  50.288  1.00  0.00     0.261 C 
HETATM    2  N   UNL     1      26.269  45.163  51.285  1.00  0.00    -0.255 N 
HETATM    3  O   UNL     1      25.353  43.326  50.243  1.00  0.00    -0.269 OA
HETATM    4  H   UNL     1      26.237  46.177  51.396  1.00  0.00     0.191 HD
ENDROOT
BRANCH   1   5
HETATM    5  C   UNL     1      24.962  45.501  49.251  1.00  0.00     0.283 C 
BRANCH   5   6
HETATM    6  O   UNL     1      23.666  46.011  49.567  1.00  0.00    -0.308 OA
BRANCH   6   7
HETATM    7  C   UNL     1      23.548  47.360  49.559  1.00  0.00     0.293 C 
HETATM    8  O   UNL     1      24.309  48.131  50.127  1.00  0.00    -0.259 OA
BRANCH   7   9
HETATM    9  C   UNL     1      22.421  47.795  48.694  1.00  0.00     0.040 A 
HETATM   10  C   UNL     1      21.902  46.870  47.780  1.00  0.00     0.020 A 
HETATM   11  C   UNL     1      20.809  47.190  46.970  1.00  0.00     0.031 A 
HETATM   12  C   UNL     1      20.254  48.467  47.107  1.00  0.00     0.043 A 
HETATM   13  C   UNL     1      20.756  49.423  47.989  1.00  0.00    -0.001 A 
HETATM   14  N   UNL     1      19.176  49.032  46.471  1.00  0.00    -0.359 N 
HETATM   15  C   UNL     1      19.950  50.599  47.852  1.00  0.00    -0.027 A 
HETATM   16  C   UNL     1      21.864  49.080  48.794  1.00  0.00     0.032 A 
HETATM   17  C   UNL     1      20.116  51.884  48.585  1.00  0.00     0.051 C 
HETATM   18  C   UNL     1      18.965  50.311  46.921  1.00  0.00     0.012 A 
HETATM   19  C   UNL     1      17.835  51.136  46.424  1.00  0.00     0.068 C 
HETATM   20  H   UNL     1      18.607  48.557  45.783  1.00  0.00     0.166 HD
ENDBRANCH   7   9
ENDBRANCH   6   7
ENDBRANCH   5   6
ENDBRANCH   1   5
BRANCH   2  21
HETATM   21  N   UNL     1      26.661  44.415  52.375  1.00  0.00    -0.167 N 
HETATM   22  C   UNL     1      25.838  44.088  53.417  1.00  0.00     0.345 A 
HETATM   23  O   UNL     1      24.660  44.360  53.578  1.00  0.00    -0.245 OA
HETATM   24  N   UNL     1      26.567  43.303  54.290  1.00  0.00    -0.319 N 
HETATM   25  C   UNL     1      27.927  43.064  53.832  1.00  0.00     0.141 A 
HETATM   26  H   UNL     1      26.152  42.930  55.133  1.00  0.00     0.166 HD
HETATM   27  C   UNL     1      27.887  43.810  52.472  1.00  0.00     0.279 A 
HETATM   28  C   UNL     1      28.118  41.565  53.586  1.00  0.00     0.055 C 
HETATM   29  O   UNL     1      28.772  43.816  51.622  1.00  0.00    -0.268 OA
BRANCH  25  30
HETATM   30  C   UNL     1      28.986  43.644  54.763  1.00  0.00    -0.021 A 
HETATM   31  C   UNL     1      28.888  44.938  55.304  1.00  0.00     0.010 A 
HETATM   32  C   UNL     1      29.877  45.443  56.154  1.00  0.00     0.001 A 
HETATM   33  C   UNL     1      30.986  44.667  56.476  1.00  0.00     0.000 A 
HETATM   34  C   UNL     1      31.109  43.387  55.948  1.00  0.00     0.001 A 
HETATM   35  C   UNL     1      30.121  42.881  55.101  1.00  0.00     0.010 A 
ENDBRANCH  25  30
ENDBRANCH   2  21
TORSDOF 6
ENDMDL
MODEL 7
REMARK VINA RESULT:      -9.5      1.774      2.980
REMARK  6 active torsions:
REMARK  status: ('A' for Active; 'I' for Inactive)
REMARK    1  A    between atoms: C_7  and  C_8 
REMARK    2  A    between atoms: C_8  and  O_9 
REMARK    3  A    between atoms: O_9  and  C_10 
REMARK    4  A    between atoms: C_10  and  C_11 
REMARK       I    between atoms: C_11  and  N_12 
REMARK    5  A    between atoms: N_12  and  N_13 
REMARK    6  A    between atoms: C_17  and  C_18 
ROOT
HETATM    1  C   UNL     1      24.251  44.674  49.487  1.00  0.00     0.261 C 
HETATM    2  N   UNL     1      23.941  45.414  50.609  1.00  0.00    -0.255 N 
HETATM    3  O   UNL     1      25.400  44.391  49.151  1.00  0.00    -0.269 OA
HETATM    4  H   UNL     1      22.983  45.454  50.959  1.00  0.00     0.191 HD
ENDROOT
BRANCH   1   5
HETATM    5  C   UNL     1      23.028  44.184  48.708  1.00  0.00     0.283 C 
BRANCH   5   6
HETATM    6  O   UNL     1      21.944  45.112  48.643  1.00  0.00    -0.308 OA
BRANCH   6   7
HETATM    7  C   UNL     1      22.067  46.094  47.719  1.00  0.00     0.293 C 
HETATM    8  O   UNL     1      22.385  45.919  46.550  1.00  0.00    -0.259 OA
BRANCH   7   9
HETATM    9  C   UNL     1      21.676  47.412  48.282  1.00  0.00     0.040 A 
HETATM   10  C   UNL     1      22.695  48.261  48.729  1.00  0.00     0.020 A 
HETATM   11  C   UNL     1      22.408  49.537  49.222  1.00  0.00     0.031 A 
HETATM   12  C   UNL     1      21.066  49.933  49.252  1.00  0.00     0.043 A 
HETATM   13  C   UNL     1      20.022  49.108  48.836  1.00  0.00    -0.001 A 
HETATM   14  N   UNL     1      20.507  51.122  49.651  1.00  0.00    -0.359 N 
HETATM   15  C   UNL     1      18.802  49.837  49.014  1.00  0.00    -0.027 A 
HETATM   16  C   UNL     1      20.334  47.822  48.346  1.00  0.00     0.032 A 
HETATM   17  C   UNL     1      17.424  49.358  48.717  1.00  0.00     0.051 C 
HETATM   18  C   UNL     1      19.144  51.090  49.497  1.00  0.00     0.012 A 
HETATM   19  C   UNL     1      18.295  52.266  49.819  1.00  0.00     0.068 C 
HETATM   20  H   UNL     1      21.035  51.915  49.989  1.00  0.00     0.166 HD
ENDBRANCH   7   9
ENDBRANCH   6   7
ENDBRANCH   5   6
ENDBRANCH   1   5
BRANCH   2  21
HETATM   21  N   UNL     1      24.955  45.726  51.489  1.00  0.00    -0.167 N 
HETATM   22  C   UNL     1      25.735  46.845  51.396  1.00  0.00     0.345 A 
HETATM   23  O   UNL     1      25.686  47.747  50.576  1.00  0.00    -0.245 OA
HETATM   24  N   UNL     1      26.605  46.835  52.469  1.00  0.00    -0.319 N 
HETATM   25  C   UNL     1      26.411  45.687  53.341  1.00  0.00     0.141 A 
HETATM   26  H   UNL     1      27.272  47.581  52.612  1.00  0.00     0.166 HD
HETATM   27  C   UNL     1      25.210  45.009  52.630  1.00  0.00     0.279 A 
HETATM   28  C   UNL     1      25.976  46.175  54.725  1.00  0.00     0.055 C 
HETATM   29  O   UNL     1      24.578  44.040  53.038  1.00  0.00    -0.268 OA
BRANCH  25  30
HETATM   30  C   UNL     1      27.625  44.765  53.400  1.00  0.00    -0.021 A 
HETATM   31  C   UNL     1      28.445  44.670  54.538  1.00  0.00     0.010 A 
HETATM   32  C   UNL     1      29.552  43.816  54.561  1.00  0.00     0.001 A 
HETATM   33  C   UNL     1      29.866  43.045  53.445  1.00  0.00     0.000 A 
HETATM   34  C   UNL     1      29.074  43.127  52.306  1.00  0.00     0.001 A 
HETATM   35  C   UNL     1      27.966  43.978  52.283  1.00  0.00     0.010 A 
ENDBRANCH  25  30
ENDBRANCH   2  21
TORSDOF 6
ENDMDL
MODEL 8
REMARK VINA RESULT:      -9.4      1.874      2.876
REMARK  6 active torsions:
REMARK  status: ('A' for Active; 'I' for Inactive)
REMARK    1  A    between atoms: C_7  and  C_8 
REMARK    2  A    between atoms: C_8  and  O_9 
REMARK    3  A    between atoms: O_9  and  C_10 
REMARK    4  A    between atoms: C_10  and  C_11 
REMARK       I    between atoms: C_11  and  N_12 
REMARK    5  A    between atoms: N_12  and  N_13 
REMARK    6  A    between atoms: C_17  and  C_18 
ROOT
HETATM    1  C   UNL     1      24.544  44.833  50.369  1.00  0.00     0.261 C 
HETATM    2  N   UNL     1      25.794  45.237  50.790  1.00  0.00    -0.255 N 
HETATM    3  O   UNL     1      23.702  44.330  51.110  1.00  0.00    -0.269 OA
HETATM    4  H   UNL     1      26.379  45.827  50.198  1.00  0.00     0.191 HD
ENDROOT
BRANCH   1   5
HETATM    5  C   UNL     1      24.268  45.111  48.888  1.00  0.00     0.283 C 
BRANCH   5   6
HETATM    6  O   UNL     1      22.957  44.757  48.444  1.00  0.00    -0.308 OA
BRANCH   6   7
HETATM    7  C   UNL     1      22.465  45.496  47.422  1.00  0.00     0.293 C 
HETATM    8  O   UNL     1      22.730  45.319  46.241  1.00  0.00    -0.259 OA
BRANCH   7   9
HETATM    9  C   UNL     1      21.482  46.499  47.908  1.00  0.00     0.040 A 
HETATM   10  C   UNL     1      20.213  46.044  48.284  1.00  0.00     0.020 A 
HETATM   11  C   UNL     1      19.254  46.920  48.800  1.00  0.00     0.031 A 
HETATM   12  C   UNL     1      19.611  48.267  48.927  1.00  0.00     0.043 A 
HETATM   13  C   UNL     1      20.856  48.762  48.543  1.00  0.00    -0.001 A 
HETATM   14  N   UNL     1      18.891  49.326  49.423  1.00  0.00    -0.359 N 
HETATM   15  C   UNL     1      20.859  50.169  48.810  1.00  0.00    -0.027 A 
HETATM   16  C   UNL     1      21.808  47.861  48.020  1.00  0.00     0.032 A 
HETATM   17  C   UNL     1      21.972  51.124  48.552  1.00  0.00     0.051 C 
HETATM   18  C   UNL     1      19.633  50.479  49.378  1.00  0.00     0.012 A 
HETATM   19  C   UNL     1      19.104  51.769  49.891  1.00  0.00     0.068 C 
HETATM   20  H   UNL     1      17.951  49.255  49.788  1.00  0.00     0.166 HD
ENDBRANCH   7   9
ENDBRANCH   6   7
ENDBRANCH   5   6
ENDBRANCH   1   5
BRANCH   2  21
HETATM   21  N   UNL     1      26.065  45.223  52.142  1.00  0.00    -0.167 N 
HETATM   22  C   UNL     1      25.824  46.274  52.984  1.00  0.00     0.345 A 
HETATM   23  O   UNL     1      25.336  47.363  52.729  1.00  0.00    -0.245 OA
HETATM   24  N   UNL     1      26.182  45.875  54.257  1.00  0.00    -0.319 N 
HETATM   25  C   UNL     1      26.666  44.504  54.303  1.00  0.00     0.141 A 
HETATM   26  H   UNL     1      26.075  46.492  55.051  1.00  0.00     0.166 HD
HETATM   27  C   UNL     1      26.489  44.107  52.815  1.00  0.00     0.279 A 
HETATM   28  C   UNL     1      25.723  43.667  55.171  1.00  0.00     0.055 C 
HETATM   29  O   UNL     1      26.654  42.988  52.338  1.00  0.00    -0.268 OA
BRANCH  25  30
HETATM   30  C   UNL     1      28.121  44.396  54.747  1.00  0.00    -0.021 A 
HETATM   31  C   UNL     1      28.938  43.306  54.397  1.00  0.00     0.010 A 
HETATM   32  C   UNL     1      30.268  43.235  54.821  1.00  0.00     0.001 A 
HETATM   33  C   UNL     1      30.807  44.247  55.609  1.00  0.00     0.000 A 
HETATM   34  C   UNL     1      30.017  45.331  55.975  1.00  0.00     0.001 A 
HETATM   35  C   UNL     1      28.690  45.405  55.549  1.00  0.00     0.010 A 
ENDBRANCH  25  30
ENDBRANCH   2  21
TORSDOF 6
ENDMDL
MODEL 9
REMARK VINA RESULT:      -9.4      2.558     10.520
REMARK  6 active torsions:
REMARK  status: ('A' for Active; 'I' for Inactive)
REMARK    1  A    between atoms: C_7  and  C_8 
REMARK    2  A    between atoms: C_8  and  O_9 
REMARK    3  A    between atoms: O_9  and  C_10 
REMARK    4  A    between atoms: C_10  and  C_11 
REMARK       I    between atoms: C_11  and  N_12 
REMARK    5  A    between atoms: N_12  and  N_13 
REMARK    6  A    between atoms: C_17  and  C_18 
ROOT
HETATM    1  C   UNL     1      24.720  44.883  49.900  1.00  0.00     0.261 C 
HETATM    2  N   UNL     1      23.556  45.498  50.307  1.00  0.00    -0.255 N 
HETATM    3  O   UNL     1      25.008  44.674  48.723  1.00  0.00    -0.269 OA
HETATM    4  H   UNL     1      23.448  45.831  51.266  1.00  0.00     0.191 HD
ENDROOT
BRANCH   1   5
HETATM    5  C   UNL     1      25.665  44.518  51.048  1.00  0.00     0.283 C 
BRANCH   5   6
HETATM    6  O   UNL     1      25.257  44.986  52.335  1.00  0.00    -0.308 OA
BRANCH   6   7
HETATM    7  C   UNL     1      25.733  46.202  52.695  1.00  0.00     0.293 C 
HETATM    8  O   UNL     1      25.264  47.272  52.330  1.00  0.00    -0.259 OA
BRANCH   7   9
HETATM    9  C   UNL     1      26.847  46.076  53.670  1.00  0.00     0.040 A 
HETATM   10  C   UNL     1      26.981  47.070  54.645  1.00  0.00     0.020 A 
HETATM   11  C   UNL     1      27.973  46.992  55.627  1.00  0.00     0.031 A 
HETATM   12  C   UNL     1      28.825  45.883  55.597  1.00  0.00     0.043 A 
HETATM   13  C   UNL     1      28.739  44.883  54.630  1.00  0.00    -0.001 A 
HETATM   14  N   UNL     1      29.852  45.538  56.442  1.00  0.00    -0.359 N 
HETATM   15  C   UNL     1      29.765  43.925  54.909  1.00  0.00    -0.027 A 
HETATM   16  C   UNL     1      27.732  44.985  53.644  1.00  0.00     0.032 A 
HETATM   17  C   UNL     1      30.065  42.688  54.136  1.00  0.00     0.051 C 
HETATM   18  C   UNL     1      30.419  44.351  56.054  1.00  0.00     0.012 A 
HETATM   19  C   UNL     1      31.529  43.729  56.821  1.00  0.00     0.068 C 
HETATM   20  H   UNL     1      30.132  46.079  57.249  1.00  0.00     0.166 HD
ENDBRANCH   7   9
ENDBRANCH   6   7
ENDBRANCH   5   6
ENDBRANCH   1   5
BRANCH   2  21
HETATM   21  N   UNL     1      22.737  46.050  49.346  1.00  0.00    -0.167 N 
HETATM   22  C   UNL     1      22.903  47.303  48.823  1.00  0.00     0.345 A 
HETATM   23  O   UNL     1      23.765  48.130  49.074  1.00  0.00    -0.245 OA
HETATM   24  N   UNL     1      21.924  47.486  47.865  1.00  0.00    -0.319 N 
HETATM   25  C   UNL     1      21.068  46.322  47.705  1.00  0.00     0.141 A 
HETATM   26  H   UNL     1      21.864  48.344  47.333  1.00  0.00     0.166 HD
HETATM   27  C   UNL     1      21.738  45.354  48.715  1.00  0.00     0.279 A 
HETATM   28  C   UNL     1      21.228  45.771  46.285  1.00  0.00     0.055 C 
HETATM   29  O   UNL     1      21.456  44.172  48.883  1.00  0.00    -0.268 OA
BRANCH  25  30
HETATM   30  C   UNL     1      19.611  46.594  48.066  1.00  0.00    -0.021 A 
HETATM   31  C   UNL     1      18.560  45.762  47.640  1.00  0.00     0.010 A 
HETATM   32  C   UNL     1      17.234  46.040  47.986  1.00  0.00     0.001 A 
HETATM   33  C   UNL     1      16.931  47.156  48.760  1.00  0.00     0.000 A 
HETATM   34  C   UNL     1      17.952  47.997  49.187  1.00  0.00     0.001 A 
HETATM   35  C   UNL     1      19.276  47.720  48.844  1.00  0.00     0.010 A 
ENDBRANCH  25  30
ENDBRANCH   2  21
TORSDOF 6
ENDMDL
MODEL 10
REMARK VINA RESULT:      -9.1      2.331     11.248
REMARK  6 active torsions:
REMARK  status: ('A' for Active; 'I' for Inactive)
REMARK    1  A    between atoms: C_7  and  C_8 
REMARK    2  A    between atoms: C_8  and  O_9 
REMARK    3  A    between atoms: O_9  and  C_10 
REMARK    4  A    between atoms: C_10  and  C_11 
REMARK       I    between atoms: C_11  and  N_12 
REMARK    5  A    between atoms: N_12  and  N_13 
REMARK    6  A    between atoms: C_17  and  C_18 
ROOT
HETATM    1  C   UNL     1      21.901  47.327  48.316  1.00  0.00     0.261 C 
HETATM    2  N   UNL     1      21.579  48.227  49.310  1.00  0.00    -0.255 N 
HETATM    3  O   UNL     1      21.189  47.103  47.339  1.00  0.00    -0.269 OA
HETATM    4  H   UNL     1      22.280  48.529  49.988  1.00  0.00     0.191 HD
ENDROOT
BRANCH   1   5
HETATM    5  C   UNL     1      23.263  46.653  48.505  1.00  0.00     0.283 C 
BRANCH   5   6
HETATM    6  O   UNL     1      23.549  46.237  49.841  1.00  0.00    -0.308 OA
BRANCH   6   7
HETATM    7  C   UNL     1      24.593  46.859  50.439  1.00  0.00     0.293 C 
HETATM    8  O   UNL     1      24.654  48.059  50.667  1.00  0.00    -0.259 OA
BRANCH   7   9
HETATM    9  C   UNL     1      25.626  45.880  50.868  1.00  0.00     0.040 A 
HETATM   10  C   UNL     1      26.158  45.022  49.900  1.00  0.00     0.020 A 
HETATM   11  C   UNL     1      27.170  44.112  50.218  1.00  0.00     0.031 A 
HETATM   12  C   UNL     1      27.630  44.091  51.539  1.00  0.00     0.043 A 
HETATM   13  C   UNL     1      27.110  44.915  52.537  1.00  0.00    -0.001 A 
HETATM   14  N   UNL     1      28.619  43.333  52.117  1.00  0.00    -0.359 N 
HETATM   15  C   UNL     1      27.811  44.615  53.749  1.00  0.00    -0.027 A 
HETATM   16  C   UNL     1      26.085  45.823  52.195  1.00  0.00     0.032 A 
HETATM   17  C   UNL     1      27.591  45.236  55.084  1.00  0.00     0.051 C 
HETATM   18  C   UNL     1      28.756  43.648  53.445  1.00  0.00     0.012 A 
HETATM   19  C   UNL     1      29.785  43.000  54.298  1.00  0.00     0.068 C 
HETATM   20  H   UNL     1      29.179  42.654  51.620  1.00  0.00     0.166 HD
ENDBRANCH   7   9
ENDBRANCH   6   7
ENDBRANCH   5   6
ENDBRANCH   1   5
BRANCH   2  21
HETATM   21  N   UNL     1      20.478  49.035  49.129  1.00  0.00    -0.167 N 
HETATM   22  C   UNL     1      19.227  48.744  49.597  1.00  0.00     0.345 A 
HETATM   23  O   UNL     1      18.857  47.778  50.244  1.00  0.00    -0.245 OA
HETATM   24  N   UNL     1      18.401  49.800  49.262  1.00  0.00    -0.319 N 
HETATM   25  C   UNL     1      19.103  50.862  48.557  1.00  0.00     0.141 A 
HETATM   26  H   UNL     1      17.425  49.808  49.522  1.00  0.00     0.166 HD
HETATM   27  C   UNL     1      20.543  50.284  48.567  1.00  0.00     0.279 A 
HETATM   28  C   UNL     1      19.059  52.139  49.400  1.00  0.00     0.055 C 
HETATM   29  O   UNL     1      21.558  50.859  48.185  1.00  0.00    -0.268 OA
BRANCH  25  30
HETATM   30  C   UNL     1      18.593  51.080  47.136  1.00  0.00    -0.021 A 
HETATM   31  C   UNL     1      17.752  52.154  46.794  1.00  0.00     0.010 A 
HETATM   32  C   UNL     1      17.299  52.326  45.482  1.00  0.00     0.001 A 
HETATM   33  C   UNL     1      17.672  51.426  44.488  1.00  0.00     0.000 A 
HETATM   34  C   UNL     1      18.497  50.352  44.804  1.00  0.00     0.001 A 
HETATM   35  C   UNL     1      18.952  50.181  46.113  1.00  0.00     0.010 A 
ENDBRANCH  25  30
ENDBRANCH   2  21
TORSDOF 6
ENDMDL
