MODEL 1
REMARK VINA RESULT:     -11.4      0.000      0.000
REMARK  6 active torsions:
REMARK  status: ('A' for Active; 'I' for Inactive)
REMARK    1  A    between atoms: N_9  and  C_10 
REMARK    2  A    between atoms: C_10  and  C_11 
REMARK       I    between atoms: C_11  and  N_12 
REMARK    3  A    between atoms: N_12  and  C_13 
REMARK    4  A    between atoms: C_14  and  C_15 
REMARK       I    between atoms: C_15  and  N_16 
REMARK    5  A    between atoms: N_16  and  C_17 
REMARK    6  A    between atoms: C_17  and  C_18 
ROOT
HETATM    1  C   UNL     1      24.905  46.661  51.084  1.00  0.00     0.240 C 
HETATM    2  N   UNL     1      24.871  46.877  49.716  1.00  0.00    -0.325 N 
HETATM    3  O   UNL     1      24.999  47.548  51.931  1.00  0.00    -0.271 OA
HETATM    4  H   UNL     1      24.349  46.179  49.197  1.00  0.00     0.169 HD
ENDROOT
BRANCH   1   5
HETATM    5  C   UNL     1      24.734  45.184  51.452  1.00  0.00     0.240 C 
BRANCH   5   6
HETATM    6  N   UNL     1      25.999  44.669  51.901  1.00  0.00    -0.259 N 
HETATM    7  C   UNL     1      27.091  44.602  51.095  1.00  0.00     0.326 C 
HETATM    8  N   UNL     1      28.154  44.169  51.839  1.00  0.00    -0.320 N 
HETATM    9  O   UNL     1      27.123  44.863  49.905  1.00  0.00    -0.247 OA
HETATM   10  C   UNL     1      27.766  43.736  53.164  1.00  0.00     0.144 C 
HETATM   11  H   UNL     1      29.085  44.122  51.449  1.00  0.00     0.165 HD
HETATM   12  C   UNL     1      28.634  44.374  54.233  1.00  0.00    -0.014 A 
HETATM   13  C   UNL     1      26.290  44.202  53.154  1.00  0.00     0.261 C 
HETATM   14  C   UNL     1      27.781  42.198  53.226  1.00  0.00     0.047 C 
HETATM   15  C   UNL     1      29.659  43.632  54.861  1.00  0.00    -0.049 A 
HETATM   16  C   UNL     1      28.455  45.721  54.599  1.00  0.00     0.011 A 
HETATM   17  C   UNL     1      30.441  44.235  55.860  1.00  0.00     0.007 A 
HETATM   18  C   UNL     1      29.906  42.174  54.553  1.00  0.00     0.039 C 
HETATM   19  C   UNL     1      30.230  45.562  56.226  1.00  0.00     0.001 A 
HETATM   20  C   UNL     1      29.241  46.305  55.593  1.00  0.00     0.001 A 
HETATM   21  C   UNL     1      29.215  41.684  53.285  1.00  0.00     0.008 C 
HETATM   22  O   UNL     1      25.490  44.100  54.075  1.00  0.00    -0.270 OA
ENDBRANCH   5   6
ENDBRANCH   1   5
BRANCH   2  23
HETATM   23  C   UNL     1      24.956  48.144  49.094  1.00  0.00     0.050 A 
HETATM   24  C   UNL     1      23.886  48.951  48.662  1.00  0.00     0.058 A 
HETATM   25  C   UNL     1      24.169  50.221  48.111  1.00  0.00     0.019 A 
HETATM   26  C   UNL     1      25.474  50.694  47.990  1.00  0.00     0.001 A 
HETATM   27  C   UNL     1      26.525  49.912  48.445  1.00  0.00     0.002 A 
HETATM   28  C   UNL     1      26.265  48.658  49.004  1.00  0.00     0.030 A 
BRANCH  24  29
HETATM   29  C   UNL     1      22.430  48.740  48.897  1.00  0.00     0.254 C 
HETATM   30  N   UNL     1      21.668  49.830  49.219  1.00  0.00    -0.351 N 
HETATM   31  H   UNL     1      22.089  50.757  49.175  1.00  0.00     0.163 HD
HETATM   32  O   UNL     1      22.004  47.588  48.934  1.00  0.00    -0.268 OA
BRANCH  30  33
HETATM   33  C   UNL     1      20.386  49.704  49.875  1.00  0.00     0.187 C 
BRANCH  33  34
HETATM   34  C   UNL     1      19.494  50.861  49.610  1.00  0.00     0.070 A 
HETATM   35  O   UNL     1      18.310  50.879  50.293  1.00  0.00    -0.325 OA
HETATM   36  C   UNL     1      17.606  51.951  49.847  1.00  0.00     0.142 A 
HETATM   37  C   UNL     1      18.323  52.635  48.894  1.00  0.00     0.027 A 
HETATM   38  C   UNL     1      19.540  51.930  48.739  1.00  0.00     0.036 A 
ENDBRANCH  33  34
ENDBRANCH  30  33
ENDBRANCH  24  29
ENDBRANCH   2  23
TORSDOF 6
ENDMDL
MODEL 2
REMARK VINA RESULT:     -10.6      1.996      2.538
REMARK  6 active torsions:
REMARK  status: ('A' for Active; 'I' for Inactive)
REMARK    1  A    between atoms: N_9  and  C_10 
REMARK    2  A    between atoms: C_10  and  C_11 
REMARK       I    between atoms: C_11  and  N_12 
REMARK    3  A    between atoms: N_12  and  C_13 
REMARK    4  A    between atoms: C_14  and  C_15 
REMARK       I    between atoms: C_15  and  N_16 
REMARK    5  A    between atoms: N_16  and  C_17 
REMARK    6  A    between atoms: C_17  and  C_18 
ROOT
HETATM    1  C   UNL     1      24.456  45.578  49.904  1.00  0.00     0.240 C 
HETATM    2  N   UNL     1      25.130  46.681  50.402  1.00  0.00    -0.325 N 
HETATM    3  O   UNL     1      24.060  45.463  48.745  1.00  0.00    -0.271 OA
HETATM    4  H   UNL     1      25.772  46.471  51.159  1.00  0.00     0.169 HD
ENDROOT
BRANCH   1   5
HETATM    5  C   UNL     1      24.317  44.457  50.939  1.00  0.00     0.240 C 
BRANCH   5   6
HETATM    6  N   UNL     1      25.604  44.213  51.533  1.00  0.00    -0.259 N 
HETATM    7  C   UNL     1      26.752  44.185  50.807  1.00  0.00     0.326 C 
HETATM    8  N   UNL     1      27.806  44.037  51.667  1.00  0.00    -0.320 N 
HETATM    9  O   UNL     1      26.838  44.260  49.594  1.00  0.00    -0.247 OA
HETATM   10  C   UNL     1      27.382  43.762  53.023  1.00  0.00     0.144 C 
HETATM   11  H   UNL     1      28.761  44.070  51.340  1.00  0.00     0.165 HD
HETATM   12  C   UNL     1      28.069  44.681  54.016  1.00  0.00    -0.014 A 
HETATM   13  C   UNL     1      25.860  43.995  52.859  1.00  0.00     0.261 C 
HETATM   14  C   UNL     1      27.606  42.272  53.338  1.00  0.00     0.047 C 
HETATM   15  C   UNL     1      29.138  44.208  54.811  1.00  0.00    -0.049 A 
HETATM   16  C   UNL     1      27.678  46.027  54.145  1.00  0.00     0.011 A 
HETATM   17  C   UNL     1      29.750  45.069  55.736  1.00  0.00     0.007 A 
HETATM   18  C   UNL     1      29.607  42.773  54.761  1.00  0.00     0.039 C 
HETATM   19  C   UNL     1      29.329  46.390  55.867  1.00  0.00     0.001 A 
HETATM   20  C   UNL     1      28.297  46.869  55.070  1.00  0.00     0.001 A 
HETATM   21  C   UNL     1      29.090  41.994  53.556  1.00  0.00     0.008 C 
HETATM   22  O   UNL     1      25.015  43.919  53.741  1.00  0.00    -0.270 OA
ENDBRANCH   5   6
ENDBRANCH   1   5
BRANCH   2  23
HETATM   23  C   UNL     1      25.444  47.841  49.656  1.00  0.00     0.050 A 
HETATM   24  C   UNL     1      24.547  48.820  49.189  1.00  0.00     0.058 A 
HETATM   25  C   UNL     1      25.060  49.945  48.506  1.00  0.00     0.019 A 
HETATM   26  C   UNL     1      26.426  50.111  48.289  1.00  0.00     0.001 A 
HETATM   27  C   UNL     1      27.312  49.163  48.777  1.00  0.00     0.002 A 
HETATM   28  C   UNL     1      26.826  48.049  49.466  1.00  0.00     0.030 A 
BRANCH  24  29
HETATM   29  C   UNL     1      23.096  48.951  49.499  1.00  0.00     0.254 C 
HETATM   30  N   UNL     1      22.248  47.994  49.011  1.00  0.00    -0.351 N 
HETATM   31  H   UNL     1      22.641  47.171  48.558  1.00  0.00     0.163 HD
HETATM   32  O   UNL     1      22.705  49.978  50.051  1.00  0.00    -0.268 OA
BRANCH  30  33
HETATM   33  C   UNL     1      20.827  48.226  48.870  1.00  0.00     0.187 C 
BRANCH  33  34
HETATM   34  C   UNL     1      20.090  47.009  48.448  1.00  0.00     0.070 A 
HETATM   35  O   UNL     1      18.732  47.130  48.351  1.00  0.00    -0.325 OA
HETATM   36  C   UNL     1      18.240  45.900  48.050  1.00  0.00     0.142 A 
HETATM   37  C   UNL     1      19.263  44.988  47.937  1.00  0.00     0.027 A 
HETATM   38  C   UNL     1      20.456  45.703  48.198  1.00  0.00     0.036 A 
ENDBRANCH  33  34
ENDBRANCH  30  33
ENDBRANCH  24  29
ENDBRANCH   2  23
TORSDOF 6
ENDMDL
MODEL 3
REMARK VINA RESULT:     -10.1      5.348      9.683
REMARK  6 active torsions:
REMARK  status: ('A' for Active; 'I' for Inactive)
REMARK    1  A    between atoms: N_9  and  C_10 
REMARK    2  A    between atoms: C_10  and  C_11 
REMARK       I    between atoms: C_11  and  N_12 
REMARK    3  A    between atoms: N_12  and  C_13 
REMARK    4  A    between atoms: C_14  and  C_15 
REMARK       I    between atoms: C_15  and  N_16 
REMARK    5  A    between atoms: N_16  and  C_17 
REMARK    6  A    between atoms: C_17  and  C_18 
ROOT
HETATM    1  C   UNL     1      25.790  41.881  48.817  1.00  0.00     0.240 C 
HETATM    2  N   UNL     1      27.153  41.693  48.975  1.00  0.00    -0.325 N 
HETATM    3  O   UNL     1      24.983  40.985  48.574  1.00  0.00    -0.271 OA
HETATM    4  H   UNL     1      27.596  42.361  49.597  1.00  0.00     0.169 HD
ENDROOT
BRANCH   1   5
HETATM    5  C   UNL     1      25.364  43.333  49.054  1.00  0.00     0.240 C 
BRANCH   5   6
HETATM    6  N   UNL     1      25.705  43.701  50.402  1.00  0.00    -0.259 N 
HETATM    7  C   UNL     1      24.939  43.360  51.471  1.00  0.00     0.326 C 
HETATM    8  N   UNL     1      25.580  43.761  52.611  1.00  0.00    -0.320 N 
HETATM    9  O   UNL     1      23.853  42.807  51.430  1.00  0.00    -0.247 OA
HETATM   10  C   UNL     1      26.743  44.577  52.337  1.00  0.00     0.144 C 
HETATM   11  H   UNL     1      25.217  43.535  53.526  1.00  0.00     0.165 HD
HETATM   12  C   UNL     1      27.961  44.078  53.092  1.00  0.00    -0.014 A 
HETATM   13  C   UNL     1      26.809  44.404  50.799  1.00  0.00     0.261 C 
HETATM   14  C   UNL     1      26.418  46.051  52.639  1.00  0.00     0.047 C 
HETATM   15  C   UNL     1      28.412  44.750  54.250  1.00  0.00    -0.049 A 
HETATM   16  C   UNL     1      28.647  42.923  52.673  1.00  0.00     0.011 A 
HETATM   17  C   UNL     1      29.551  44.283  54.926  1.00  0.00     0.007 A 
HETATM   18  C   UNL     1      27.756  46.013  54.757  1.00  0.00     0.039 C 
HETATM   19  C   UNL     1      30.232  43.153  54.478  1.00  0.00     0.001 A 
HETATM   20  C   UNL     1      29.778  42.472  53.356  1.00  0.00     0.001 A 
HETATM   21  C   UNL     1      26.387  46.289  54.145  1.00  0.00     0.008 C 
HETATM   22  O   UNL     1      27.653  44.881  50.051  1.00  0.00    -0.270 OA
ENDBRANCH   5   6
ENDBRANCH   1   5
BRANCH   2  23
HETATM   23  C   UNL     1      27.817  40.449  48.865  1.00  0.00     0.050 A 
HETATM   24  C   UNL     1      28.097  39.738  47.683  1.00  0.00     0.058 A 
HETATM   25  C   UNL     1      28.825  38.530  47.769  1.00  0.00     0.019 A 
HETATM   26  C   UNL     1      29.276  38.032  48.990  1.00  0.00     0.001 A 
HETATM   27  C   UNL     1      29.027  38.748  50.150  1.00  0.00     0.002 A 
HETATM   28  C   UNL     1      28.319  39.950  50.084  1.00  0.00     0.030 A 
BRANCH  24  29
HETATM   29  C   UNL     1      27.908  40.193  46.277  1.00  0.00     0.254 C 
HETATM   30  N   UNL     1      27.545  39.259  45.344  1.00  0.00    -0.351 N 
HETATM   31  H   UNL     1      27.305  38.319  45.655  1.00  0.00     0.163 HD
HETATM   32  O   UNL     1      28.222  41.345  45.987  1.00  0.00    -0.268 OA
BRANCH  30  33
HETATM   33  C   UNL     1      27.748  39.468  43.928  1.00  0.00     0.187 C 
BRANCH  33  34
HETATM   34  C   UNL     1      29.099  39.049  43.478  1.00  0.00     0.070 A 
HETATM   35  O   UNL     1      29.910  40.040  42.999  1.00  0.00    -0.325 OA
HETATM   36  C   UNL     1      31.048  39.448  42.555  1.00  0.00     0.142 A 
HETATM   37  C   UNL     1      30.991  38.088  42.753  1.00  0.00     0.027 A 
HETATM   38  C   UNL     1      29.732  37.830  43.345  1.00  0.00     0.036 A 
ENDBRANCH  33  34
ENDBRANCH  30  33
ENDBRANCH  24  29
ENDBRANCH   2  23
TORSDOF 6
ENDMDL
MODEL 4
REMARK VINA RESULT:     -10.1      4.553      8.043
REMARK  6 active torsions:
REMARK  status: ('A' for Active; 'I' for Inactive)
REMARK    1  A    between atoms: N_9  and  C_10 
REMARK    2  A    between atoms: C_10  and  C_11 
REMARK       I    between atoms: C_11  and  N_12 
REMARK    3  A    between atoms: N_12  and  C_13 
REMARK    4  A    between atoms: C_14  and  C_15 
REMARK       I    between atoms: C_15  and  N_16 
REMARK    5  A    between atoms: N_16  and  C_17 
REMARK    6  A    between atoms: C_17  and  C_18 
ROOT
HETATM    1  C   UNL     1      23.798  43.915  50.209  1.00  0.00     0.240 C 
HETATM    2  N   UNL     1      24.150  43.838  48.871  1.00  0.00    -0.325 N 
HETATM    3  O   UNL     1      23.112  43.083  50.801  1.00  0.00    -0.271 OA
HETATM    4  H   UNL     1      25.035  44.280  48.647  1.00  0.00     0.169 HD
ENDROOT
BRANCH   1   5
HETATM    5  C   UNL     1      24.424  45.122  50.914  1.00  0.00     0.240 C 
BRANCH   5   6
HETATM    6  N   UNL     1      25.698  44.733  51.456  1.00  0.00    -0.259 N 
HETATM    7  C   UNL     1      26.850  44.798  50.738  1.00  0.00     0.326 C 
HETATM    8  N   UNL     1      27.892  44.462  51.558  1.00  0.00    -0.320 N 
HETATM    9  O   UNL     1      26.946  45.088  49.558  1.00  0.00    -0.247 OA
HETATM   10  C   UNL     1      27.451  43.962  52.841  1.00  0.00     0.144 C 
HETATM   11  H   UNL     1      28.850  44.522  51.242  1.00  0.00     0.165 HD
HETATM   12  C   UNL     1      28.161  44.663  53.984  1.00  0.00    -0.014 A 
HETATM   13  C   UNL     1      25.939  44.271  52.721  1.00  0.00     0.261 C 
HETATM   14  C   UNL     1      27.624  42.432  52.883  1.00  0.00     0.047 C 
HETATM   15  C   UNL     1      29.208  44.019  54.682  1.00  0.00    -0.049 A 
HETATM   16  C   UNL     1      27.812  45.976  54.354  1.00  0.00     0.011 A 
HETATM   17  C   UNL     1      29.841  44.678  55.748  1.00  0.00     0.007 A 
HETATM   18  C   UNL     1      29.630  42.602  54.374  1.00  0.00     0.039 C 
HETATM   19  C   UNL     1      29.463  45.967  56.115  1.00  0.00     0.001 A 
HETATM   20  C   UNL     1      28.452  46.617  55.416  1.00  0.00     0.001 A 
HETATM   21  C   UNL     1      29.096  42.070  53.048  1.00  0.00     0.008 C 
HETATM   22  O   UNL     1      25.085  44.065  53.574  1.00  0.00    -0.270 OA
ENDBRANCH   5   6
ENDBRANCH   1   5
BRANCH   2  23
HETATM   23  C   UNL     1      23.759  42.804  47.989  1.00  0.00     0.050 A 
HETATM   24  C   UNL     1      24.444  41.601  47.735  1.00  0.00     0.058 A 
HETATM   25  C   UNL     1      23.863  40.657  46.858  1.00  0.00     0.019 A 
HETATM   26  C   UNL     1      22.631  40.885  46.247  1.00  0.00     0.001 A 
HETATM   27  C   UNL     1      21.942  42.056  46.523  1.00  0.00     0.002 A 
HETATM   28  C   UNL     1      22.494  42.996  47.396  1.00  0.00     0.030 A 
BRANCH  24  29
HETATM   29  C   UNL     1      25.643  41.066  48.439  1.00  0.00     0.254 C 
HETATM   30  N   UNL     1      25.580  39.791  48.933  1.00  0.00    -0.351 N 
HETATM   31  H   UNL     1      24.772  39.213  48.705  1.00  0.00     0.163 HD
HETATM   32  O   UNL     1      26.575  41.832  48.673  1.00  0.00    -0.268 OA
BRANCH  30  33
HETATM   33  C   UNL     1      26.469  39.326  49.974  1.00  0.00     0.187 C 
BRANCH  33  34
HETATM   34  C   UNL     1      27.769  38.848  49.442  1.00  0.00     0.070 A 
HETATM   35  O   UNL     1      27.737  38.263  48.206  1.00  0.00    -0.325 OA
HETATM   36  C   UNL     1      28.991  37.814  47.943  1.00  0.00     0.142 A 
HETATM   37  C   UNL     1      29.838  38.112  48.984  1.00  0.00     0.027 A 
HETATM   38  C   UNL     1      29.048  38.776  49.953  1.00  0.00     0.036 A 
ENDBRANCH  33  34
ENDBRANCH  30  33
ENDBRANCH  24  29
ENDBRANCH   2  23
TORSDOF 6
ENDMDL
MODEL 5
REMARK VINA RESULT:      -9.9      2.111      3.281
REMARK  6 active torsions:
REMARK  status: ('A' for Active; 'I' for Inactive)
REMARK    1  A    between atoms: N_9  and  C_10 
REMARK    2  A    between atoms: C_10  and  C_11 
REMARK       I    between atoms: C_11  and  N_12 
REMARK    3  A    between atoms: N_12  and  C_13 
REMARK    4  A    between atoms: C_14  and  C_15 
REMARK       I    between atoms: C_15  and  N_16 
REMARK    5  A    between atoms: N_16  and  C_17 
REMARK    6  A    between atoms: C_17  and  C_18 
ROOT
HETATM    1  C   UNL     1      23.906  47.351  49.529  1.00  0.00     0.240 C 
HETATM    2  N   UNL     1      23.027  46.305  49.295  1.00  0.00    -0.325 N 
HETATM    3  O   UNL     1      24.018  48.344  48.812  1.00  0.00    -0.271 OA
HETATM    4  H   UNL     1      22.711  45.832  50.135  1.00  0.00     0.169 HD
ENDROOT
BRANCH   1   5
HETATM    5  C   UNL     1      24.687  47.183  50.835  1.00  0.00     0.240 C 
BRANCH   5   6
HETATM    6  N   UNL     1      25.577  46.060  50.702  1.00  0.00    -0.259 N 
HETATM    7  C   UNL     1      26.679  46.090  49.910  1.00  0.00     0.326 C 
HETATM    8  N   UNL     1      27.367  44.919  50.078  1.00  0.00    -0.320 N 
HETATM    9  O   UNL     1      27.001  46.994  49.158  1.00  0.00    -0.247 OA
HETATM   10  C   UNL     1      26.635  43.954  50.868  1.00  0.00     0.144 C 
HETATM   11  H   UNL     1      28.263  44.767  49.637  1.00  0.00     0.165 HD
HETATM   12  C   UNL     1      27.491  43.386  51.984  1.00  0.00    -0.014 A 
HETATM   13  C   UNL     1      25.463  44.852  51.333  1.00  0.00     0.261 C 
HETATM   14  C   UNL     1      26.063  42.863  49.944  1.00  0.00     0.047 C 
HETATM   15  C   UNL     1      28.048  42.092  51.874  1.00  0.00    -0.049 A 
HETATM   16  C   UNL     1      27.772  44.144  53.136  1.00  0.00     0.011 A 
HETATM   17  C   UNL     1      28.824  41.577  52.925  1.00  0.00     0.007 A 
HETATM   18  C   UNL     1      27.777  41.195  50.689  1.00  0.00     0.039 C 
HETATM   19  C   UNL     1      29.068  42.334  54.068  1.00  0.00     0.001 A 
HETATM   20  C   UNL     1      28.546  43.618  54.172  1.00  0.00     0.001 A 
HETATM   21  C   UNL     1      27.171  41.918  49.491  1.00  0.00     0.008 C 
HETATM   22  O   UNL     1      24.544  44.522  52.072  1.00  0.00    -0.270 OA
ENDBRANCH   5   6
ENDBRANCH   1   5
BRANCH   2  23
HETATM   23  C   UNL     1      22.145  46.220  48.193  1.00  0.00     0.050 A 
HETATM   24  C   UNL     1      20.957  46.949  47.998  1.00  0.00     0.058 A 
HETATM   25  C   UNL     1      20.234  46.767  46.799  1.00  0.00     0.019 A 
HETATM   26  C   UNL     1      20.669  45.892  45.806  1.00  0.00     0.001 A 
HETATM   27  C   UNL     1      21.855  45.197  45.985  1.00  0.00     0.002 A 
HETATM   28  C   UNL     1      22.591  45.372  47.159  1.00  0.00     0.030 A 
BRANCH  24  29
HETATM   29  C   UNL     1      20.436  48.081  48.815  1.00  0.00     0.254 C 
HETATM   30  N   UNL     1      21.049  49.298  48.688  1.00  0.00    -0.351 N 
HETATM   31  H   UNL     1      21.755  49.422  47.965  1.00  0.00     0.163 HD
HETATM   32  O   UNL     1      19.582  47.844  49.667  1.00  0.00    -0.268 OA
BRANCH  30  33
HETATM   33  C   UNL     1      20.935  50.325  49.700  1.00  0.00     0.187 C 
BRANCH  33  34
HETATM   34  C   UNL     1      19.786  51.234  49.462  1.00  0.00     0.070 A 
HETATM   35  O   UNL     1      18.683  51.030  50.243  1.00  0.00    -0.325 OA
HETATM   36  C   UNL     1      17.722  51.887  49.812  1.00  0.00     0.142 A 
HETATM   37  C   UNL     1      18.192  52.654  48.772  1.00  0.00     0.027 A 
HETATM   38  C   UNL     1      19.523  52.230  48.543  1.00  0.00     0.036 A 
ENDBRANCH  33  34
ENDBRANCH  30  33
ENDBRANCH  24  29
ENDBRANCH   2  23
TORSDOF 6
ENDMDL
MODEL 6
REMARK VINA RESULT:      -9.9      2.662      3.802
REMARK  6 active torsions:
REMARK  status: ('A' for Active; 'I' for Inactive)
REMARK    1  A    between atoms: N_9  and  C_10 
REMARK    2  A    between atoms: C_10  and  C_11 
REMARK       I    between atoms: C_11  and  N_12 
REMARK    3  A    between atoms: N_12  and  C_13 
REMARK    4  A    between atoms: C_14  and  C_15 
REMARK       I    between atoms: C_15  and  N_16 
REMARK    5  A    between atoms: N_16  and  C_17 
REMARK    6  A    between atoms: C_17  and  C_18 
ROOT
HETATM    1  C   UNL     1      23.755  44.678  50.396  1.00  0.00     0.240 C 
HETATM    2  N   UNL     1      23.716  44.954  49.039  1.00  0.00    -0.325 N 
HETATM    3  O   UNL     1      23.152  43.754  50.940  1.00  0.00    -0.271 OA
HETATM    4  H   UNL     1      24.557  45.391  48.678  1.00  0.00     0.169 HD
ENDROOT
BRANCH   1   5
HETATM    5  C   UNL     1      24.704  45.607  51.159  1.00  0.00     0.240 C 
BRANCH   5   6
HETATM    6  N   UNL     1      25.894  44.874  51.500  1.00  0.00    -0.259 N 
HETATM    7  C   UNL     1      26.975  44.811  50.680  1.00  0.00     0.326 C 
HETATM    8  N   UNL     1      27.972  44.134  51.327  1.00  0.00    -0.320 N 
HETATM    9  O   UNL     1      27.048  45.262  49.550  1.00  0.00    -0.247 OA
HETATM   10  C   UNL     1      27.525  43.536  52.566  1.00  0.00     0.144 C 
HETATM   11  H   UNL     1      28.894  44.040  50.923  1.00  0.00     0.165 HD
HETATM   12  C   UNL     1      28.456  43.876  53.715  1.00  0.00    -0.014 A 
HETATM   13  C   UNL     1      26.116  44.173  52.653  1.00  0.00     0.261 C 
HETATM   14  C   UNL     1      27.352  42.018  52.370  1.00  0.00     0.047 C 
HETATM   15  C   UNL     1      29.379  42.921  54.197  1.00  0.00    -0.049 A 
HETATM   16  C   UNL     1      28.440  45.154  54.303  1.00  0.00     0.011 A 
HETATM   17  C   UNL     1      30.221  43.249  55.272  1.00  0.00     0.007 A 
HETATM   18  C   UNL     1      29.447  41.515  53.647  1.00  0.00     0.039 C 
HETATM   19  C   UNL     1      30.170  44.511  55.858  1.00  0.00     0.001 A 
HETATM   20  C   UNL     1      29.283  45.464  55.371  1.00  0.00     0.001 A 
HETATM   21  C   UNL     1      28.712  41.332  52.324  1.00  0.00     0.008 C 
HETATM   22  O   UNL     1      25.303  44.016  53.555  1.00  0.00    -0.270 OA
ENDBRANCH   5   6
ENDBRANCH   1   5
BRANCH   2  23
HETATM   23  C   UNL     1      22.965  44.227  48.086  1.00  0.00     0.050 A 
HETATM   24  C   UNL     1      21.659  44.506  47.642  1.00  0.00     0.058 A 
HETATM   25  C   UNL     1      21.092  43.693  46.636  1.00  0.00     0.019 A 
HETATM   26  C   UNL     1      21.794  42.629  46.071  1.00  0.00     0.001 A 
HETATM   27  C   UNL     1      23.091  42.374  46.487  1.00  0.00     0.002 A 
HETATM   28  C   UNL     1      23.674  43.174  47.472  1.00  0.00     0.030 A 
BRANCH  24  29
HETATM   29  C   UNL     1      20.828  45.705  47.944  1.00  0.00     0.254 C 
HETATM   30  N   UNL     1      21.141  46.878  47.311  1.00  0.00    -0.351 N 
HETATM   31  H   UNL     1      21.846  46.868  46.576  1.00  0.00     0.163 HD
HETATM   32  O   UNL     1      19.998  45.630  48.848  1.00  0.00    -0.268 OA
BRANCH  30  33
HETATM   33  C   UNL     1      20.716  48.163  47.819  1.00  0.00     0.187 C 
BRANCH  33  34
HETATM   34  C   UNL     1      21.826  49.145  47.885  1.00  0.00     0.070 A 
HETATM   35  O   UNL     1      23.092  48.629  47.840  1.00  0.00    -0.325 OA
HETATM   36  C   UNL     1      23.953  49.665  48.007  1.00  0.00     0.142 A 
HETATM   37  C   UNL     1      23.264  50.847  48.145  1.00  0.00     0.027 A 
HETATM   38  C   UNL     1      21.891  50.511  48.070  1.00  0.00     0.036 A 
ENDBRANCH  33  34
ENDBRANCH  30  33
ENDBRANCH  24  29
ENDBRANCH   2  23
TORSDOF 6
ENDMDL
MODEL 7
REMARK VINA RESULT:      -9.6      2.475     11.236
REMARK  6 active torsions:
REMARK  status: ('A' for Active; 'I' for Inactive)
REMARK    1  A    between atoms: N_9  and  C_10 
REMARK    2  A    between atoms: C_10  and  C_11 
REMARK       I    between atoms: C_11  and  N_12 
REMARK    3  A    between atoms: N_12  and  C_13 
REMARK    4  A    between atoms: C_14  and  C_15 
REMARK       I    between atoms: C_15  and  N_16 
REMARK    5  A    between atoms: N_16  and  C_17 
REMARK    6  A    between atoms: C_17  and  C_18 
ROOT
HETATM    1  C   UNL     1      21.857  48.149  48.597  1.00  0.00     0.240 C 
HETATM    2  N   UNL     1      22.770  48.473  49.588  1.00  0.00    -0.325 N 
HETATM    3  O   UNL     1      22.145  47.953  47.417  1.00  0.00    -0.271 OA
HETATM    4  H   UNL     1      22.507  48.156  50.515  1.00  0.00     0.169 HD
ENDROOT
BRANCH   1   5
HETATM    5  C   UNL     1      20.434  47.980  49.139  1.00  0.00     0.240 C 
BRANCH   5   6
HETATM    6  N   UNL     1      19.639  49.098  48.709  1.00  0.00    -0.259 N 
HETATM    7  C   UNL     1      19.947  50.382  49.028  1.00  0.00     0.326 C 
HETATM    8  N   UNL     1      19.067  51.212  48.389  1.00  0.00    -0.320 N 
HETATM    9  O   UNL     1      20.842  50.743  49.773  1.00  0.00    -0.247 OA
HETATM   10  C   UNL     1      17.989  50.491  47.748  1.00  0.00     0.144 C 
HETATM   11  H   UNL     1      19.167  52.216  48.429  1.00  0.00     0.165 HD
HETATM   12  C   UNL     1      17.809  50.927  46.306  1.00  0.00    -0.014 A 
HETATM   13  C   UNL     1      18.511  49.046  47.936  1.00  0.00     0.261 C 
HETATM   14  C   UNL     1      16.702  50.647  48.581  1.00  0.00     0.047 C 
HETATM   15  C   UNL     1      16.749  51.787  45.943  1.00  0.00    -0.049 A 
HETATM   16  C   UNL     1      18.709  50.507  45.308  1.00  0.00     0.011 A 
HETATM   17  C   UNL     1      16.590  52.166  44.600  1.00  0.00     0.007 A 
HETATM   18  C   UNL     1      15.720  52.265  46.940  1.00  0.00     0.039 C 
HETATM   19  C   UNL     1      17.476  51.718  43.623  1.00  0.00     0.001 A 
HETATM   20  C   UNL     1      18.537  50.893  43.978  1.00  0.00     0.001 A 
HETATM   21  C   UNL     1      16.117  52.042  48.395  1.00  0.00     0.008 C 
HETATM   22  O   UNL     1      17.972  48.021  47.538  1.00  0.00    -0.270 OA
ENDBRANCH   5   6
ENDBRANCH   1   5
BRANCH   2  23
HETATM   23  C   UNL     1      24.159  48.641  49.385  1.00  0.00     0.050 A 
HETATM   24  C   UNL     1      25.195  47.840  49.899  1.00  0.00     0.058 A 
HETATM   25  C   UNL     1      26.529  48.134  49.537  1.00  0.00     0.019 A 
HETATM   26  C   UNL     1      26.841  49.190  48.683  1.00  0.00     0.001 A 
HETATM   27  C   UNL     1      25.818  49.959  48.152  1.00  0.00     0.002 A 
HETATM   28  C   UNL     1      24.492  49.677  48.488  1.00  0.00     0.030 A 
BRANCH  24  29
HETATM   29  C   UNL     1      25.073  46.551  50.636  1.00  0.00     0.254 C 
HETATM   30  N   UNL     1      26.046  46.239  51.547  1.00  0.00    -0.351 N 
HETATM   31  H   UNL     1      26.750  46.938  51.776  1.00  0.00     0.163 HD
HETATM   32  O   UNL     1      24.193  45.763  50.296  1.00  0.00    -0.268 OA
BRANCH  30  33
HETATM   33  C   UNL     1      26.275  44.881  51.991  1.00  0.00     0.187 C 
BRANCH  33  34
HETATM   34  C   UNL     1      27.227  44.807  53.128  1.00  0.00     0.070 A 
HETATM   35  O   UNL     1      27.255  45.890  53.962  1.00  0.00    -0.325 OA
HETATM   36  C   UNL     1      28.243  45.672  54.868  1.00  0.00     0.142 A 
HETATM   37  C   UNL     1      28.844  44.456  54.641  1.00  0.00     0.027 A 
HETATM   38  C   UNL     1      28.191  43.900  53.516  1.00  0.00     0.036 A 
ENDBRANCH  33  34
ENDBRANCH  30  33
ENDBRANCH  24  29
ENDBRANCH   2  23
TORSDOF 6
ENDMDL
MODEL 8
REMARK VINA RESULT:      -9.5      2.908      4.921
REMARK  6 active torsions:
REMARK  status: ('A' for Active; 'I' for Inactive)
REMARK    1  A    between atoms: N_9  and  C_10 
REMARK    2  A    between atoms: C_10  and  C_11 
REMARK       I    between atoms: C_11  and  N_12 
REMARK    3  A    between atoms: N_12  and  C_13 
REMARK    4  A    between atoms: C_14  and  C_15 
REMARK       I    between atoms: C_15  and  N_16 
REMARK    5  A    between atoms: N_16  and  C_17 
REMARK    6  A    between atoms: C_17  and  C_18 
ROOT
HETATM    1  C   UNL     1      23.701  42.788  48.174  1.00  0.00     0.240 C 
HETATM    2  N   UNL     1      23.938  43.943  47.446  1.00  0.00    -0.325 N 
HETATM    3  O   UNL     1      22.609  42.229  48.264  1.00  0.00    -0.271 OA
HETATM    4  H   UNL     1      24.882  44.021  47.084  1.00  0.00     0.169 HD
ENDROOT
BRANCH   1   5
HETATM    5  C   UNL     1      24.975  42.220  48.807  1.00  0.00     0.240 C 
BRANCH   5   6
HETATM    6  N   UNL     1      25.236  42.924  50.034  1.00  0.00    -0.259 N 
HETATM    7  C   UNL     1      24.391  42.880  51.097  1.00  0.00     0.326 C 
HETATM    8  N   UNL     1      24.965  43.559  52.136  1.00  0.00    -0.320 N 
HETATM    9  O   UNL     1      23.296  42.345  51.124  1.00  0.00    -0.247 OA
HETATM   10  C   UNL     1      26.165  44.265  51.743  1.00  0.00     0.144 C 
HETATM   11  H   UNL     1      24.537  43.583  53.051  1.00  0.00     0.165 HD
HETATM   12  C   UNL     1      27.317  43.971  52.687  1.00  0.00    -0.014 A 
HETATM   13  C   UNL     1      26.329  43.697  50.312  1.00  0.00     0.261 C 
HETATM   14  C   UNL     1      25.861  45.770  51.629  1.00  0.00     0.047 C 
HETATM   15  C   UNL     1      27.708  44.918  53.659  1.00  0.00    -0.049 A 
HETATM   16  C   UNL     1      27.999  42.741  52.632  1.00  0.00     0.011 A 
HETATM   17  C   UNL     1      28.787  44.634  54.512  1.00  0.00     0.007 A 
HETATM   18  C   UNL     1      27.053  46.275  53.773  1.00  0.00     0.039 C 
HETATM   19  C   UNL     1      29.465  43.421  54.423  1.00  0.00     0.001 A 
HETATM   20  C   UNL     1      29.069  42.474  53.487  1.00  0.00     0.001 A 
HETATM   21  C   UNL     1      25.736  46.393  53.015  1.00  0.00     0.008 C 
HETATM   22  O   UNL     1      27.233  43.955  49.528  1.00  0.00    -0.270 OA
ENDBRANCH   5   6
ENDBRANCH   1   5
BRANCH   2  23
HETATM   23  C   UNL     1      22.958  44.654  46.715  1.00  0.00     0.050 A 
HETATM   24  C   UNL     1      22.256  45.802  47.130  1.00  0.00     0.058 A 
HETATM   25  C   UNL     1      21.350  46.409  46.233  1.00  0.00     0.019 A 
HETATM   26  C   UNL     1      21.139  45.906  44.951  1.00  0.00     0.001 A 
HETATM   27  C   UNL     1      21.854  44.795  44.531  1.00  0.00     0.002 A 
HETATM   28  C   UNL     1      22.764  44.187  45.399  1.00  0.00     0.030 A 
BRANCH  24  29
HETATM   29  C   UNL     1      22.487  46.621  48.353  1.00  0.00     0.254 C 
HETATM   30  N   UNL     1      22.323  47.976  48.256  1.00  0.00    -0.351 N 
HETATM   31  H   UNL     1      21.939  48.367  47.397  1.00  0.00     0.163 HD
HETATM   32  O   UNL     1      22.951  46.069  49.349  1.00  0.00    -0.268 OA
BRANCH  30  33
HETATM   33  C   UNL     1      22.916  48.892  49.206  1.00  0.00     0.187 C 
BRANCH  33  34
HETATM   34  C   UNL     1      24.357  49.128  48.945  1.00  0.00     0.070 A 
HETATM   35  O   UNL     1      24.652  50.070  47.999  1.00  0.00    -0.325 OA
HETATM   36  C   UNL     1      26.001  50.070  47.840  1.00  0.00     0.142 A 
HETATM   37  C   UNL     1      26.584  49.152  48.681  1.00  0.00     0.027 A 
HETATM   38  C   UNL     1      25.523  48.541  49.391  1.00  0.00     0.036 A 
ENDBRANCH  33  34
ENDBRANCH  30  33
ENDBRANCH  24  29
ENDBRANCH   2  23
TORSDOF 6
ENDMDL
MODEL 9
REMARK VINA RESULT:      -9.5      2.380     11.033
REMARK  6 active torsions:
REMARK  status: ('A' for Active; 'I' for Inactive)
REMARK    1  A    between atoms: N_9  and  C_10 
REMARK    2  A    between atoms: C_10  and  C_11 
REMARK       I    between atoms: C_11  and  N_12 
REMARK    3  A    between atoms: N_12  and  C_13 
REMARK    4  A    between atoms: C_14  and  C_15 
REMARK       I    between atoms: C_15  and  N_16 
REMARK    5  A    between atoms: N_16  and  C_17 
REMARK    6  A    between atoms: C_17  and  C_18 
ROOT
HETATM    1  C   UNL     1      21.831  47.753  48.505  1.00  0.00     0.240 C 
HETATM    2  N   UNL     1      22.641  48.395  49.428  1.00  0.00    -0.325 N 
HETATM    3  O   UNL     1      22.215  47.317  47.421  1.00  0.00    -0.271 OA
HETATM    4  H   UNL     1      22.347  48.279  50.392  1.00  0.00     0.169 HD
ENDROOT
BRANCH   1   5
HETATM    5  C   UNL     1      20.397  47.566  49.009  1.00  0.00     0.240 C 
BRANCH   5   6
HETATM    6  N   UNL     1      19.507  48.312  48.161  1.00  0.00    -0.259 N 
HETATM    7  C   UNL     1      18.609  47.713  47.336  1.00  0.00     0.326 C 
HETATM    8  N   UNL     1      17.847  48.684  46.746  1.00  0.00    -0.320 N 
HETATM    9  O   UNL     1      18.505  46.516  47.134  1.00  0.00    -0.247 OA
HETATM   10  C   UNL     1      18.340  50.017  47.014  1.00  0.00     0.144 C 
HETATM   11  H   UNL     1      17.064  48.450  46.151  1.00  0.00     0.165 HD
HETATM   12  C   UNL     1      17.232  50.931  47.504  1.00  0.00    -0.014 A 
HETATM   13  C   UNL     1      19.421  49.674  48.067  1.00  0.00     0.261 C 
HETATM   14  C   UNL     1      19.049  50.563  45.761  1.00  0.00     0.047 C 
HETATM   15  C   UNL     1      16.653  51.886  46.639  1.00  0.00    -0.049 A 
HETATM   16  C   UNL     1      16.740  50.827  48.819  1.00  0.00     0.011 A 
HETATM   17  C   UNL     1      15.640  52.733  47.116  1.00  0.00     0.007 A 
HETATM   18  C   UNL     1      17.136  52.087  45.221  1.00  0.00     0.039 C 
HETATM   19  C   UNL     1      15.186  52.632  48.429  1.00  0.00     0.001 A 
HETATM   20  C   UNL     1      15.733  51.677  49.278  1.00  0.00     0.001 A 
HETATM   21  C   UNL     1      18.026  50.963  44.704  1.00  0.00     0.008 C 
HETATM   22  O   UNL     1      20.138  50.472  48.659  1.00  0.00    -0.270 OA
ENDBRANCH   5   6
ENDBRANCH   1   5
BRANCH   2  23
HETATM   23  C   UNL     1      24.020  48.657  49.251  1.00  0.00     0.050 A 
HETATM   24  C   UNL     1      25.098  47.944  49.808  1.00  0.00     0.058 A 
HETATM   25  C   UNL     1      26.416  48.323  49.468  1.00  0.00     0.019 A 
HETATM   26  C   UNL     1      26.672  49.377  48.594  1.00  0.00     0.001 A 
HETATM   27  C   UNL     1      25.610  50.059  48.021  1.00  0.00     0.002 A 
HETATM   28  C   UNL     1      24.300  49.692  48.335  1.00  0.00     0.030 A 
BRANCH  24  29
HETATM   29  C   UNL     1      25.049  46.667  50.575  1.00  0.00     0.254 C 
HETATM   30  N   UNL     1      26.120  46.355  51.368  1.00  0.00    -0.351 N 
HETATM   31  H   UNL     1      26.854  47.048  51.501  1.00  0.00     0.163 HD
HETATM   32  O   UNL     1      24.126  45.886  50.354  1.00  0.00    -0.268 OA
BRANCH  30  33
HETATM   33  C   UNL     1      26.385  45.002  51.803  1.00  0.00     0.187 C 
BRANCH  33  34
HETATM   34  C   UNL     1      27.165  44.951  53.065  1.00  0.00     0.070 A 
HETATM   35  O   UNL     1      27.016  46.017  53.909  1.00  0.00    -0.325 OA
HETATM   36  C   UNL     1      27.872  45.830  54.946  1.00  0.00     0.142 A 
HETATM   37  C   UNL     1      28.562  44.650  54.793  1.00  0.00     0.027 A 
HETATM   38  C   UNL     1      28.108  44.086  53.577  1.00  0.00     0.036 A 
ENDBRANCH  33  34
ENDBRANCH  30  33
ENDBRANCH  24  29
ENDBRANCH   2  23
TORSDOF 6
ENDMDL
MODEL 10
REMARK VINA RESULT:      -9.0      3.776      9.458
REMARK  6 active torsions:
REMARK  status: ('A' for Active; 'I' for Inactive)
REMARK    1  A    between atoms: N_9  and  C_10 
REMARK    2  A    between atoms: C_10  and  C_11 
REMARK       I    between atoms: C_11  and  N_12 
REMARK    3  A    between atoms: N_12  and  C_13 
REMARK    4  A    between atoms: C_14  and  C_15 
REMARK       I    between atoms: C_15  and  N_16 
REMARK    5  A    between atoms: N_16  and  C_17 
REMARK    6  A    between atoms: C_17  and  C_18 
ROOT
HETATM    1  C   UNL     1      21.282  44.324  48.624  1.00  0.00     0.240 C 
HETATM    2  N   UNL     1      22.347  43.886  47.854  1.00  0.00    -0.325 N 
HETATM    3  O   UNL     1      21.235  44.264  49.852  1.00  0.00    -0.271 OA
HETATM    4  H   UNL     1      22.464  44.389  46.981  1.00  0.00     0.169 HD
ENDROOT
BRANCH   1   5
HETATM    5  C   UNL     1      20.177  44.974  47.786  1.00  0.00     0.240 C 
BRANCH   5   6
HETATM    6  N   UNL     1      20.416  46.391  47.724  1.00  0.00    -0.259 N 
HETATM    7  C   UNL     1      21.244  46.954  46.806  1.00  0.00     0.326 C 
HETATM    8  N   UNL     1      21.179  48.314  46.938  1.00  0.00    -0.320 N 
HETATM    9  O   UNL     1      21.945  46.356  46.008  1.00  0.00    -0.247 OA
HETATM   10  C   UNL     1      20.429  48.723  48.106  1.00  0.00     0.144 C 
HETATM   11  H   UNL     1      21.661  48.929  46.298  1.00  0.00     0.165 HD
HETATM   12  C   UNL     1      19.385  49.767  47.757  1.00  0.00    -0.014 A 
HETATM   13  C   UNL     1      19.863  47.347  48.532  1.00  0.00     0.261 C 
HETATM   14  C   UNL     1      21.403  49.199  49.200  1.00  0.00     0.047 C 
HETATM   15  C   UNL     1      19.601  51.129  48.065  1.00  0.00    -0.049 A 
HETATM   16  C   UNL     1      18.196  49.406  47.095  1.00  0.00     0.011 A 
HETATM   17  C   UNL     1      18.615  52.078  47.749  1.00  0.00     0.007 A 
HETATM   18  C   UNL     1      20.833  51.605  48.798  1.00  0.00     0.039 C 
HETATM   19  C   UNL     1      17.433  51.696  47.118  1.00  0.00     0.001 A 
HETATM   20  C   UNL     1      17.226  50.362  46.788  1.00  0.00     0.001 A 
HETATM   21  C   UNL     1      21.957  50.577  48.853  1.00  0.00     0.008 C 
HETATM   22  O   UNL     1      19.115  47.130  49.476  1.00  0.00    -0.270 OA
ENDBRANCH   5   6
ENDBRANCH   1   5
BRANCH   2  23
HETATM   23  C   UNL     1      23.525  43.293  48.364  1.00  0.00     0.050 A 
HETATM   24  C   UNL     1      24.632  43.953  48.929  1.00  0.00     0.058 A 
HETATM   25  C   UNL     1      25.700  43.182  49.439  1.00  0.00     0.019 A 
HETATM   26  C   UNL     1      25.680  41.789  49.402  1.00  0.00     0.001 A 
HETATM   27  C   UNL     1      24.576  41.138  48.875  1.00  0.00     0.002 A 
HETATM   28  C   UNL     1      23.505  41.883  48.375  1.00  0.00     0.030 A 
BRANCH  24  29
HETATM   29  C   UNL     1      24.759  45.399  49.265  1.00  0.00     0.254 C 
HETATM   30  N   UNL     1      25.893  45.810  49.912  1.00  0.00    -0.351 N 
HETATM   31  H   UNL     1      26.657  45.147  50.037  1.00  0.00     0.163 HD
HETATM   32  O   UNL     1      23.788  46.130  49.082  1.00  0.00    -0.268 OA
BRANCH  30  33
HETATM   33  C   UNL     1      25.948  47.048  50.656  1.00  0.00     0.187 C 
BRANCH  33  34
HETATM   34  C   UNL     1      26.235  48.220  49.792  1.00  0.00     0.070 A 
HETATM   35  O   UNL     1      25.150  48.933  49.362  1.00  0.00    -0.325 OA
HETATM   36  C   UNL     1      25.610  49.893  48.518  1.00  0.00     0.142 A 
HETATM   37  C   UNL     1      26.978  49.820  48.407  1.00  0.00     0.027 A 
HETATM   38  C   UNL     1      27.381  48.738  49.226  1.00  0.00     0.036 A 
ENDBRANCH  33  34
ENDBRANCH  30  33
ENDBRANCH  24  29
ENDBRANCH   2  23
TORSDOF 6
ENDMDL
