MODEL 1
REMARK VINA RESULT:      -8.0      0.000      0.000
REMARK  5 active torsions:
REMARK  status: ('A' for Active; 'I' for Inactive)
REMARK    1  A    between atoms: C_3  and  C_4 
REMARK    2  A    between atoms: N_7  and  C_9 
REMARK    3  A    between atoms: C_9  and  C_10 
REMARK    4  A    between atoms: C_21  and  C_22 
REMARK    5  A    between atoms: C_22  and  N_23 
ROOT
HETATM    1  C   UNL     1      29.664  46.252  38.466  1.00  0.00     0.159 C 
HETATM    2  N   UNL     1      28.656  46.933  39.262  1.00  0.00    -0.323 N 
HETATM    3  C   UNL     1      26.821  46.672  39.165  1.00  0.00     0.134 A 
HETATM    4  N   UNL     1      26.121  47.503  40.437  1.00  0.00    -0.134 NA
HETATM    5  N   UNL     1      27.627  48.270  41.398  1.00  0.00    -0.133 NA
HETATM    6  C   UNL     1      29.036  47.922  40.697  1.00  0.00     0.155 A 
ENDROOT
BRANCH   3   7
HETATM    7  C   UNL     1      26.336  45.629  38.404  1.00  0.00     0.060 C 
HETATM    8  C   UNL     1      26.831  45.099  39.812  1.00  0.00     0.040 C 
HETATM    9  C   UNL     1      27.403  46.544  40.878  1.00  0.00     0.236 C 
HETATM   10  N   UNL     1      27.489  48.360  39.513  1.00  0.00    -0.067 N 
HETATM   11  H   UNL     1      28.358  48.872  39.412  1.00  0.00     0.280 HD
HETATM   12  C   UNL     1      27.064  48.182  37.688  1.00  0.00     0.236 C 
HETATM   13  C   UNL     1      26.862  46.581  37.252  1.00  0.00     0.040 C 
BRANCH  10  14
HETATM   14  C   UNL     1      26.556  49.805  39.837  1.00  0.00     0.273 C 
BRANCH  14  15
HETATM   15  C   UNL     1      27.422  51.052  39.759  1.00  0.00    -0.030 A 
HETATM   16  C   UNL     1      27.902  51.567  38.546  1.00  0.00     0.051 A 
HETATM   17  C   UNL     1      28.689  52.717  38.529  1.00  0.00     0.117 A 
HETATM   18  F   UNL     1      29.092  53.202  37.349  1.00  0.00    -0.206 F 
HETATM   19  C   UNL     1      29.053  53.356  39.704  1.00  0.00     0.042 A 
HETATM   20  C   UNL     1      28.628  52.828  40.920  1.00  0.00     0.004 A 
HETATM   21  C   UNL     1      27.820  51.687  40.948  1.00  0.00     0.009 A 
ENDBRANCH  14  15
ENDBRANCH  10  14
ENDBRANCH   3   7
BRANCH   6  22
HETATM   22  C   UNL     1      30.404  48.427  41.059  1.00  0.00     0.315 C 
BRANCH  22  23
HETATM   23  N   UNL     1      30.895  49.746  40.441  1.00  0.00    -0.064 N 
HETATM   24  H   UNL     1      30.068  50.335  40.280  1.00  0.00     0.280 HD
HETATM   25  C   UNL     1      31.746  50.458  41.488  1.00  0.00     0.235 C 
HETATM   26  C   UNL     1      32.209  51.850  41.080  1.00  0.00     0.028 C 
HETATM   27  C   UNL     1      33.352  51.825  40.072  1.00  0.00     0.002 C 
HETATM   28  C   UNL     1      32.906  51.748  38.619  1.00  0.00     0.002 C 
HETATM   29  C   UNL     1      31.654  50.925  38.352  1.00  0.00     0.028 C 
HETATM   30  C   UNL     1      31.588  49.595  39.093  1.00  0.00     0.235 C 
ENDBRANCH  22  23
ENDBRANCH   6  22
TORSDOF 5
ENDMDL
MODEL 2
REMARK VINA RESULT:      -7.9     12.507     14.944
REMARK  5 active torsions:
REMARK  status: ('A' for Active; 'I' for Inactive)
REMARK    1  A    between atoms: C_3  and  C_4 
REMARK    2  A    between atoms: N_7  and  C_9 
REMARK    3  A    between atoms: C_9  and  C_10 
REMARK    4  A    between atoms: C_21  and  C_22 
REMARK    5  A    between atoms: C_22  and  N_23 
ROOT
HETATM    1  C   UNL     1      27.191  45.004  49.568  1.00  0.00     0.159 C 
HETATM    2  N   UNL     1      26.575  44.708  50.850  1.00  0.00    -0.323 N 
HETATM    3  C   UNL     1      25.238  45.693  51.679  1.00  0.00     0.134 A 
HETATM    4  N   UNL     1      24.707  44.818  53.002  1.00  0.00    -0.134 NA
HETATM    5  N   UNL     1      25.746  43.176  52.942  1.00  0.00    -0.133 NA
HETATM    6  C   UNL     1      26.787  43.161  51.711  1.00  0.00     0.155 A 
ENDROOT
BRANCH   3   7
HETATM    7  C   UNL     1      24.626  46.709  50.975  1.00  0.00     0.060 C 
HETATM    8  C   UNL     1      24.084  45.301  50.493  1.00  0.00     0.040 C 
HETATM    9  C   UNL     1      24.857  43.927  51.526  1.00  0.00     0.236 C 
HETATM   10  N   UNL     1      26.518  44.889  52.742  1.00  0.00    -0.067 N 
HETATM   11  H   UNL     1      27.467  44.539  52.661  1.00  0.00     0.280 HD
HETATM   12  C   UNL     1      26.887  46.724  52.540  1.00  0.00     0.236 C 
HETATM   13  C   UNL     1      26.022  47.394  51.276  1.00  0.00     0.040 C 
BRANCH  10  14
HETATM   14  C   UNL     1      26.537  44.831  54.492  1.00  0.00     0.273 C 
BRANCH  14  15
HETATM   15  C   UNL     1      27.958  44.830  55.031  1.00  0.00    -0.030 A 
HETATM   16  C   UNL     1      28.882  43.819  54.731  1.00  0.00     0.051 A 
HETATM   17  C   UNL     1      30.176  43.868  55.248  1.00  0.00     0.117 A 
HETATM   18  F   UNL     1      31.042  42.908  54.904  1.00  0.00    -0.206 F 
HETATM   19  C   UNL     1      30.570  44.887  56.101  1.00  0.00     0.042 A 
HETATM   20  C   UNL     1      29.648  45.870  56.451  1.00  0.00     0.004 A 
HETATM   21  C   UNL     1      28.354  45.843  55.921  1.00  0.00     0.009 A 
ENDBRANCH  14  15
ENDBRANCH  10  14
ENDBRANCH   3   7
BRANCH   6  22
HETATM   22  C   UNL     1      27.842  42.137  51.400  1.00  0.00     0.315 C 
BRANCH  22  23
HETATM   23  N   UNL     1      27.446  40.883  50.604  1.00  0.00    -0.064 N 
HETATM   24  H   UNL     1      26.890  40.286  51.229  1.00  0.00     0.280 HD
HETATM   25  C   UNL     1      26.519  41.325  49.475  1.00  0.00     0.235 C 
HETATM   26  C   UNL     1      25.929  40.181  48.663  1.00  0.00     0.028 C 
HETATM   27  C   UNL     1      26.928  39.565  47.690  1.00  0.00     0.002 C 
HETATM   28  C   UNL     1      27.784  38.458  48.286  1.00  0.00     0.002 C 
HETATM   29  C   UNL     1      28.173  38.632  49.747  1.00  0.00     0.028 C 
HETATM   30  C   UNL     1      28.621  40.037  50.131  1.00  0.00     0.235 C 
ENDBRANCH  22  23
ENDBRANCH   6  22
TORSDOF 5
ENDMDL
MODEL 3
REMARK VINA RESULT:      -7.8      1.382      1.689
REMARK  5 active torsions:
REMARK  status: ('A' for Active; 'I' for Inactive)
REMARK    1  A    between atoms: C_3  and  C_4 
REMARK    2  A    between atoms: N_7  and  C_9 
REMARK    3  A    between atoms: C_9  and  C_10 
REMARK    4  A    between atoms: C_21  and  C_22 
REMARK    5  A    between atoms: C_22  and  N_23 
ROOT
HETATM    1  C   UNL     1      29.586  46.737  38.309  1.00  0.00     0.159 C 
HETATM    2  N   UNL     1      28.777  47.430  39.297  1.00  0.00    -0.323 N 
HETATM    3  C   UNL     1      26.922  47.486  39.353  1.00  0.00     0.134 A 
HETATM    4  N   UNL     1      26.478  48.198  40.800  1.00  0.00    -0.134 NA
HETATM    5  N   UNL     1      28.163  48.546  41.703  1.00  0.00    -0.133 NA
HETATM    6  C   UNL     1      29.432  48.096  40.816  1.00  0.00     0.155 A 
ENDROOT
BRANCH   3   7
HETATM    7  C   UNL     1      26.205  46.674  38.499  1.00  0.00     0.060 C 
HETATM    8  C   UNL     1      26.751  45.836  39.728  1.00  0.00     0.040 C 
HETATM    9  C   UNL     1      27.646  46.974  40.934  1.00  0.00     0.236 C 
HETATM   10  N   UNL     1      27.877  48.976  39.884  1.00  0.00    -0.067 N 
HETATM   11  H   UNL     1      28.802  49.374  39.759  1.00  0.00     0.280 HD
HETATM   12  C   UNL     1      27.248  49.189  38.123  1.00  0.00     0.236 C 
HETATM   13  C   UNL     1      26.755  47.736  37.461  1.00  0.00     0.040 C 
BRANCH  10  14
HETATM   14  C   UNL     1      27.220  50.453  40.555  1.00  0.00     0.273 C 
BRANCH  14  15
HETATM   15  C   UNL     1      28.258  51.563  40.573  1.00  0.00    -0.030 A 
HETATM   16  C   UNL     1      29.074  51.821  41.684  1.00  0.00     0.051 A 
HETATM   17  C   UNL     1      30.015  52.849  41.647  1.00  0.00     0.117 A 
HETATM   18  F   UNL     1      30.804  53.036  42.711  1.00  0.00    -0.206 F 
HETATM   19  C   UNL     1      30.140  53.668  40.536  1.00  0.00     0.042 A 
HETATM   20  C   UNL     1      29.302  53.459  39.444  1.00  0.00     0.004 A 
HETATM   21  C   UNL     1      28.369  52.416  39.461  1.00  0.00     0.009 A 
ENDBRANCH  14  15
ENDBRANCH  10  14
ENDBRANCH   3   7
BRANCH   6  22
HETATM   22  C   UNL     1      30.891  48.310  41.106  1.00  0.00     0.315 C 
BRANCH  22  23
HETATM   23  N   UNL     1      31.534  49.653  40.724  1.00  0.00    -0.064 N 
HETATM   24  H   UNL     1      30.852  50.391  40.938  1.00  0.00     0.280 HD
HETATM   25  C   UNL     1      32.727  49.873  41.650  1.00  0.00     0.235 C 
HETATM   26  C   UNL     1      33.405  51.227  41.490  1.00  0.00     0.028 C 
HETATM   27  C   UNL     1      34.274  51.312  40.240  1.00  0.00     0.002 C 
HETATM   28  C   UNL     1      33.528  51.743  38.986  1.00  0.00     0.002 C 
HETATM   29  C   UNL     1      32.092  51.254  38.866  1.00  0.00     0.028 C 
HETATM   30  C   UNL     1      31.875  49.794  39.247  1.00  0.00     0.235 C 
ENDBRANCH  22  23
ENDBRANCH   6  22
TORSDOF 5
ENDMDL
MODEL 4
REMARK VINA RESULT:      -7.8      2.162      6.074
REMARK  5 active torsions:
REMARK  status: ('A' for Active; 'I' for Inactive)
REMARK    1  A    between atoms: C_3  and  C_4 
REMARK    2  A    between atoms: N_7  and  C_9 
REMARK    3  A    between atoms: C_9  and  C_10 
REMARK    4  A    between atoms: C_21  and  C_22 
REMARK    5  A    between atoms: C_22  and  N_23 
ROOT
HETATM    1  C   UNL     1      31.072  49.887  41.574  1.00  0.00     0.159 C 
HETATM    2  N   UNL     1      30.432  50.448  40.395  1.00  0.00    -0.323 N 
HETATM    3  C   UNL     1      29.975  52.229  40.139  1.00  0.00     0.134 A 
HETATM    4  N   UNL     1      29.493  52.406  38.546  1.00  0.00    -0.134 NA
HETATM    5  N   UNL     1      29.725  50.637  37.774  1.00  0.00    -0.133 NA
HETATM    6  C   UNL     1      30.255  49.566  38.856  1.00  0.00     0.155 A 
ENDROOT
BRANCH   3   7
HETATM    7  C   UNL     1      30.413  53.167  41.049  1.00  0.00     0.060 C 
HETATM    8  C   UNL     1      31.587  52.766  40.064  1.00  0.00     0.040 C 
HETATM    9  C   UNL     1      30.951  51.555  38.767  1.00  0.00     0.236 C 
HETATM   10  N   UNL     1      28.876  50.917  39.440  1.00  0.00    -0.067 N 
HETATM   11  H   UNL     1      28.676  49.933  39.585  1.00  0.00     0.280 HD
HETATM   12  C   UNL     1      28.169  51.579  41.054  1.00  0.00     0.236 C 
HETATM   13  C   UNL     1      29.307  52.443  41.922  1.00  0.00     0.040 C 
BRANCH  10  14
HETATM   14  C   UNL     1      27.462  51.162  38.438  1.00  0.00     0.273 C 
BRANCH  14  15
HETATM   15  C   UNL     1      26.569  49.933  38.429  1.00  0.00    -0.030 A 
HETATM   16  C   UNL     1      25.625  49.672  39.432  1.00  0.00     0.051 A 
HETATM   17  C   UNL     1      24.827  48.531  39.374  1.00  0.00     0.117 A 
HETATM   18  F   UNL     1      23.908  48.340  40.327  1.00  0.00    -0.206 F 
HETATM   19  C   UNL     1      24.973  47.605  38.352  1.00  0.00     0.042 A 
HETATM   20  C   UNL     1      25.941  47.822  37.376  1.00  0.00     0.004 A 
HETATM   21  C   UNL     1      26.733  48.975  37.413  1.00  0.00     0.009 A 
ENDBRANCH  14  15
ENDBRANCH  10  14
ENDBRANCH   3   7
BRANCH   6  22
HETATM   22  C   UNL     1      30.438  48.085  38.684  1.00  0.00     0.315 C 
BRANCH  22  23
HETATM   23  N   UNL     1      29.242  47.155  38.943  1.00  0.00    -0.064 N 
HETATM   24  H   UNL     1      28.409  47.612  38.552  1.00  0.00     0.280 HD
HETATM   25  C   UNL     1      29.465  45.880  38.134  1.00  0.00     0.235 C 
HETATM   26  C   UNL     1      28.302  44.898  38.177  1.00  0.00     0.028 C 
HETATM   27  C   UNL     1      28.222  44.129  39.491  1.00  0.00     0.002 C 
HETATM   28  C   UNL     1      27.429  44.833  40.582  1.00  0.00     0.002 C 
HETATM   29  C   UNL     1      27.537  46.350  40.609  1.00  0.00     0.028 C 
HETATM   30  C   UNL     1      28.946  46.898  40.415  1.00  0.00     0.235 C 
ENDBRANCH  22  23
ENDBRANCH   6  22
TORSDOF 5
ENDMDL
MODEL 5
REMARK VINA RESULT:      -7.6      1.288      1.920
REMARK  5 active torsions:
REMARK  status: ('A' for Active; 'I' for Inactive)
REMARK    1  A    between atoms: C_3  and  C_4 
REMARK    2  A    between atoms: N_7  and  C_9 
REMARK    3  A    between atoms: C_9  and  C_10 
REMARK    4  A    between atoms: C_21  and  C_22 
REMARK    5  A    between atoms: C_22  and  N_23 
ROOT
HETATM    1  C   UNL     1      29.895  47.119  38.329  1.00  0.00     0.159 C 
HETATM    2  N   UNL     1      29.194  47.734  39.444  1.00  0.00    -0.323 N 
HETATM    3  C   UNL     1      27.354  47.895  39.628  1.00  0.00     0.134 A 
HETATM    4  N   UNL     1      27.044  48.449  41.175  1.00  0.00    -0.134 NA
HETATM    5  N   UNL     1      28.799  48.579  42.001  1.00  0.00    -0.133 NA
HETATM    6  C   UNL     1      29.981  48.167  40.985  1.00  0.00     0.155 A 
ENDROOT
BRANCH   3   7
HETATM    7  C   UNL     1      26.535  47.239  38.732  1.00  0.00     0.060 C 
HETATM    8  C   UNL     1      27.183  46.207  39.744  1.00  0.00     0.040 C 
HETATM    9  C   UNL     1      28.224  47.124  41.020  1.00  0.00     0.236 C 
HETATM   10  N   UNL     1      28.393  49.271  40.293  1.00  0.00    -0.067 N 
HETATM   11  H   UNL     1      29.309  49.679  40.138  1.00  0.00     0.280 HD
HETATM   12  C   UNL     1      27.593  49.776  38.665  1.00  0.00     0.236 C 
HETATM   13  C   UNL     1      27.001  48.455  37.830  1.00  0.00     0.040 C 
BRANCH  10  14
HETATM   14  C   UNL     1      27.843  50.622  41.261  1.00  0.00     0.273 C 
BRANCH  14  15
HETATM   15  C   UNL     1      28.789  51.805  41.150  1.00  0.00    -0.030 A 
HETATM   16  C   UNL     1      28.607  52.838  40.220  1.00  0.00     0.051 A 
HETATM   17  C   UNL     1      29.503  53.904  40.162  1.00  0.00     0.117 A 
HETATM   18  F   UNL     1      29.271  54.892  39.290  1.00  0.00    -0.206 F 
HETATM   19  C   UNL     1      30.615  53.952  40.988  1.00  0.00     0.042 A 
HETATM   20  C   UNL     1      30.840  52.909  41.882  1.00  0.00     0.004 A 
HETATM   21  C   UNL     1      29.936  51.845  41.964  1.00  0.00     0.009 A 
ENDBRANCH  14  15
ENDBRANCH  10  14
ENDBRANCH   3   7
BRANCH   6  22
HETATM   22  C   UNL     1      31.465  48.253  41.201  1.00  0.00     0.315 C 
BRANCH  22  23
HETATM   23  N   UNL     1      32.290  49.195  40.310  1.00  0.00    -0.064 N 
HETATM   24  H   UNL     1      32.906  48.609  39.733  1.00  0.00     0.280 HD
HETATM   25  C   UNL     1      31.325  49.894  39.357  1.00  0.00     0.235 C 
HETATM   26  C   UNL     1      32.000  50.773  38.313  1.00  0.00     0.028 C 
HETATM   27  C   UNL     1      32.499  52.096  38.882  1.00  0.00     0.002 C 
HETATM   28  C   UNL     1      33.901  52.036  39.471  1.00  0.00     0.002 C 
HETATM   29  C   UNL     1      34.275  50.735  40.164  1.00  0.00     0.028 C 
HETATM   30  C   UNL     1      33.196  50.155  41.071  1.00  0.00     0.235 C 
ENDBRANCH  22  23
ENDBRANCH   6  22
TORSDOF 5
ENDMDL
MODEL 6
REMARK VINA RESULT:      -7.5      2.221      6.579
REMARK  5 active torsions:
REMARK  status: ('A' for Active; 'I' for Inactive)
REMARK    1  A    between atoms: C_3  and  C_4 
REMARK    2  A    between atoms: N_7  and  C_9 
REMARK    3  A    between atoms: C_9  and  C_10 
REMARK    4  A    between atoms: C_21  and  C_22 
REMARK    5  A    between atoms: C_22  and  N_23 
ROOT
HETATM    1  C   UNL     1      29.009  52.391  38.114  1.00  0.00     0.159 C 
HETATM    2  N   UNL     1      29.243  51.715  39.379  1.00  0.00    -0.323 N 
HETATM    3  C   UNL     1      30.798  51.787  40.390  1.00  0.00     0.134 A 
HETATM    4  N   UNL     1      30.485  51.046  41.857  1.00  0.00    -0.134 NA
HETATM    5  N   UNL     1      28.610  50.544  41.753  1.00  0.00    -0.133 NA
HETATM    6  C   UNL     1      27.953  50.940  40.335  1.00  0.00     0.155 A 
ENDROOT
BRANCH   3   7
HETATM    7  C   UNL     1      31.784  52.683  40.033  1.00  0.00     0.060 C 
HETATM    8  C   UNL     1      30.612  53.428  40.795  1.00  0.00     0.040 C 
HETATM    9  C   UNL     1      29.317  52.180  41.360  1.00  0.00     0.236 C 
HETATM   10  N   UNL     1      29.833  50.211  40.349  1.00  0.00    -0.067 N 
HETATM   11  H   UNL     1      29.145  49.753  39.761  1.00  0.00     0.280 HD
HETATM   12  C   UNL     1      31.301  50.116  39.175  1.00  0.00     0.236 C 
HETATM   13  C   UNL     1      31.945  51.627  38.864  1.00  0.00     0.040 C 
BRANCH  10  14
HETATM   14  C   UNL     1      30.165  48.759  41.269  1.00  0.00     0.273 C 
BRANCH  14  15
HETATM   15  C   UNL     1      29.468  47.550  40.666  1.00  0.00    -0.030 A 
HETATM   16  C   UNL     1      28.207  47.110  41.092  1.00  0.00     0.051 A 
HETATM   17  C   UNL     1      27.609  45.998  40.502  1.00  0.00     0.117 A 
HETATM   18  F   UNL     1      26.387  45.635  40.906  1.00  0.00    -0.206 F 
HETATM   19  C   UNL     1      28.258  45.274  39.515  1.00  0.00     0.042 A 
HETATM   20  C   UNL     1      29.533  45.666  39.116  1.00  0.00     0.004 A 
HETATM   21  C   UNL     1      30.134  46.793  39.685  1.00  0.00     0.009 A 
ENDBRANCH  14  15
ENDBRANCH  10  14
ENDBRANCH   3   7
BRANCH   6  22
HETATM   22  C   UNL     1      26.578  50.613  39.824  1.00  0.00     0.315 C 
BRANCH  22  23
HETATM   23  N   UNL     1      26.333  49.238  39.183  1.00  0.00    -0.064 N 
HETATM   24  H   UNL     1      26.905  48.555  39.695  1.00  0.00     0.280 HD
HETATM   25  C   UNL     1      24.874  48.865  39.431  1.00  0.00     0.235 C 
HETATM   26  C   UNL     1      24.496  47.465  38.969  1.00  0.00     0.028 C 
HETATM   27  C   UNL     1      24.333  47.362  37.457  1.00  0.00     0.002 C 
HETATM   28  C   UNL     1      25.623  47.063  36.706  1.00  0.00     0.002 C 
HETATM   29  C   UNL     1      26.886  47.685  37.282  1.00  0.00     0.028 C 
HETATM   30  C   UNL     1      26.746  49.138  37.721  1.00  0.00     0.235 C 
ENDBRANCH  22  23
ENDBRANCH   6  22
TORSDOF 5
ENDMDL
MODEL 7
REMARK VINA RESULT:      -7.4      2.413      6.247
REMARK  5 active torsions:
REMARK  status: ('A' for Active; 'I' for Inactive)
REMARK    1  A    between atoms: C_3  and  C_4 
REMARK    2  A    between atoms: N_7  and  C_9 
REMARK    3  A    between atoms: C_9  and  C_10 
REMARK    4  A    between atoms: C_21  and  C_22 
REMARK    5  A    between atoms: C_22  and  N_23 
ROOT
HETATM    1  C   UNL     1      29.697  51.441  38.144  1.00  0.00     0.159 C 
HETATM    2  N   UNL     1      29.785  50.942  39.507  1.00  0.00    -0.323 N 
HETATM    3  C   UNL     1      29.248  51.840  41.040  1.00  0.00     0.134 A 
HETATM    4  N   UNL     1      29.331  50.762  42.316  1.00  0.00    -0.134 NA
HETATM    5  N   UNL     1      29.898  49.091  41.499  1.00  0.00    -0.133 NA
HETATM    6  C   UNL     1      30.143  49.244  39.913  1.00  0.00     0.155 A 
ENDROOT
BRANCH   3   7
HETATM    7  C   UNL     1      28.544  53.019  40.910  1.00  0.00     0.060 C 
HETATM    8  C   UNL     1      27.603  51.779  40.613  1.00  0.00     0.040 C 
HETATM    9  C   UNL     1      28.552  50.173  40.886  1.00  0.00     0.236 C 
HETATM   10  N   UNL     1      30.735  50.747  41.142  1.00  0.00    -0.067 N 
HETATM   11  H   UNL     1      31.435  50.352  40.523  1.00  0.00     0.280 HD
HETATM   12  C   UNL     1      31.251  52.554  41.015  1.00  0.00     0.236 C 
HETATM   13  C   UNL     1      29.989  53.524  40.506  1.00  0.00     0.040 C 
BRANCH  10  14
HETATM   14  C   UNL     1      31.636  50.341  42.587  1.00  0.00     0.273 C 
BRANCH  14  15
HETATM   15  C   UNL     1      33.122  50.602  42.406  1.00  0.00    -0.030 A 
HETATM   16  C   UNL     1      33.897  49.940  41.444  1.00  0.00     0.051 A 
HETATM   17  C   UNL     1      35.256  50.220  41.315  1.00  0.00     0.117 A 
HETATM   18  F   UNL     1      35.953  49.599  40.356  1.00  0.00    -0.206 F 
HETATM   19  C   UNL     1      35.885  51.123  42.158  1.00  0.00     0.042 A 
HETATM   20  C   UNL     1      35.142  51.751  43.153  1.00  0.00     0.004 A 
HETATM   21  C   UNL     1      33.772  51.494  43.277  1.00  0.00     0.009 A 
ENDBRANCH  14  15
ENDBRANCH  10  14
ENDBRANCH   3   7
BRANCH   6  22
HETATM   22  C   UNL     1      30.700  48.227  38.957  1.00  0.00     0.315 C 
BRANCH  22  23
HETATM   23  N   UNL     1      29.773  47.121  38.427  1.00  0.00    -0.064 N 
HETATM   24  H   UNL     1      30.107  46.865  37.489  1.00  0.00     0.280 HD
HETATM   25  C   UNL     1      29.963  45.894  39.314  1.00  0.00     0.235 C 
HETATM   26  C   UNL     1      29.208  44.658  38.846  1.00  0.00     0.028 C 
HETATM   27  C   UNL     1      27.715  44.725  39.147  1.00  0.00     0.002 C 
HETATM   28  C   UNL     1      26.888  45.413  38.070  1.00  0.00     0.002 C 
HETATM   29  C   UNL     1      27.561  46.578  37.359  1.00  0.00     0.028 C 
HETATM   30  C   UNL     1      28.317  47.539  38.270  1.00  0.00     0.235 C 
ENDBRANCH  22  23
ENDBRANCH   6  22
TORSDOF 5
ENDMDL
MODEL 8
REMARK VINA RESULT:      -7.4     12.345     14.792
REMARK  5 active torsions:
REMARK  status: ('A' for Active; 'I' for Inactive)
REMARK    1  A    between atoms: C_3  and  C_4 
REMARK    2  A    between atoms: N_7  and  C_9 
REMARK    3  A    between atoms: C_9  and  C_10 
REMARK    4  A    between atoms: C_21  and  C_22 
REMARK    5  A    between atoms: C_22  and  N_23 
ROOT
HETATM    1  C   UNL     1      24.826  44.034  53.211  1.00  0.00     0.159 C 
HETATM    2  N   UNL     1      25.704  44.034  52.053  1.00  0.00    -0.323 N 
HETATM    3  C   UNL     1      25.391  44.897  50.439  1.00  0.00     0.134 A 
HETATM    4  N   UNL     1      26.791  44.797  49.529  1.00  0.00    -0.134 NA
HETATM    5  N   UNL     1      28.049  43.865  50.682  1.00  0.00    -0.133 NA
HETATM    6  C   UNL     1      27.389  43.454  52.094  1.00  0.00     0.155 A 
ENDROOT
BRANCH   3   7
HETATM    7  C   UNL     1      24.324  45.765  50.344  1.00  0.00     0.060 C 
HETATM    8  C   UNL     1      25.516  46.445  51.134  1.00  0.00     0.040 C 
HETATM    9  C   UNL     1      27.002  45.286  51.175  1.00  0.00     0.236 C 
HETATM   10  N   UNL     1      26.276  43.275  50.407  1.00  0.00    -0.067 N 
HETATM   11  H   UNL     1      26.375  42.449  50.987  1.00  0.00     0.280 HD
HETATM   12  C   UNL     1      24.469  43.051  49.926  1.00  0.00     0.236 C 
HETATM   13  C   UNL     1      23.548  44.384  50.340  1.00  0.00     0.040 C 
BRANCH  10  14
HETATM   14  C   UNL     1      26.994  42.504  49.008  1.00  0.00     0.273 C 
BRANCH  14  15
HETATM   15  C   UNL     1      27.189  41.014  49.236  1.00  0.00    -0.030 A 
HETATM   16  C   UNL     1      28.255  40.495  49.984  1.00  0.00     0.051 A 
HETATM   17  C   UNL     1      28.386  39.119  50.167  1.00  0.00     0.117 A 
HETATM   18  F   UNL     1      29.392  38.664  50.924  1.00  0.00    -0.206 F 
HETATM   19  C   UNL     1      27.498  38.230  49.583  1.00  0.00     0.042 A 
HETATM   20  C   UNL     1      26.464  38.726  48.793  1.00  0.00     0.004 A 
HETATM   21  C   UNL     1      26.310  40.106  48.621  1.00  0.00     0.009 A 
ENDBRANCH  14  15
ENDBRANCH  10  14
ENDBRANCH   3   7
BRANCH   6  22
HETATM   22  C   UNL     1      27.989  42.623  53.193  1.00  0.00     0.315 C 
BRANCH  22  23
HETATM   23  N   UNL     1      28.549  43.331  54.437  1.00  0.00    -0.064 N 
HETATM   24  H   UNL     1      27.949  43.075  55.231  1.00  0.00     0.280 HD
HETATM   25  C   UNL     1      29.930  42.747  54.720  1.00  0.00     0.235 C 
HETATM   26  C   UNL     1      30.575  43.252  56.003  1.00  0.00     0.028 C 
HETATM   27  C   UNL     1      31.128  44.667  55.873  1.00  0.00     0.002 C 
HETATM   28  C   UNL     1      30.116  45.765  56.166  1.00  0.00     0.002 C 
HETATM   29  C   UNL     1      28.684  45.479  55.740  1.00  0.00     0.028 C 
HETATM   30  C   UNL     1      28.536  44.853  54.359  1.00  0.00     0.235 C 
ENDBRANCH  22  23
ENDBRANCH   6  22
TORSDOF 5
ENDMDL
MODEL 9
REMARK VINA RESULT:      -7.3     10.825     12.621
REMARK  5 active torsions:
REMARK  status: ('A' for Active; 'I' for Inactive)
REMARK    1  A    between atoms: C_3  and  C_4 
REMARK    2  A    between atoms: N_7  and  C_9 
REMARK    3  A    between atoms: C_9  and  C_10 
REMARK    4  A    between atoms: C_21  and  C_22 
REMARK    5  A    between atoms: C_22  and  N_23 
ROOT
HETATM    1  C   UNL     1      21.106  45.911  45.037  1.00  0.00     0.159 C 
HETATM    2  N   UNL     1      20.028  45.631  45.971  1.00  0.00    -0.323 N 
HETATM    3  C   UNL     1      18.287  45.163  45.528  1.00  0.00     0.134 A 
HETATM    4  N   UNL     1      17.507  44.715  46.938  1.00  0.00    -0.134 NA
HETATM    5  N   UNL     1      18.872  44.865  48.313  1.00  0.00    -0.133 NA
HETATM    6  C   UNL     1      20.278  45.387  47.719  1.00  0.00     0.155 A 
ENDROOT
BRANCH   3   7
HETATM    7  C   UNL     1      17.987  44.881  44.212  1.00  0.00     0.060 C 
HETATM    8  C   UNL     1      18.764  43.668  44.872  1.00  0.00     0.040 C 
HETATM    9  C   UNL     1      19.083  44.027  46.695  1.00  0.00     0.236 C 
HETATM   10  N   UNL     1      18.553  46.211  47.027  1.00  0.00    -0.067 N 
HETATM   11  H   UNL     1      19.250  46.847  47.399  1.00  0.00     0.280 HD
HETATM   12  C   UNL     1      17.970  47.266  45.580  1.00  0.00     0.236 C 
HETATM   13  C   UNL     1      18.119  46.457  44.124  1.00  0.00     0.040 C 
BRANCH  10  14
HETATM   14  C   UNL     1      17.337  46.702  48.187  1.00  0.00     0.273 C 
BRANCH  14  15
HETATM   15  C   UNL     1      17.713  48.010  48.863  1.00  0.00    -0.030 A 
HETATM   16  C   UNL     1      17.374  49.263  48.334  1.00  0.00     0.051 A 
HETATM   17  C   UNL     1      17.739  50.434  48.996  1.00  0.00     0.117 A 
HETATM   18  F   UNL     1      17.359  51.609  48.482  1.00  0.00    -0.206 F 
HETATM   19  C   UNL     1      18.480  50.394  50.167  1.00  0.00     0.042 A 
HETATM   20  C   UNL     1      18.870  49.160  50.679  1.00  0.00     0.004 A 
HETATM   21  C   UNL     1      18.491  47.978  50.034  1.00  0.00     0.009 A 
ENDBRANCH  14  15
ENDBRANCH  10  14
ENDBRANCH   3   7
BRANCH   6  22
HETATM   22  C   UNL     1      21.527  45.747  48.471  1.00  0.00     0.315 C 
BRANCH  22  23
HETATM   23  N   UNL     1      21.846  47.232  48.712  1.00  0.00    -0.064 N 
HETATM   24  H   UNL     1      21.328  47.524  49.551  1.00  0.00     0.280 HD
HETATM   25  C   UNL     1      23.330  47.338  49.050  1.00  0.00     0.235 C 
HETATM   26  C   UNL     1      23.786  48.735  49.444  1.00  0.00     0.028 C 
HETATM   27  C   UNL     1      23.924  49.674  48.251  1.00  0.00     0.002 C 
HETATM   28  C   UNL     1      22.641  50.399  47.872  1.00  0.00     0.002 C 
HETATM   29  C   UNL     1      21.352  49.611  48.060  1.00  0.00     0.028 C 
HETATM   30  C   UNL     1      21.409  48.163  47.588  1.00  0.00     0.235 C 
ENDBRANCH  22  23
ENDBRANCH   6  22
TORSDOF 5
ENDMDL
MODEL 10
REMARK VINA RESULT:      -7.3     26.238     28.404
REMARK  5 active torsions:
REMARK  status: ('A' for Active; 'I' for Inactive)
REMARK    1  A    between atoms: C_3  and  C_4 
REMARK    2  A    between atoms: N_7  and  C_9 
REMARK    3  A    between atoms: C_9  and  C_10 
REMARK    4  A    between atoms: C_21  and  C_22 
REMARK    5  A    between atoms: C_22  and  N_23 
ROOT
HETATM    1  C   UNL     1      39.194  43.473  66.296  1.00  0.00     0.159 C 
HETATM    2  N   UNL     1      38.240  44.286  65.561  1.00  0.00    -0.323 N 
HETATM    3  C   UNL     1      38.273  44.637  63.739  1.00  0.00     0.134 A 
HETATM    4  N   UNL     1      36.844  45.412  63.344  1.00  0.00    -0.134 NA
HETATM    5  N   UNL     1      35.858  45.486  65.018  1.00  0.00    -0.133 NA
HETATM    6  C   UNL     1      36.688  44.840  66.241  1.00  0.00     0.155 A 
ENDROOT
BRANCH   3   7
HETATM    7  C   UNL     1      39.166  43.949  62.944  1.00  0.00     0.060 C 
HETATM    8  C   UNL     1      37.923  43.032  63.297  1.00  0.00     0.040 C 
HETATM    9  C   UNL     1      36.667  44.013  64.303  1.00  0.00     0.236 C 
HETATM   10  N   UNL     1      37.685  45.959  64.889  1.00  0.00    -0.067 N 
HETATM   11  H   UNL     1      37.765  46.209  65.869  1.00  0.00     0.280 HD
HETATM   12  C   UNL     1      39.470  46.274  64.381  1.00  0.00     0.236 C 
HETATM   13  C   UNL     1      40.168  44.917  63.698  1.00  0.00     0.040 C 
BRANCH  10  14
HETATM   14  C   UNL     1      37.028  47.518  64.439  1.00  0.00     0.273 C 
BRANCH  14  15
HETATM   15  C   UNL     1      37.336  48.572  65.490  1.00  0.00    -0.030 A 
HETATM   16  C   UNL     1      38.268  49.599  65.284  1.00  0.00     0.051 A 
HETATM   17  C   UNL     1      38.510  50.545  66.278  1.00  0.00     0.117 A 
HETATM   18  F   UNL     1      39.374  51.535  66.028  1.00  0.00    -0.206 F 
HETATM   19  C   UNL     1      37.873  50.473  67.507  1.00  0.00     0.042 A 
HETATM   20  C   UNL     1      36.983  49.429  67.748  1.00  0.00     0.004 A 
HETATM   21  C   UNL     1      36.716  48.487  66.749  1.00  0.00     0.009 A 
ENDBRANCH  14  15
ENDBRANCH  10  14
ENDBRANCH   3   7
BRANCH   6  22
HETATM   22  C   UNL     1      36.327  44.819  67.699  1.00  0.00     0.315 C 
BRANCH  22  23
HETATM   23  N   UNL     1      34.879  44.496  68.100  1.00  0.00    -0.064 N 
HETATM   24  H   UNL     1      34.287  45.258  67.747  1.00  0.00     0.280 HD
HETATM   25  C   UNL     1      34.463  43.232  67.354  1.00  0.00     0.235 C 
HETATM   26  C   UNL     1      33.003  42.843  67.542  1.00  0.00     0.028 C 
HETATM   27  C   UNL     1      32.726  42.212  68.901  1.00  0.00     0.002 C 
HETATM   28  C   UNL     1      32.411  43.211  70.005  1.00  0.00     0.002 C 
HETATM   29  C   UNL     1      33.156  44.536  69.933  1.00  0.00     0.028 C 
HETATM   30  C   UNL     1      34.640  44.423  69.603  1.00  0.00     0.235 C 
ENDBRANCH  22  23
ENDBRANCH   6  22
TORSDOF 5
ENDMDL
