MODEL 1
REMARK VINA RESULT:     -10.5      0.000      0.000
REMARK  5 active torsions:
REMARK  status: ('A' for Active; 'I' for Inactive)
REMARK    1  A    between atoms: N_4  and  C_5 
REMARK    2  A    between atoms: C_15  and  N_16 
REMARK       I    between atoms: N_16  and  C_17 
REMARK    3  A    between atoms: C_17  and  C_18 
REMARK    4  A    between atoms: C_20  and  C_21 
REMARK    5  A    between atoms: C_26  and  C_27 
ROOT
HETATM    1  N   UNL     1      28.328  41.760  52.805  1.00  0.00    -0.307 N 
HETATM    2  C   UNL     1      29.125  42.892  52.728  1.00  0.00     0.257 C 
HETATM    3  O   UNL     1      29.702  43.291  51.721  1.00  0.00    -0.267 OA
HETATM    4  H   UNL     1      27.685  41.650  53.577  1.00  0.00     0.170 HD
ENDROOT
BRANCH   1   5
HETATM    5  C   UNL     1      28.129  40.957  51.691  1.00  0.00     0.152 C 
HETATM    6  N   UNL     1      27.094  41.047  50.762  1.00  0.00    -0.045 N 
HETATM    7  N   UNL     1      27.032  39.907  49.991  1.00  0.00    -0.156 NA
HETATM    8  C   UNL     1      28.186  39.280  50.243  1.00  0.00     0.055 C 
HETATM    9  C   UNL     1      28.536  38.035  49.514  1.00  0.00     0.072 C 
HETATM   10  C   UNL     1      28.924  39.919  51.263  1.00  0.00     0.079 C 
BRANCH   6  11
HETATM   11  C   UNL     1      26.297  42.150  50.382  1.00  0.00     0.732 A 
HETATM   12  N   UNL     1      24.996  42.173  50.435  1.00  0.00    -0.067 NA
HETATM   13  C   UNL     1      24.441  43.365  50.062  1.00  0.00     0.065 A 
HETATM   14  C   UNL     1      25.105  44.457  49.681  1.00  0.00     0.036 A 
HETATM   15  C   UNL     1      22.970  43.606  50.078  1.00  0.00     0.061 C 
HETATM   16  C   UNL     1      24.231  45.609  49.371  1.00  0.00     0.047 C 
HETATM   17  C   UNL     1      26.565  44.426  49.650  1.00  0.00     0.268 A 
HETATM   18  C   UNL     1      22.841  44.959  49.362  1.00  0.00     0.011 C 
HETATM   19  O   UNL     1      27.239  45.399  49.341  1.00  0.00    -0.267 OA
HETATM   20  N   UNL     1      27.088  43.219  50.018  1.00  0.00    -0.152 N 
HETATM   21  H   UNL     1      28.096  43.113  50.061  1.00  0.00     0.188 HD
ENDBRANCH   6  11
ENDBRANCH   1   5
BRANCH   2  22
HETATM   22  C   UNL     1      29.223  43.712  53.967  1.00  0.00     0.034 A 
HETATM   23  C   UNL     1      30.160  43.328  54.936  1.00  0.00     0.033 A 
HETATM   24  C   UNL     1      30.328  44.078  56.110  1.00  0.00     0.049 A 
HETATM   25  C   UNL     1      29.545  45.229  56.296  1.00  0.00     0.032 A 
HETATM   26  C   UNL     1      28.607  45.635  55.331  1.00  0.00     0.049 A 
HETATM   27  C   UNL     1      28.461  44.871  54.160  1.00  0.00     0.033 A 
BRANCH  24  28
HETATM   28  C   UNL     1      31.342  43.676  57.156  1.00  0.00     0.417 C 
HETATM   29  F   UNL     1      32.632  43.755  56.729  1.00  0.00    -0.166 F 
HETATM   30  F   UNL     1      31.264  44.452  58.271  1.00  0.00    -0.166 F 
HETATM   31  F   UNL     1      31.164  42.394  57.577  1.00  0.00    -0.166 F 
ENDBRANCH  24  28
BRANCH  26  32
HETATM   32  C   UNL     1      27.794  46.897  55.515  1.00  0.00     0.417 C 
HETATM   33  F   UNL     1      26.511  46.783  55.080  1.00  0.00    -0.166 F 
HETATM   34  F   UNL     1      27.725  47.278  56.818  1.00  0.00    -0.166 F 
HETATM   35  F   UNL     1      28.328  47.955  54.842  1.00  0.00    -0.166 F 
ENDBRANCH  26  32
ENDBRANCH   2  22
TORSDOF 5
ENDMDL
MODEL 2
REMARK VINA RESULT:     -10.3      1.327      3.552
REMARK  5 active torsions:
REMARK  status: ('A' for Active; 'I' for Inactive)
REMARK    1  A    between atoms: N_4  and  C_5 
REMARK    2  A    between atoms: C_15  and  N_16 
REMARK       I    between atoms: N_16  and  C_17 
REMARK    3  A    between atoms: C_17  and  C_18 
REMARK    4  A    between atoms: C_20  and  C_21 
REMARK    5  A    between atoms: C_26  and  C_27 
ROOT
HETATM    1  N   UNL     1      27.491  42.328  52.740  1.00  0.00    -0.307 N 
HETATM    2  C   UNL     1      28.715  42.979  52.731  1.00  0.00     0.257 C 
HETATM    3  O   UNL     1      29.514  42.982  51.800  1.00  0.00    -0.267 OA
HETATM    4  H   UNL     1      26.788  42.589  53.417  1.00  0.00     0.170 HD
ENDROOT
BRANCH   1   5
HETATM    5  C   UNL     1      27.074  41.588  51.643  1.00  0.00     0.152 C 
HETATM    6  N   UNL     1      26.010  41.874  50.789  1.00  0.00    -0.045 N 
HETATM    7  N   UNL     1      25.691  40.773  50.023  1.00  0.00    -0.156 NA
HETATM    8  C   UNL     1      26.729  39.947  50.193  1.00  0.00     0.055 C 
HETATM    9  C   UNL     1      26.799  38.670  49.440  1.00  0.00     0.072 C 
HETATM   10  C   UNL     1      27.639  40.430  51.158  1.00  0.00     0.079 C 
BRANCH   6  11
HETATM   11  C   UNL     1      25.398  43.106  50.468  1.00  0.00     0.732 A 
HETATM   12  N   UNL     1      26.019  44.249  50.425  1.00  0.00    -0.067 NA
HETATM   13  C   UNL     1      25.233  45.300  50.043  1.00  0.00     0.065 A 
HETATM   14  C   UNL     1      23.943  45.238  49.714  1.00  0.00     0.036 A 
HETATM   15  C   UNL     1      25.759  46.689  49.906  1.00  0.00     0.061 C 
HETATM   16  C   UNL     1      23.368  46.539  49.307  1.00  0.00     0.047 C 
HETATM   17  C   UNL     1      23.264  43.945  49.742  1.00  0.00     0.268 A 
HETATM   18  C   UNL     1      24.481  47.516  49.706  1.00  0.00     0.011 C 
HETATM   19  O   UNL     1      22.090  43.810  49.422  1.00  0.00    -0.267 OA
HETATM   20  N   UNL     1      24.072  42.918  50.137  1.00  0.00    -0.152 N 
HETATM   21  H   UNL     1      23.697  41.976  50.152  1.00  0.00     0.188 HD
ENDBRANCH   6  11
ENDBRANCH   1   5
BRANCH   2  22
HETATM   22  C   UNL     1      29.036  43.791  53.937  1.00  0.00     0.034 A 
HETATM   23  C   UNL     1      28.300  44.964  54.153  1.00  0.00     0.033 A 
HETATM   24  C   UNL     1      28.528  45.756  55.289  1.00  0.00     0.049 A 
HETATM   25  C   UNL     1      29.503  45.349  56.214  1.00  0.00     0.032 A 
HETATM   26  C   UNL     1      30.244  44.171  56.019  1.00  0.00     0.049 A 
HETATM   27  C   UNL     1      29.995  43.390  54.876  1.00  0.00     0.033 A 
BRANCH  24  28
HETATM   28  C   UNL     1      27.732  47.017  55.535  1.00  0.00     0.417 C 
HETATM   29  F   UNL     1      27.649  47.367  56.847  1.00  0.00    -0.166 F 
HETATM   30  F   UNL     1      28.261  48.092  54.889  1.00  0.00    -0.166 F 
HETATM   31  F   UNL     1      26.449  46.909  55.094  1.00  0.00    -0.166 F 
ENDBRANCH  24  28
BRANCH  26  32
HETATM   32  C   UNL     1      31.266  43.713  57.036  1.00  0.00     0.417 C 
HETATM   33  F   UNL     1      32.546  43.765  56.580  1.00  0.00    -0.166 F 
HETATM   34  F   UNL     1      31.233  44.462  58.170  1.00  0.00    -0.166 F 
HETATM   35  F   UNL     1      31.057  42.426  57.430  1.00  0.00    -0.166 F 
ENDBRANCH  26  32
ENDBRANCH   2  22
TORSDOF 5
ENDMDL
MODEL 3
REMARK VINA RESULT:     -10.0      2.594      4.892
REMARK  5 active torsions:
REMARK  status: ('A' for Active; 'I' for Inactive)
REMARK    1  A    between atoms: N_4  and  C_5 
REMARK    2  A    between atoms: C_15  and  N_16 
REMARK       I    between atoms: N_16  and  C_17 
REMARK    3  A    between atoms: C_17  and  C_18 
REMARK    4  A    between atoms: C_20  and  C_21 
REMARK    5  A    between atoms: C_26  and  C_27 
ROOT
HETATM    1  N   UNL     1      25.561  44.176  51.997  1.00  0.00    -0.307 N 
HETATM    2  C   UNL     1      26.940  44.036  51.938  1.00  0.00     0.257 C 
HETATM    3  O   UNL     1      27.574  43.619  50.975  1.00  0.00    -0.267 OA
HETATM    4  H   UNL     1      25.146  44.766  52.705  1.00  0.00     0.170 HD
ENDROOT
BRANCH   1   5
HETATM    5  C   UNL     1      24.767  43.823  50.916  1.00  0.00     0.152 C 
HETATM    6  N   UNL     1      24.087  44.682  50.055  1.00  0.00    -0.045 N 
HETATM    7  N   UNL     1      23.154  43.990  49.313  1.00  0.00    -0.156 NA
HETATM    8  C   UNL     1      23.476  42.705  49.502  1.00  0.00     0.055 C 
HETATM    9  C   UNL     1      22.744  41.636  48.779  1.00  0.00     0.072 C 
HETATM   10  C   UNL     1      24.504  42.552  50.458  1.00  0.00     0.079 C 
BRANCH   6  11
HETATM   11  C   UNL     1      24.348  46.026  49.706  1.00  0.00     0.732 A 
HETATM   12  N   UNL     1      25.537  46.550  49.624  1.00  0.00    -0.067 NA
HETATM   13  C   UNL     1      25.548  47.855  49.221  1.00  0.00     0.065 A 
HETATM   14  C   UNL     1      24.482  48.591  48.907  1.00  0.00     0.036 A 
HETATM   15  C   UNL     1      26.810  48.629  49.039  1.00  0.00     0.061 C 
HETATM   16  C   UNL     1      24.811  49.965  48.470  1.00  0.00     0.047 C 
HETATM   17  C   UNL     1      23.155  47.984  48.979  1.00  0.00     0.268 A 
HETATM   18  C   UNL     1      26.300  50.063  48.829  1.00  0.00     0.011 C 
HETATM   19  O   UNL     1      22.136  48.590  48.675  1.00  0.00    -0.267 OA
HETATM   20  N   UNL     1      23.176  46.684  49.394  1.00  0.00    -0.152 N 
HETATM   21  H   UNL     1      22.304  46.168  49.440  1.00  0.00     0.188 HD
ENDBRANCH   6  11
ENDBRANCH   1   5
BRANCH   2  22
HETATM   22  C   UNL     1      27.699  44.500  53.133  1.00  0.00     0.034 A 
HETATM   23  C   UNL     1      27.245  45.650  53.793  1.00  0.00     0.033 A 
HETATM   24  C   UNL     1      27.894  46.120  54.945  1.00  0.00     0.049 A 
HETATM   25  C   UNL     1      29.004  45.411  55.434  1.00  0.00     0.032 A 
HETATM   26  C   UNL     1      29.467  44.251  54.791  1.00  0.00     0.049 A 
HETATM   27  C   UNL     1      28.798  43.795  53.641  1.00  0.00     0.033 A 
BRANCH  24  28
HETATM   28  C   UNL     1      27.406  47.354  55.668  1.00  0.00     0.417 C 
HETATM   29  F   UNL     1      27.933  48.514  55.193  1.00  0.00    -0.166 F 
HETATM   30  F   UNL     1      26.054  47.493  55.592  1.00  0.00    -0.166 F 
HETATM   31  F   UNL     1      27.705  47.322  56.996  1.00  0.00    -0.166 F 
ENDBRANCH  24  28
BRANCH  26  32
HETATM   32  C   UNL     1      30.637  43.467  55.342  1.00  0.00     0.417 C 
HETATM   33  F   UNL     1      31.628  44.252  55.843  1.00  0.00    -0.166 F 
HETATM   34  F   UNL     1      30.267  42.630  56.348  1.00  0.00    -0.166 F 
HETATM   35  F   UNL     1      31.220  42.680  54.395  1.00  0.00    -0.166 F 
ENDBRANCH  26  32
ENDBRANCH   2  22
TORSDOF 5
ENDMDL
MODEL 4
REMARK VINA RESULT:     -10.0      2.612      4.058
REMARK  5 active torsions:
REMARK  status: ('A' for Active; 'I' for Inactive)
REMARK    1  A    between atoms: N_4  and  C_5 
REMARK    2  A    between atoms: C_15  and  N_16 
REMARK       I    between atoms: N_16  and  C_17 
REMARK    3  A    between atoms: C_17  and  C_18 
REMARK    4  A    between atoms: C_20  and  C_21 
REMARK    5  A    between atoms: C_26  and  C_27 
ROOT
HETATM    1  N   UNL     1      25.316  44.057  51.862  1.00  0.00    -0.307 N 
HETATM    2  C   UNL     1      26.701  44.075  51.796  1.00  0.00     0.257 C 
HETATM    3  O   UNL     1      27.372  43.791  50.810  1.00  0.00    -0.267 OA
HETATM    4  H   UNL     1      24.842  44.553  52.604  1.00  0.00     0.170 HD
ENDROOT
BRANCH   1   5
HETATM    5  C   UNL     1      24.559  43.686  50.761  1.00  0.00     0.152 C 
HETATM    6  N   UNL     1      23.836  44.524  49.914  1.00  0.00    -0.045 N 
HETATM    7  N   UNL     1      22.959  43.794  49.140  1.00  0.00    -0.156 NA
HETATM    8  C   UNL     1      23.361  42.528  49.298  1.00  0.00     0.055 C 
HETATM    9  C   UNL     1      22.708  41.436  48.534  1.00  0.00     0.072 C 
HETATM   10  C   UNL     1      24.384  42.414  50.264  1.00  0.00     0.079 C 
BRANCH   6  11
HETATM   11  C   UNL     1      24.015  45.891  49.605  1.00  0.00     0.732 A 
HETATM   12  N   UNL     1      25.168  46.495  49.569  1.00  0.00    -0.067 NA
HETATM   13  C   UNL     1      25.101  47.808  49.200  1.00  0.00     0.065 A 
HETATM   14  C   UNL     1      23.996  48.479  48.876  1.00  0.00     0.036 A 
HETATM   15  C   UNL     1      26.312  48.669  49.071  1.00  0.00     0.061 C 
HETATM   16  C   UNL     1      24.243  49.883  48.482  1.00  0.00     0.047 C 
HETATM   17  C   UNL     1      22.711  47.784  48.897  1.00  0.00     0.268 A 
HETATM   18  C   UNL     1      25.712  50.071  48.884  1.00  0.00     0.011 C 
HETATM   19  O   UNL     1      21.662  48.329  48.581  1.00  0.00    -0.267 OA
HETATM   20  N   UNL     1      22.810  46.477  49.279  1.00  0.00    -0.152 N 
HETATM   21  H   UNL     1      21.973  45.903  49.289  1.00  0.00     0.188 HD
ENDBRANCH   6  11
ENDBRANCH   1   5
BRANCH   2  22
HETATM   22  C   UNL     1      27.410  44.546  53.019  1.00  0.00     0.034 A 
HETATM   23  C   UNL     1      28.523  43.813  53.454  1.00  0.00     0.033 A 
HETATM   24  C   UNL     1      29.258  44.222  54.576  1.00  0.00     0.049 A 
HETATM   25  C   UNL     1      28.864  45.387  55.256  1.00  0.00     0.032 A 
HETATM   26  C   UNL     1      27.757  46.140  54.829  1.00  0.00     0.049 A 
HETATM   27  C   UNL     1      27.039  45.714  53.697  1.00  0.00     0.033 A 
BRANCH  24  28
HETATM   28  C   UNL     1      30.465  43.444  55.047  1.00  0.00     0.417 C 
HETATM   29  F   UNL     1      31.054  42.701  54.072  1.00  0.00    -0.166 F 
HETATM   30  F   UNL     1      31.437  44.256  55.544  1.00  0.00    -0.166 F 
HETATM   31  F   UNL     1      30.156  42.574  56.047  1.00  0.00    -0.166 F 
ENDBRANCH  24  28
BRANCH  26  32
HETATM   32  C   UNL     1      27.359  47.415  55.537  1.00  0.00     0.417 C 
HETATM   33  F   UNL     1      27.956  48.526  55.030  1.00  0.00    -0.166 F 
HETATM   34  F   UNL     1      26.020  47.639  55.476  1.00  0.00    -0.166 F 
HETATM   35  F   UNL     1      27.675  47.388  56.862  1.00  0.00    -0.166 F 
ENDBRANCH  26  32
ENDBRANCH   2  22
TORSDOF 5
ENDMDL
MODEL 5
REMARK VINA RESULT:     -10.0      2.578      3.979
REMARK  5 active torsions:
REMARK  status: ('A' for Active; 'I' for Inactive)
REMARK    1  A    between atoms: N_4  and  C_5 
REMARK    2  A    between atoms: C_15  and  N_16 
REMARK       I    between atoms: N_16  and  C_17 
REMARK    3  A    between atoms: C_17  and  C_18 
REMARK    4  A    between atoms: C_20  and  C_21 
REMARK    5  A    between atoms: C_26  and  C_27 
ROOT
HETATM    1  N   UNL     1      25.209  44.163  51.623  1.00  0.00    -0.307 N 
HETATM    2  C   UNL     1      26.574  43.921  51.669  1.00  0.00     0.257 C 
HETATM    3  O   UNL     1      27.230  43.364  50.795  1.00  0.00    -0.267 OA
HETATM    4  H   UNL     1      24.799  44.849  52.241  1.00  0.00     0.170 HD
ENDROOT
BRANCH   1   5
HETATM    5  C   UNL     1      24.455  43.757  50.532  1.00  0.00     0.152 C 
HETATM    6  N   UNL     1      23.678  44.561  49.700  1.00  0.00    -0.045 N 
HETATM    7  N   UNL     1      22.827  43.791  48.937  1.00  0.00    -0.156 NA
HETATM    8  C   UNL     1      23.292  42.546  49.084  1.00  0.00     0.055 C 
HETATM    9  C   UNL     1      22.682  41.425  48.327  1.00  0.00     0.072 C 
HETATM   10  C   UNL     1      24.334  42.480  50.034  1.00  0.00     0.079 C 
BRANCH   6  11
HETATM   11  C   UNL     1      23.785  45.936  49.393  1.00  0.00     0.732 A 
HETATM   12  N   UNL     1      22.867  46.631  48.787  1.00  0.00    -0.067 NA
HETATM   13  C   UNL     1      23.170  47.954  48.640  1.00  0.00     0.065 A 
HETATM   14  C   UNL     1      24.279  48.559  49.066  1.00  0.00     0.036 A 
HETATM   15  C   UNL     1      22.240  48.926  47.995  1.00  0.00     0.061 C 
HETATM   16  C   UNL     1      24.309  50.013  48.794  1.00  0.00     0.047 C 
HETATM   17  C   UNL     1      25.291  47.774  49.768  1.00  0.00     0.268 A 
HETATM   18  C   UNL     1      23.110  50.184  47.853  1.00  0.00     0.011 C 
HETATM   19  O   UNL     1      26.318  48.269  50.214  1.00  0.00    -0.267 OA
HETATM   20  N   UNL     1      24.964  46.454  49.889  1.00  0.00    -0.152 N 
HETATM   21  H   UNL     1      25.590  45.836  50.394  1.00  0.00     0.188 HD
ENDBRANCH   6  11
ENDBRANCH   1   5
BRANCH   2  22
HETATM   22  C   UNL     1      27.295  44.451  52.860  1.00  0.00     0.034 A 
HETATM   23  C   UNL     1      28.409  43.737  53.323  1.00  0.00     0.033 A 
HETATM   24  C   UNL     1      29.154  44.201  54.418  1.00  0.00     0.049 A 
HETATM   25  C   UNL     1      28.769  45.400  55.041  1.00  0.00     0.032 A 
HETATM   26  C   UNL     1      27.661  46.133  54.585  1.00  0.00     0.049 A 
HETATM   27  C   UNL     1      26.933  45.653  53.482  1.00  0.00     0.033 A 
BRANCH  24  28
HETATM   28  C   UNL     1      30.362  43.443  54.918  1.00  0.00     0.417 C 
HETATM   29  F   UNL     1      30.075  42.522  55.878  1.00  0.00    -0.166 F 
HETATM   30  F   UNL     1      30.993  42.766  53.920  1.00  0.00    -0.166 F 
HETATM   31  F   UNL     1      31.298  44.270  55.459  1.00  0.00    -0.166 F 
ENDBRANCH  24  28
BRANCH  26  32
HETATM   32  C   UNL     1      27.272  47.444  55.231  1.00  0.00     0.417 C 
HETATM   33  F   UNL     1      28.021  48.498  54.811  1.00  0.00    -0.166 F 
HETATM   34  F   UNL     1      25.976  47.773  54.985  1.00  0.00    -0.166 F 
HETATM   35  F   UNL     1      27.399  47.407  56.587  1.00  0.00    -0.166 F 
ENDBRANCH  26  32
ENDBRANCH   2  22
TORSDOF 5
ENDMDL
MODEL 6
REMARK VINA RESULT:      -9.9      3.569      5.213
REMARK  5 active torsions:
REMARK  status: ('A' for Active; 'I' for Inactive)
REMARK    1  A    between atoms: N_4  and  C_5 
REMARK    2  A    between atoms: C_15  and  N_16 
REMARK       I    between atoms: N_16  and  C_17 
REMARK    3  A    between atoms: C_17  and  C_18 
REMARK    4  A    between atoms: C_20  and  C_21 
REMARK    5  A    between atoms: C_26  and  C_27 
ROOT
HETATM    1  N   UNL     1      25.098  44.821  50.324  1.00  0.00    -0.307 N 
HETATM    2  C   UNL     1      25.065  44.171  51.548  1.00  0.00     0.257 C 
HETATM    3  O   UNL     1      24.289  43.273  51.858  1.00  0.00    -0.267 OA
HETATM    4  H   UNL     1      25.919  45.346  50.056  1.00  0.00     0.170 HD
ENDROOT
BRANCH   1   5
HETATM    5  C   UNL     1      24.200  44.488  49.321  1.00  0.00     0.152 C 
HETATM    6  N   UNL     1      23.123  45.248  48.867  1.00  0.00    -0.045 N 
HETATM    7  N   UNL     1      22.272  44.479  48.103  1.00  0.00    -0.156 NA
HETATM    8  C   UNL     1      22.974  43.369  47.851  1.00  0.00     0.055 C 
HETATM    9  C   UNL     1      22.418  42.319  46.962  1.00  0.00     0.072 C 
HETATM   10  C   UNL     1      24.200  43.347  48.551  1.00  0.00     0.079 C 
BRANCH   6  11
HETATM   11  C   UNL     1      22.910  46.644  48.897  1.00  0.00     0.732 A 
HETATM   12  N   UNL     1      23.851  47.537  48.791  1.00  0.00    -0.067 NA
HETATM   13  C   UNL     1      23.403  48.828  48.799  1.00  0.00     0.065 A 
HETATM   14  C   UNL     1      22.131  49.219  48.887  1.00  0.00     0.036 A 
HETATM   15  C   UNL     1      24.318  49.997  48.662  1.00  0.00     0.061 C 
HETATM   16  C   UNL     1      21.952  50.686  48.834  1.00  0.00     0.047 C 
HETATM   17  C   UNL     1      21.082  48.206  48.981  1.00  0.00     0.268 A 
HETATM   18  C   UNL     1      23.396  51.186  48.970  1.00  0.00     0.011 C 
HETATM   19  O   UNL     1      19.894  48.492  49.033  1.00  0.00    -0.267 OA
HETATM   20  N   UNL     1      21.563  46.928  48.981  1.00  0.00    -0.152 N 
HETATM   21  H   UNL     1      20.906  46.156  49.006  1.00  0.00     0.188 HD
ENDBRANCH   6  11
ENDBRANCH   1   5
BRANCH   2  22
HETATM   22  C   UNL     1      26.111  44.568  52.531  1.00  0.00     0.034 A 
HETATM   23  C   UNL     1      27.182  43.689  52.739  1.00  0.00     0.033 A 
HETATM   24  C   UNL     1      28.220  44.018  53.625  1.00  0.00     0.049 A 
HETATM   25  C   UNL     1      28.172  45.251  54.297  1.00  0.00     0.032 A 
HETATM   26  C   UNL     1      27.110  46.149  54.094  1.00  0.00     0.049 A 
HETATM   27  C   UNL     1      26.085  45.800  53.197  1.00  0.00     0.033 A 
BRANCH  24  28
HETATM   28  C   UNL     1      29.384  43.081  53.848  1.00  0.00     0.417 C 
HETATM   29  F   UNL     1      29.027  41.770  53.928  1.00  0.00    -0.166 F 
HETATM   30  F   UNL     1      30.307  43.161  52.851  1.00  0.00    -0.166 F 
HETATM   31  F   UNL     1      30.052  43.358  55.001  1.00  0.00    -0.166 F 
ENDBRANCH  24  28
BRANCH  26  32
HETATM   32  C   UNL     1      27.080  47.492  54.787  1.00  0.00     0.417 C 
HETATM   33  F   UNL     1      27.104  47.404  56.143  1.00  0.00    -0.166 F 
HETATM   34  F   UNL     1      28.135  48.274  54.436  1.00  0.00    -0.166 F 
HETATM   35  F   UNL     1      25.963  48.207  54.474  1.00  0.00    -0.166 F 
ENDBRANCH  26  32
ENDBRANCH   2  22
TORSDOF 5
ENDMDL
MODEL 7
REMARK VINA RESULT:      -9.9      1.909      4.519
REMARK  5 active torsions:
REMARK  status: ('A' for Active; 'I' for Inactive)
REMARK    1  A    between atoms: N_4  and  C_5 
REMARK    2  A    between atoms: C_15  and  N_16 
REMARK       I    between atoms: N_16  and  C_17 
REMARK    3  A    between atoms: C_17  and  C_18 
REMARK    4  A    between atoms: C_20  and  C_21 
REMARK    5  A    between atoms: C_26  and  C_27 
ROOT
HETATM    1  N   UNL     1      25.934  42.966  51.622  1.00  0.00    -0.307 N 
HETATM    2  C   UNL     1      26.905  43.948  51.499  1.00  0.00     0.257 C 
HETATM    3  O   UNL     1      27.239  44.494  50.452  1.00  0.00    -0.267 OA
HETATM    4  H   UNL     1      25.534  42.765  52.528  1.00  0.00     0.170 HD
ENDROOT
BRANCH   1   5
HETATM    5  C   UNL     1      25.250  42.503  50.508  1.00  0.00     0.152 C 
HETATM    6  N   UNL     1      25.758  41.718  49.474  1.00  0.00    -0.045 N 
HETATM    7  N   UNL     1      24.901  41.722  48.394  1.00  0.00    -0.156 NA
HETATM    8  C   UNL     1      23.769  42.245  48.878  1.00  0.00     0.055 C 
HETATM    9  C   UNL     1      22.559  42.330  48.023  1.00  0.00     0.072 C 
HETATM   10  C   UNL     1      23.923  42.705  50.204  1.00  0.00     0.079 C 
BRANCH   6  11
HETATM   11  C   UNL     1      26.841  40.811  49.459  1.00  0.00     0.732 A 
HETATM   12  N   UNL     1      27.491  40.419  50.517  1.00  0.00    -0.067 NA
HETATM   13  C   UNL     1      28.470  39.501  50.265  1.00  0.00     0.065 A 
HETATM   14  C   UNL     1      28.783  38.990  49.074  1.00  0.00     0.036 A 
HETATM   15  C   UNL     1      29.311  38.906  51.344  1.00  0.00     0.061 C 
HETATM   16  C   UNL     1      29.868  37.986  49.120  1.00  0.00     0.047 C 
HETATM   17  C   UNL     1      28.030  39.419  47.898  1.00  0.00     0.268 A 
HETATM   18  C   UNL     1      30.389  38.149  50.554  1.00  0.00     0.011 C 
HETATM   19  O   UNL     1      28.242  38.970  46.779  1.00  0.00    -0.267 OA
HETATM   20  N   UNL     1      27.066  40.344  48.180  1.00  0.00    -0.152 N 
HETATM   21  H   UNL     1      26.467  40.675  47.431  1.00  0.00     0.188 HD
ENDBRANCH   6  11
ENDBRANCH   1   5
BRANCH   2  22
HETATM   22  C   UNL     1      27.535  44.412  52.766  1.00  0.00     0.034 A 
HETATM   23  C   UNL     1      28.628  43.687  53.259  1.00  0.00     0.033 A 
HETATM   24  C   UNL     1      29.290  44.092  54.428  1.00  0.00     0.049 A 
HETATM   25  C   UNL     1      28.842  45.244  55.096  1.00  0.00     0.032 A 
HETATM   26  C   UNL     1      27.753  45.988  54.612  1.00  0.00     0.049 A 
HETATM   27  C   UNL     1      27.110  45.568  53.434  1.00  0.00     0.033 A 
BRANCH  24  28
HETATM   28  C   UNL     1      30.476  43.322  54.961  1.00  0.00     0.417 C 
HETATM   29  F   UNL     1      30.162  42.449  55.957  1.00  0.00    -0.166 F 
HETATM   30  F   UNL     1      31.088  42.587  53.994  1.00  0.00    -0.166 F 
HETATM   31  F   UNL     1      31.434  44.143  55.471  1.00  0.00    -0.166 F 
ENDBRANCH  24  28
BRANCH  26  32
HETATM   32  C   UNL     1      27.298  47.251  55.309  1.00  0.00     0.417 C 
HETATM   33  F   UNL     1      25.972  47.507  55.156  1.00  0.00    -0.166 F 
HETATM   34  F   UNL     1      27.528  47.209  56.648  1.00  0.00    -0.166 F 
HETATM   35  F   UNL     1      27.951  48.355  54.851  1.00  0.00    -0.166 F 
ENDBRANCH  26  32
ENDBRANCH   2  22
TORSDOF 5
ENDMDL
MODEL 8
REMARK VINA RESULT:      -9.8      3.535      5.828
REMARK  5 active torsions:
REMARK  status: ('A' for Active; 'I' for Inactive)
REMARK    1  A    between atoms: N_4  and  C_5 
REMARK    2  A    between atoms: C_15  and  N_16 
REMARK       I    between atoms: N_16  and  C_17 
REMARK    3  A    between atoms: C_17  and  C_18 
REMARK    4  A    between atoms: C_20  and  C_21 
REMARK    5  A    between atoms: C_26  and  C_27 
ROOT
HETATM    1  N   UNL     1      25.164  44.762  50.229  1.00  0.00    -0.307 N 
HETATM    2  C   UNL     1      25.105  44.227  51.507  1.00  0.00     0.257 C 
HETATM    3  O   UNL     1      24.264  43.427  51.907  1.00  0.00    -0.267 OA
HETATM    4  H   UNL     1      26.020  45.191  49.904  1.00  0.00     0.170 HD
ENDROOT
BRANCH   1   5
HETATM    5  C   UNL     1      24.221  44.418  49.273  1.00  0.00     0.152 C 
HETATM    6  N   UNL     1      23.121  45.171  48.866  1.00  0.00    -0.045 N 
HETATM    7  N   UNL     1      22.237  44.394  48.150  1.00  0.00    -0.156 NA
HETATM    8  C   UNL     1      22.929  43.284  47.872  1.00  0.00     0.055 C 
HETATM    9  C   UNL     1      22.336  42.226  47.018  1.00  0.00     0.072 C 
HETATM   10  C   UNL     1      24.188  43.272  48.512  1.00  0.00     0.079 C 
BRANCH   6  11
HETATM   11  C   UNL     1      22.904  46.567  48.897  1.00  0.00     0.732 A 
HETATM   12  N   UNL     1      23.842  47.463  48.793  1.00  0.00    -0.067 NA
HETATM   13  C   UNL     1      23.391  48.752  48.801  1.00  0.00     0.065 A 
HETATM   14  C   UNL     1      22.118  49.139  48.888  1.00  0.00     0.036 A 
HETATM   15  C   UNL     1      24.303  49.924  48.666  1.00  0.00     0.061 C 
HETATM   16  C   UNL     1      21.935  50.606  48.835  1.00  0.00     0.047 C 
HETATM   17  C   UNL     1      21.072  48.124  48.980  1.00  0.00     0.268 A 
HETATM   18  C   UNL     1      23.378  51.110  48.973  1.00  0.00     0.011 C 
HETATM   19  O   UNL     1      19.882  48.406  49.032  1.00  0.00    -0.267 OA
HETATM   20  N   UNL     1      21.555  46.847  48.980  1.00  0.00    -0.152 N 
HETATM   21  H   UNL     1      20.900  46.073  49.004  1.00  0.00     0.188 HD
ENDBRANCH   6  11
ENDBRANCH   1   5
BRANCH   2  22
HETATM   22  C   UNL     1      26.201  44.619  52.436  1.00  0.00     0.034 A 
HETATM   23  C   UNL     1      26.077  45.835  53.120  1.00  0.00     0.033 A 
HETATM   24  C   UNL     1      27.057  46.246  54.037  1.00  0.00     0.049 A 
HETATM   25  C   UNL     1      28.164  45.413  54.264  1.00  0.00     0.032 A 
HETATM   26  C   UNL     1      28.301  44.185  53.594  1.00  0.00     0.049 A 
HETATM   27  C   UNL     1      27.303  43.791  52.684  1.00  0.00     0.033 A 
BRANCH  24  28
HETATM   28  C   UNL     1      26.926  47.552  54.787  1.00  0.00     0.417 C 
HETATM   29  F   UNL     1      25.805  48.256  54.474  1.00  0.00    -0.166 F 
HETATM   30  F   UNL     1      26.895  47.369  56.135  1.00  0.00    -0.166 F 
HETATM   31  F   UNL     1      27.973  48.388  54.547  1.00  0.00    -0.166 F 
ENDBRANCH  24  28
BRANCH  26  32
HETATM   32  C   UNL     1      29.473  43.271  53.869  1.00  0.00     0.417 C 
HETATM   33  F   UNL     1      29.106  42.018  54.250  1.00  0.00    -0.166 F 
HETATM   34  F   UNL     1      30.274  43.121  52.782  1.00  0.00    -0.166 F 
HETATM   35  F   UNL     1      30.274  43.747  54.863  1.00  0.00    -0.166 F 
ENDBRANCH  26  32
ENDBRANCH   2  22
TORSDOF 5
ENDMDL
MODEL 9
REMARK VINA RESULT:      -9.8      2.768      4.912
REMARK  5 active torsions:
REMARK  status: ('A' for Active; 'I' for Inactive)
REMARK    1  A    between atoms: N_4  and  C_5 
REMARK    2  A    between atoms: C_15  and  N_16 
REMARK       I    between atoms: N_16  and  C_17 
REMARK    3  A    between atoms: C_17  and  C_18 
REMARK    4  A    between atoms: C_20  and  C_21 
REMARK    5  A    between atoms: C_26  and  C_27 
ROOT
HETATM    1  N   UNL     1      25.362  44.700  52.012  1.00  0.00    -0.307 N 
HETATM    2  C   UNL     1      26.703  44.399  52.195  1.00  0.00     0.257 C 
HETATM    3  O   UNL     1      27.385  43.700  51.453  1.00  0.00    -0.267 OA
HETATM    4  H   UNL     1      24.950  45.481  52.503  1.00  0.00     0.170 HD
ENDROOT
BRANCH   1   5
HETATM    5  C   UNL     1      24.664  44.193  50.925  1.00  0.00     0.152 C 
HETATM    6  N   UNL     1      23.932  44.914  49.984  1.00  0.00    -0.045 N 
HETATM    7  N   UNL     1      23.120  44.075  49.252  1.00  0.00    -0.156 NA
HETATM    8  C   UNL     1      23.577  42.850  49.536  1.00  0.00     0.055 C 
HETATM    9  C   UNL     1      23.006  41.662  48.854  1.00  0.00     0.072 C 
HETATM   10  C   UNL     1      24.569  42.875  50.540  1.00  0.00     0.079 C 
BRANCH   6  11
HETATM   11  C   UNL     1      24.055  46.256  49.559  1.00  0.00     0.732 A 
HETATM   12  N   UNL     1      23.086  46.961  49.051  1.00  0.00    -0.067 NA
HETATM   13  C   UNL     1      23.426  48.251  48.757  1.00  0.00     0.065 A 
HETATM   14  C   UNL     1      24.617  48.816  48.957  1.00  0.00     0.036 A 
HETATM   15  C   UNL     1      22.453  49.230  48.192  1.00  0.00     0.061 C 
HETATM   16  C   UNL     1      24.673  50.243  48.572  1.00  0.00     0.047 C 
HETATM   17  C   UNL     1      25.689  48.022  49.551  1.00  0.00     0.268 A 
HETATM   18  C   UNL     1      23.348  50.421  47.819  1.00  0.00     0.011 C 
HETATM   19  O   UNL     1      26.796  48.484  49.792  1.00  0.00    -0.267 OA
HETATM   20  N   UNL     1      25.321  46.736  49.824  1.00  0.00    -0.152 N 
HETATM   21  H   UNL     1      25.989  46.117  50.271  1.00  0.00     0.188 HD
ENDBRANCH   6  11
ENDBRANCH   1   5
BRANCH   2  22
HETATM   22  C   UNL     1      27.367  45.043  53.363  1.00  0.00     0.034 A 
HETATM   23  C   UNL     1      26.832  46.247  53.840  1.00  0.00     0.033 A 
HETATM   24  C   UNL     1      27.388  46.886  54.958  1.00  0.00     0.049 A 
HETATM   25  C   UNL     1      28.490  46.295  55.599  1.00  0.00     0.032 A 
HETATM   26  C   UNL     1      29.034  45.084  55.140  1.00  0.00     0.049 A 
HETATM   27  C   UNL     1      28.456  44.457  54.021  1.00  0.00     0.033 A 
BRANCH  24  28
HETATM   28  C   UNL     1      26.811  48.180  55.486  1.00  0.00     0.417 C 
HETATM   29  F   UNL     1      26.574  48.169  56.826  1.00  0.00    -0.166 F 
HETATM   30  F   UNL     1      27.632  49.240  55.256  1.00  0.00    -0.166 F 
HETATM   31  F   UNL     1      25.624  48.490  54.898  1.00  0.00    -0.166 F 
ENDBRANCH  24  28
BRANCH  26  32
HETATM   32  C   UNL     1      30.194  44.428  55.854  1.00  0.00     0.417 C 
HETATM   33  F   UNL     1      30.232  43.078  55.701  1.00  0.00    -0.166 F 
HETATM   34  F   UNL     1      31.395  44.896  55.422  1.00  0.00    -0.166 F 
HETATM   35  F   UNL     1      30.165  44.654  57.197  1.00  0.00    -0.166 F 
ENDBRANCH  26  32
ENDBRANCH   2  22
TORSDOF 5
ENDMDL
MODEL 10
REMARK VINA RESULT:      -9.7      1.757      2.213
REMARK  5 active torsions:
REMARK  status: ('A' for Active; 'I' for Inactive)
REMARK    1  A    between atoms: N_4  and  C_5 
REMARK    2  A    between atoms: C_15  and  N_16 
REMARK       I    between atoms: N_16  and  C_17 
REMARK    3  A    between atoms: C_17  and  C_18 
REMARK    4  A    between atoms: C_20  and  C_21 
REMARK    5  A    between atoms: C_26  and  C_27 
ROOT
HETATM    1  N   UNL     1      27.791  42.222  51.694  1.00  0.00    -0.307 N 
HETATM    2  C   UNL     1      28.000  41.993  53.046  1.00  0.00     0.257 C 
HETATM    3  O   UNL     1      28.017  40.893  53.588  1.00  0.00    -0.267 OA
HETATM    4  H   UNL     1      28.055  43.109  51.289  1.00  0.00     0.170 HD
ENDROOT
BRANCH   1   5
HETATM    5  C   UNL     1      27.565  41.167  50.824  1.00  0.00     0.152 C 
HETATM    6  N   UNL     1      26.398  40.898  50.111  1.00  0.00    -0.045 N 
HETATM    7  N   UNL     1      26.418  39.615  49.609  1.00  0.00    -0.156 NA
HETATM    8  C   UNL     1      27.690  39.227  49.757  1.00  0.00     0.055 C 
HETATM    9  C   UNL     1      28.135  37.910  49.239  1.00  0.00     0.072 C 
HETATM   10  C   UNL     1      28.454  40.178  50.467  1.00  0.00     0.079 C 
BRANCH   6  11
HETATM   11  C   UNL     1      25.369  41.764  49.677  1.00  0.00     0.732 A 
HETATM   12  N   UNL     1      25.428  43.064  49.728  1.00  0.00    -0.067 NA
HETATM   13  C   UNL     1      24.333  43.695  49.208  1.00  0.00     0.065 A 
HETATM   14  C   UNL     1      23.269  43.104  48.665  1.00  0.00     0.036 A 
HETATM   15  C   UNL     1      24.216  45.180  49.148  1.00  0.00     0.061 C 
HETATM   16  C   UNL     1      22.256  44.053  48.153  1.00  0.00     0.047 C 
HETATM   17  C   UNL     1      23.226  41.646  48.591  1.00  0.00     0.268 A 
HETATM   18  C   UNL     1      22.754  45.387  48.725  1.00  0.00     0.011 C 
HETATM   19  O   UNL     1      22.296  41.039  48.078  1.00  0.00    -0.267 OA
HETATM   20  N   UNL     1      24.328  41.045  49.128  1.00  0.00    -0.152 N 
HETATM   21  H   UNL     1      24.405  40.034  49.089  1.00  0.00     0.188 HD
ENDBRANCH   6  11
ENDBRANCH   1   5
BRANCH   2  22
HETATM   22  C   UNL     1      28.290  43.193  53.879  1.00  0.00     0.034 A 
HETATM   23  C   UNL     1      29.418  43.157  54.709  1.00  0.00     0.033 A 
HETATM   24  C   UNL     1      29.769  44.267  55.493  1.00  0.00     0.049 A 
HETATM   25  C   UNL     1      28.973  45.423  55.426  1.00  0.00     0.032 A 
HETATM   26  C   UNL     1      27.843  45.480  54.592  1.00  0.00     0.049 A 
HETATM   27  C   UNL     1      27.515  44.357  53.811  1.00  0.00     0.033 A 
BRANCH  24  28
HETATM   28  C   UNL     1      30.989  44.241  56.384  1.00  0.00     0.417 C 
HETATM   29  F   UNL     1      31.284  43.007  56.877  1.00  0.00    -0.166 F 
HETATM   30  F   UNL     1      32.108  44.666  55.736  1.00  0.00    -0.166 F 
HETATM   31  F   UNL     1      30.852  45.055  57.466  1.00  0.00    -0.166 F 
ENDBRANCH  24  28
BRANCH  26  32
HETATM   32  C   UNL     1      27.011  46.738  54.490  1.00  0.00     0.417 C 
HETATM   33  F   UNL     1      27.078  47.336  53.271  1.00  0.00    -0.166 F 
HETATM   34  F   UNL     1      25.693  46.502  54.728  1.00  0.00    -0.166 F 
HETATM   35  F   UNL     1      27.392  47.682  55.395  1.00  0.00    -0.166 F 
ENDBRANCH  26  32
ENDBRANCH   2  22
TORSDOF 5
ENDMDL
