MODEL 1
REMARK VINA RESULT:     -10.0      0.000      0.000
REMARK  8 active torsions:
REMARK  status: ('A' for Active; 'I' for Inactive)
REMARK    1  A    between atoms: C_4  and  S_5 
REMARK    2  A    between atoms: S_5  and  C_6 
REMARK    3  A    between atoms: C_6  and  C_7 
REMARK       I    between atoms: C_7  and  N_8 
REMARK    4  A    between atoms: N_8  and  C_9 
REMARK    5  A    between atoms: C_10  and  O_11 
REMARK    6  A    between atoms: C_22  and  C_23 
REMARK    7  A    between atoms: C_29  and  C_30 
REMARK       I    between atoms: C_30  and  N_31 
REMARK    8  A    between atoms: N_31  and  C_32 
ROOT
HETATM    1  C   UNL     1      24.710  49.374  48.870  1.00  0.00     0.069 C 
HETATM    2  C   UNL     1      24.196  47.965  49.060  1.00  0.00     0.019 A 
HETATM    3  N   UNL     1      25.147  47.038  49.449  1.00  0.00    -0.353 N 
HETATM    4  C   UNL     1      24.898  45.716  49.768  1.00  0.00     0.088 A 
HETATM    5  C   UNL     1      23.637  45.235  49.658  1.00  0.00     0.069 A 
HETATM    6  C   UNL     1      23.283  43.909  50.058  1.00  0.00     0.099 C 
HETATM    7  N   UNL     1      22.942  42.850  50.392  1.00  0.00    -0.192 NA
HETATM    8  C   UNL     1      22.496  46.138  49.172  1.00  0.00     0.106 A 
HETATM    9  C   UNL     1      22.903  47.589  48.905  1.00  0.00     0.046 A 
HETATM   10  H   UNL     1      26.014  47.410  49.842  1.00  0.00     0.166 HD
ENDROOT
BRANCH   4  11
HETATM   11  S   UNL     1      26.189  44.698  50.385  1.00  0.00    -0.102 SA
BRANCH  11  12
HETATM   12  C   UNL     1      26.364  45.327  52.084  1.00  0.00     0.184 C 
BRANCH  12  13
HETATM   13  C   UNL     1      25.755  44.382  53.111  1.00  0.00     0.231 C 
HETATM   14  N   UNL     1      26.541  43.550  53.852  1.00  0.00    -0.324 N 
HETATM   15  H   UNL     1      26.035  42.736  54.193  1.00  0.00     0.169 HD
HETATM   16  O   UNL     1      24.532  44.252  53.233  1.00  0.00    -0.272 OA
BRANCH  14  17
HETATM   17  C   UNL     1      27.883  43.603  54.269  1.00  0.00     0.070 A 
HETATM   18  C   UNL     1      28.678  42.466  54.000  1.00  0.00     0.095 A 
HETATM   19  C   UNL     1      30.007  42.426  54.430  1.00  0.00     0.041 A 
HETATM   20  C   UNL     1      30.542  43.501  55.141  1.00  0.00     0.026 A 
HETATM   21  C   UNL     1      29.744  44.604  55.437  1.00  0.00     0.036 A 
HETATM   22 CL   UNL     1      30.397  45.902  56.359  1.00  0.00    -0.084 Cl
HETATM   23  C   UNL     1      28.415  44.657  55.015  1.00  0.00     0.056 A 
BRANCH  18  24
HETATM   24  O   UNL     1      28.047  41.457  53.311  1.00  0.00    -0.354 OA
HETATM   25  C   UNL     1      28.615  41.061  52.068  1.00  0.00     0.210 C 
ENDBRANCH  18  24
ENDBRANCH  14  17
ENDBRANCH  12  13
ENDBRANCH  11  12
ENDBRANCH   4  11
BRANCH   8  26
HETATM   26  C   UNL     1      21.761  45.504  47.989  1.00  0.00    -0.044 A 
HETATM   27  C   UNL     1      20.390  45.209  48.096  1.00  0.00     0.008 A 
HETATM   28  C   UNL     1      19.707  44.607  47.037  1.00  0.00     0.001 A 
HETATM   29  C   UNL     1      20.384  44.292  45.862  1.00  0.00     0.000 A 
HETATM   30  C   UNL     1      21.743  44.570  45.745  1.00  0.00     0.001 A 
HETATM   31  C   UNL     1      22.431  45.168  46.803  1.00  0.00     0.008 A 
ENDBRANCH   8  26
BRANCH   9  32
HETATM   32  C   UNL     1      21.875  48.589  48.438  1.00  0.00     0.255 C 
HETATM   33  N   UNL     1      21.149  49.192  49.444  1.00  0.00    -0.323 N 
HETATM   34  H   UNL     1      21.256  48.853  50.386  1.00  0.00     0.169 HD
HETATM   35  O   UNL     1      21.721  48.793  47.237  1.00  0.00    -0.268 OA
BRANCH  33  36
HETATM   36  C   UNL     1      20.200  50.232  49.311  1.00  0.00     0.035 A 
HETATM   37  C   UNL     1      20.413  51.396  48.571  1.00  0.00     0.029 A 
HETATM   38  C   UNL     1      19.434  52.394  48.521  1.00  0.00     0.002 A 
HETATM   39  C   UNL     1      18.232  52.234  49.206  1.00  0.00     0.000 A 
HETATM   40  C   UNL     1      18.008  51.077  49.945  1.00  0.00     0.002 A 
HETATM   41  C   UNL     1      18.989  50.084  50.000  1.00  0.00     0.029 A 
ENDBRANCH  33  36
ENDBRANCH   9  32
TORSDOF 8
ENDMDL
MODEL 2
REMARK VINA RESULT:      -9.6      1.381      2.270
REMARK  8 active torsions:
REMARK  status: ('A' for Active; 'I' for Inactive)
REMARK    1  A    between atoms: C_4  and  S_5 
REMARK    2  A    between atoms: S_5  and  C_6 
REMARK    3  A    between atoms: C_6  and  C_7 
REMARK       I    between atoms: C_7  and  N_8 
REMARK    4  A    between atoms: N_8  and  C_9 
REMARK    5  A    between atoms: C_10  and  O_11 
REMARK    6  A    between atoms: C_22  and  C_23 
REMARK    7  A    between atoms: C_29  and  C_30 
REMARK       I    between atoms: C_30  and  N_31 
REMARK    8  A    between atoms: N_31  and  C_32 
ROOT
HETATM    1  C   UNL     1      24.557  48.776  49.282  1.00  0.00     0.069 C 
HETATM    2  C   UNL     1      24.014  47.371  49.151  1.00  0.00     0.019 A 
HETATM    3  N   UNL     1      24.920  46.361  49.427  1.00  0.00    -0.353 N 
HETATM    4  C   UNL     1      24.632  45.010  49.462  1.00  0.00     0.088 A 
HETATM    5  C   UNL     1      23.380  44.592  49.159  1.00  0.00     0.069 A 
HETATM    6  C   UNL     1      22.980  43.223  49.264  1.00  0.00     0.099 C 
HETATM    7  N   UNL     1      22.602  42.129  49.357  1.00  0.00    -0.192 NA
HETATM    8  C   UNL     1      22.293  45.601  48.769  1.00  0.00     0.106 A 
HETATM    9  C   UNL     1      22.735  47.065  48.823  1.00  0.00     0.046 A 
HETATM   10  H   UNL     1      25.754  46.628  49.954  1.00  0.00     0.166 HD
ENDROOT
BRANCH   4  11
HETATM   11  S   UNL     1      25.857  43.858  49.970  1.00  0.00    -0.102 SA
BRANCH  11  12
HETATM   12  C   UNL     1      26.511  44.664  51.465  1.00  0.00     0.184 C 
BRANCH  12  13
HETATM   13  C   UNL     1      25.559  44.540  52.647  1.00  0.00     0.231 C 
HETATM   14  N   UNL     1      26.033  44.416  53.919  1.00  0.00    -0.324 N 
HETATM   15  H   UNL     1      25.365  43.968  54.543  1.00  0.00     0.169 HD
HETATM   16  O   UNL     1      24.338  44.435  52.491  1.00  0.00    -0.272 OA
BRANCH  14  17
HETATM   17  C   UNL     1      27.226  44.810  54.551  1.00  0.00     0.070 A 
HETATM   18  C   UNL     1      27.291  46.146  55.010  1.00  0.00     0.095 A 
HETATM   19  C   UNL     1      28.463  46.624  55.602  1.00  0.00     0.041 A 
HETATM   20  C   UNL     1      29.574  45.788  55.722  1.00  0.00     0.026 A 
HETATM   21  C   UNL     1      29.519  44.485  55.233  1.00  0.00     0.036 A 
HETATM   22 CL   UNL     1      30.910  43.478  55.339  1.00  0.00    -0.084 Cl
HETATM   23  C   UNL     1      28.355  43.994  54.639  1.00  0.00     0.056 A 
BRANCH  18  24
HETATM   24  O   UNL     1      26.147  46.888  54.825  1.00  0.00    -0.354 OA
HETATM   25  C   UNL     1      26.192  48.260  55.198  1.00  0.00     0.210 C 
ENDBRANCH  18  24
ENDBRANCH  14  17
ENDBRANCH  12  13
ENDBRANCH  11  12
ENDBRANCH   4  11
BRANCH   8  26
HETATM   26  C   UNL     1      21.653  45.227  47.430  1.00  0.00    -0.044 A 
HETATM   27  C   UNL     1      20.302  44.839  47.386  1.00  0.00     0.008 A 
HETATM   28  C   UNL     1      19.707  44.470  46.178  1.00  0.00     0.001 A 
HETATM   29  C   UNL     1      20.452  44.482  45.003  1.00  0.00     0.000 A 
HETATM   30  C   UNL     1      21.793  44.855  45.032  1.00  0.00     0.001 A 
HETATM   31  C   UNL     1      22.393  45.222  46.239  1.00  0.00     0.008 A 
ENDBRANCH   8  26
BRANCH   9  32
HETATM   32  C   UNL     1      21.760  48.164  48.479  1.00  0.00     0.255 C 
HETATM   33  N   UNL     1      21.012  48.633  49.539  1.00  0.00    -0.323 N 
HETATM   34  H   UNL     1      21.069  48.150  50.421  1.00  0.00     0.169 HD
HETATM   35  O   UNL     1      21.663  48.555  47.319  1.00  0.00    -0.268 OA
BRANCH  33  36
HETATM   36  C   UNL     1      20.103  49.716  49.533  1.00  0.00     0.035 A 
HETATM   37  C   UNL     1      18.799  49.647  50.027  1.00  0.00     0.029 A 
HETATM   38  C   UNL     1      17.951  50.757  49.949  1.00  0.00     0.002 A 
HETATM   39  C   UNL     1      18.402  51.947  49.383  1.00  0.00     0.000 A 
HETATM   40  C   UNL     1      19.701  52.028  48.890  1.00  0.00     0.002 A 
HETATM   41  C   UNL     1      20.545  50.917  48.961  1.00  0.00     0.029 A 
ENDBRANCH  33  36
ENDBRANCH   9  32
TORSDOF 8
ENDMDL
MODEL 3
REMARK VINA RESULT:      -9.3      4.867      8.972
REMARK  8 active torsions:
REMARK  status: ('A' for Active; 'I' for Inactive)
REMARK    1  A    between atoms: C_4  and  S_5 
REMARK    2  A    between atoms: S_5  and  C_6 
REMARK    3  A    between atoms: C_6  and  C_7 
REMARK       I    between atoms: C_7  and  N_8 
REMARK    4  A    between atoms: N_8  and  C_9 
REMARK    5  A    between atoms: C_10  and  O_11 
REMARK    6  A    between atoms: C_22  and  C_23 
REMARK    7  A    between atoms: C_29  and  C_30 
REMARK       I    between atoms: C_30  and  N_31 
REMARK    8  A    between atoms: N_31  and  C_32 
ROOT
HETATM    1  C   UNL     1      28.758  40.760  51.964  1.00  0.00     0.069 C 
HETATM    2  C   UNL     1      27.641  41.520  51.287  1.00  0.00     0.019 A 
HETATM    3  N   UNL     1      27.321  41.085  50.012  1.00  0.00    -0.353 N 
HETATM    4  C   UNL     1      26.282  41.564  49.236  1.00  0.00     0.088 A 
HETATM    5  C   UNL     1      25.517  42.577  49.707  1.00  0.00     0.069 A 
HETATM    6  C   UNL     1      24.368  43.063  49.008  1.00  0.00     0.099 C 
HETATM    7  N   UNL     1      23.414  43.473  48.489  1.00  0.00    -0.192 NA
HETATM    8  C   UNL     1      25.803  43.200  51.080  1.00  0.00     0.106 A 
HETATM    9  C   UNL     1      26.948  42.538  51.852  1.00  0.00     0.046 A 
HETATM   10  H   UNL     1      27.644  40.151  49.754  1.00  0.00     0.166 HD
ENDROOT
BRANCH   4  11
HETATM   11  S   UNL     1      25.912  40.812  47.693  1.00  0.00    -0.102 SA
BRANCH  11  12
HETATM   12  C   UNL     1      27.532  40.873  46.865  1.00  0.00     0.184 C 
BRANCH  12  13
HETATM   13  C   UNL     1      27.769  39.659  45.977  1.00  0.00     0.231 C 
HETATM   14  N   UNL     1      28.252  38.495  46.495  1.00  0.00    -0.324 N 
HETATM   15  H   UNL     1      28.718  37.920  45.797  1.00  0.00     0.169 HD
HETATM   16  O   UNL     1      27.640  39.715  44.749  1.00  0.00    -0.272 OA
BRANCH  14  17
HETATM   17  C   UNL     1      28.206  37.912  47.774  1.00  0.00     0.070 A 
HETATM   18  C   UNL     1      27.031  37.200  48.107  1.00  0.00     0.095 A 
HETATM   19  C   UNL     1      26.893  36.637  49.378  1.00  0.00     0.041 A 
HETATM   20  C   UNL     1      27.907  36.794  50.324  1.00  0.00     0.026 A 
HETATM   21  C   UNL     1      29.046  37.528  50.005  1.00  0.00     0.036 A 
HETATM   22 CL   UNL     1      30.268  37.760  51.194  1.00  0.00    -0.084 Cl
HETATM   23  C   UNL     1      29.198  38.097  48.739  1.00  0.00     0.056 A 
BRANCH  18  24
HETATM   24  O   UNL     1      26.088  37.123  47.109  1.00  0.00    -0.354 OA
HETATM   25  C   UNL     1      25.582  35.833  46.787  1.00  0.00     0.210 C 
ENDBRANCH  18  24
ENDBRANCH  14  17
ENDBRANCH  12  13
ENDBRANCH  11  12
ENDBRANCH   4  11
BRANCH   8  26
HETATM   26  C   UNL     1      25.965  44.718  50.971  1.00  0.00    -0.044 A 
HETATM   27  C   UNL     1      25.277  45.559  51.863  1.00  0.00     0.008 A 
HETATM   28  C   UNL     1      25.391  46.947  51.764  1.00  0.00     0.001 A 
HETATM   29  C   UNL     1      26.190  47.510  50.774  1.00  0.00     0.000 A 
HETATM   30  C   UNL     1      26.871  46.690  49.877  1.00  0.00     0.001 A 
HETATM   31  C   UNL     1      26.756  45.301  49.971  1.00  0.00     0.008 A 
ENDBRANCH   8  26
BRANCH   9  32
HETATM   32  C   UNL     1      27.325  43.041  53.223  1.00  0.00     0.255 C 
HETATM   33  N   UNL     1      28.599  43.562  53.324  1.00  0.00    -0.323 N 
HETATM   34  H   UNL     1      29.222  43.468  52.538  1.00  0.00     0.169 HD
HETATM   35  O   UNL     1      26.527  42.945  54.151  1.00  0.00    -0.268 OA
BRANCH  33  36
HETATM   36  C   UNL     1      29.180  44.193  54.447  1.00  0.00     0.035 A 
HETATM   37  C   UNL     1      28.764  45.423  54.958  1.00  0.00     0.029 A 
HETATM   38  C   UNL     1      29.419  45.996  56.054  1.00  0.00     0.002 A 
HETATM   39  C   UNL     1      30.492  45.339  56.652  1.00  0.00     0.000 A 
HETATM   40  C   UNL     1      30.914  44.111  56.153  1.00  0.00     0.002 A 
HETATM   41  C   UNL     1      30.265  43.544  55.054  1.00  0.00     0.029 A 
ENDBRANCH  33  36
ENDBRANCH   9  32
TORSDOF 8
ENDMDL
MODEL 4
REMARK VINA RESULT:      -9.1      1.670      2.341
REMARK  8 active torsions:
REMARK  status: ('A' for Active; 'I' for Inactive)
REMARK    1  A    between atoms: C_4  and  S_5 
REMARK    2  A    between atoms: S_5  and  C_6 
REMARK    3  A    between atoms: C_6  and  C_7 
REMARK       I    between atoms: C_7  and  N_8 
REMARK    4  A    between atoms: N_8  and  C_9 
REMARK    5  A    between atoms: C_10  and  O_11 
REMARK    6  A    between atoms: C_22  and  C_23 
REMARK    7  A    between atoms: C_29  and  C_30 
REMARK       I    between atoms: C_30  and  N_31 
REMARK    8  A    between atoms: N_31  and  C_32 
ROOT
HETATM    1  C   UNL     1      24.951  48.130  49.647  1.00  0.00     0.069 C 
HETATM    2  C   UNL     1      24.312  46.805  49.300  1.00  0.00     0.019 A 
HETATM    3  N   UNL     1      25.106  45.692  49.517  1.00  0.00    -0.353 N 
HETATM    4  C   UNL     1      24.710  44.377  49.360  1.00  0.00     0.088 A 
HETATM    5  C   UNL     1      23.460  44.112  48.911  1.00  0.00     0.069 A 
HETATM    6  C   UNL     1      22.945  42.782  48.812  1.00  0.00     0.099 C 
HETATM    7  N   UNL     1      22.474  41.723  48.738  1.00  0.00    -0.192 NA
HETATM    8  C   UNL     1      22.495  45.254  48.566  1.00  0.00     0.106 A 
HETATM    9  C   UNL     1      23.046  46.656  48.837  1.00  0.00     0.046 A 
HETATM   10  H   UNL     1      25.910  45.819  50.137  1.00  0.00     0.166 HD
ENDROOT
BRANCH   4  11
HETATM   11  S   UNL     1      25.789  43.068  49.814  1.00  0.00    -0.102 SA
BRANCH  11  12
HETATM   12  C   UNL     1      26.799  43.865  51.103  1.00  0.00     0.184 C 
BRANCH  12  13
HETATM   13  C   UNL     1      27.338  42.860  52.112  1.00  0.00     0.231 C 
HETATM   14  N   UNL     1      28.056  43.271  53.196  1.00  0.00    -0.324 N 
HETATM   15  H   UNL     1      28.665  42.541  53.560  1.00  0.00     0.169 HD
HETATM   16  O   UNL     1      27.244  41.641  51.931  1.00  0.00    -0.272 OA
BRANCH  14  17
HETATM   17  C   UNL     1      28.099  44.468  53.931  1.00  0.00     0.070 A 
HETATM   18  C   UNL     1      29.119  44.581  54.903  1.00  0.00     0.095 A 
HETATM   19  C   UNL     1      29.194  45.721  55.707  1.00  0.00     0.041 A 
HETATM   20  C   UNL     1      28.249  46.739  55.563  1.00  0.00     0.026 A 
HETATM   21  C   UNL     1      27.223  46.606  54.632  1.00  0.00     0.036 A 
HETATM   22 CL   UNL     1      26.033  47.842  54.497  1.00  0.00    -0.084 Cl
HETATM   23  C   UNL     1      27.135  45.473  53.822  1.00  0.00     0.056 A 
BRANCH  18  24
HETATM   24  O   UNL     1      29.984  43.514  54.974  1.00  0.00    -0.354 OA
HETATM   25  C   UNL     1      30.980  43.548  55.990  1.00  0.00     0.210 C 
ENDBRANCH  18  24
ENDBRANCH  14  17
ENDBRANCH  12  13
ENDBRANCH  11  12
ENDBRANCH   4  11
BRANCH   8  26
HETATM   26  C   UNL     1      21.949  45.099  47.145  1.00  0.00    -0.044 A 
HETATM   27  C   UNL     1      22.839  44.926  46.070  1.00  0.00     0.008 A 
HETATM   28  C   UNL     1      22.362  44.809  44.763  1.00  0.00     0.001 A 
HETATM   29  C   UNL     1      20.994  44.865  44.514  1.00  0.00     0.000 A 
HETATM   30  C   UNL     1      20.101  45.046  45.568  1.00  0.00     0.001 A 
HETATM   31  C   UNL     1      20.574  45.167  46.876  1.00  0.00     0.008 A 
ENDBRANCH   8  26
BRANCH   9  32
HETATM   32  C   UNL     1      22.196  47.870  48.558  1.00  0.00     0.255 C 
HETATM   33  N   UNL     1      21.194  48.105  49.477  1.00  0.00    -0.323 N 
HETATM   34  H   UNL     1      21.018  47.411  50.186  1.00  0.00     0.169 HD
HETATM   35  O   UNL     1      22.408  48.548  47.557  1.00  0.00    -0.268 OA
BRANCH  33  36
HETATM   36  C   UNL     1      20.319  49.214  49.526  1.00  0.00     0.035 A 
HETATM   37  C   UNL     1      20.736  50.534  49.703  1.00  0.00     0.029 A 
HETATM   38  C   UNL     1      19.800  51.571  49.777  1.00  0.00     0.002 A 
HETATM   39  C   UNL     1      18.438  51.297  49.669  1.00  0.00     0.000 A 
HETATM   40  C   UNL     1      18.011  49.985  49.491  1.00  0.00     0.002 A 
HETATM   41  C   UNL     1      18.946  48.949  49.424  1.00  0.00     0.029 A 
ENDBRANCH  33  36
ENDBRANCH   9  32
TORSDOF 8
ENDMDL
MODEL 5
REMARK VINA RESULT:      -9.1      2.374      4.283
REMARK  8 active torsions:
REMARK  status: ('A' for Active; 'I' for Inactive)
REMARK    1  A    between atoms: C_4  and  S_5 
REMARK    2  A    between atoms: S_5  and  C_6 
REMARK    3  A    between atoms: C_6  and  C_7 
REMARK       I    between atoms: C_7  and  N_8 
REMARK    4  A    between atoms: N_8  and  C_9 
REMARK    5  A    between atoms: C_10  and  O_11 
REMARK    6  A    between atoms: C_22  and  C_23 
REMARK    7  A    between atoms: C_29  and  C_30 
REMARK       I    between atoms: C_30  and  N_31 
REMARK    8  A    between atoms: N_31  and  C_32 
ROOT
HETATM    1  C   UNL     1      20.832  44.581  48.027  1.00  0.00     0.069 C 
HETATM    2  C   UNL     1      21.555  45.889  48.250  1.00  0.00     0.019 A 
HETATM    3  N   UNL     1      22.688  45.810  49.041  1.00  0.00    -0.353 N 
HETATM    4  C   UNL     1      23.557  46.851  49.309  1.00  0.00     0.088 A 
HETATM    5  C   UNL     1      23.287  48.082  48.814  1.00  0.00     0.069 A 
HETATM    6  C   UNL     1      24.183  49.186  48.967  1.00  0.00     0.099 C 
HETATM    7  N   UNL     1      24.889  50.104  49.044  1.00  0.00    -0.192 NA
HETATM    8  C   UNL     1      22.026  48.328  47.975  1.00  0.00     0.106 A 
HETATM    9  C   UNL     1      21.183  47.077  47.714  1.00  0.00     0.046 A 
HETATM   10  H   UNL     1      23.094  44.880  49.164  1.00  0.00     0.166 HD
ENDROOT
BRANCH   4  11
HETATM   11  S   UNL     1      25.033  46.559  50.214  1.00  0.00    -0.102 SA
BRANCH  11  12
HETATM   12  C   UNL     1      25.226  44.759  50.019  1.00  0.00     0.184 C 
BRANCH  12  13
HETATM   13  C   UNL     1      24.525  43.984  51.126  1.00  0.00     0.231 C 
HETATM   14  N   UNL     1      25.233  43.437  52.155  1.00  0.00    -0.324 N 
HETATM   15  H   UNL     1      24.747  42.656  52.592  1.00  0.00     0.169 HD
HETATM   16  O   UNL     1      23.317  43.728  51.078  1.00  0.00    -0.272 OA
BRANCH  14  17
HETATM   17  C   UNL     1      26.464  43.750  52.757  1.00  0.00     0.070 A 
HETATM   18  C   UNL     1      27.462  42.749  52.722  1.00  0.00     0.095 A 
HETATM   19  C   UNL     1      28.694  42.969  53.343  1.00  0.00     0.041 A 
HETATM   20  C   UNL     1      28.930  44.170  54.015  1.00  0.00     0.026 A 
HETATM   21  C   UNL     1      27.931  45.138  54.081  1.00  0.00     0.036 A 
HETATM   22 CL   UNL     1      28.214  46.593  54.955  1.00  0.00    -0.084 Cl
HETATM   23  C   UNL     1      26.696  44.931  53.465  1.00  0.00     0.056 A 
BRANCH  18  24
HETATM   24  O   UNL     1      27.117  41.599  52.052  1.00  0.00    -0.354 OA
HETATM   25  C   UNL     1      27.999  41.150  51.029  1.00  0.00     0.210 C 
ENDBRANCH  18  24
ENDBRANCH  14  17
ENDBRANCH  12  13
ENDBRANCH  11  12
ENDBRANCH   4  11
BRANCH   8  26
HETATM   26  C   UNL     1      21.203  49.484  48.548  1.00  0.00    -0.044 A 
HETATM   27  C   UNL     1      21.067  50.676  47.812  1.00  0.00     0.008 A 
HETATM   28  C   UNL     1      20.343  51.751  48.328  1.00  0.00     0.001 A 
HETATM   29  C   UNL     1      19.748  51.652  49.583  1.00  0.00     0.000 A 
HETATM   30  C   UNL     1      19.882  50.482  50.327  1.00  0.00     0.001 A 
HETATM   31  C   UNL     1      20.609  49.405  49.816  1.00  0.00     0.008 A 
ENDBRANCH   8  26
BRANCH   9  32
HETATM   32  C   UNL     1      19.923  47.173  46.888  1.00  0.00     0.255 C 
HETATM   33  N   UNL     1      18.763  47.354  47.613  1.00  0.00    -0.323 N 
HETATM   34  H   UNL     1      18.807  47.291  48.617  1.00  0.00     0.169 HD
HETATM   35  O   UNL     1      19.983  47.066  45.667  1.00  0.00    -0.268 OA
BRANCH  33  36
HETATM   36  C   UNL     1      17.463  47.578  47.106  1.00  0.00     0.035 A 
HETATM   37  C   UNL     1      16.959  46.980  45.950  1.00  0.00     0.029 A 
HETATM   38  C   UNL     1      15.671  47.284  45.496  1.00  0.00     0.002 A 
HETATM   39  C   UNL     1      14.874  48.185  46.198  1.00  0.00     0.000 A 
HETATM   40  C   UNL     1      15.365  48.786  47.353  1.00  0.00     0.002 A 
HETATM   41  C   UNL     1      16.654  48.487  47.802  1.00  0.00     0.029 A 
ENDBRANCH  33  36
ENDBRANCH   9  32
TORSDOF 8
ENDMDL
MODEL 6
REMARK VINA RESULT:      -9.0      1.952      2.521
REMARK  8 active torsions:
REMARK  status: ('A' for Active; 'I' for Inactive)
REMARK    1  A    between atoms: C_4  and  S_5 
REMARK    2  A    between atoms: S_5  and  C_6 
REMARK    3  A    between atoms: C_6  and  C_7 
REMARK       I    between atoms: C_7  and  N_8 
REMARK    4  A    between atoms: N_8  and  C_9 
REMARK    5  A    between atoms: C_10  and  O_11 
REMARK    6  A    between atoms: C_22  and  C_23 
REMARK    7  A    between atoms: C_29  and  C_30 
REMARK       I    between atoms: C_30  and  N_31 
REMARK    8  A    between atoms: N_31  and  C_32 
ROOT
HETATM    1  C   UNL     1      23.262  49.944  49.145  1.00  0.00     0.069 C 
HETATM    2  C   UNL     1      22.929  48.477  49.002  1.00  0.00     0.019 A 
HETATM    3  N   UNL     1      23.966  47.606  49.291  1.00  0.00    -0.353 N 
HETATM    4  C   UNL     1      23.874  46.227  49.317  1.00  0.00     0.088 A 
HETATM    5  C   UNL     1      22.701  45.635  48.991  1.00  0.00     0.069 A 
HETATM    6  C   UNL     1      22.500  44.223  49.085  1.00  0.00     0.099 C 
HETATM    7  N   UNL     1      22.281  43.086  49.169  1.00  0.00    -0.192 NA
HETATM    8  C   UNL     1      21.487  46.480  48.584  1.00  0.00     0.106 A 
HETATM    9  C   UNL     1      21.713  47.992  48.649  1.00  0.00     0.046 A 
HETATM   10  H   UNL     1      24.744  47.987  49.833  1.00  0.00     0.166 HD
ENDROOT
BRANCH   4  11
HETATM   11  S   UNL     1      25.243  45.261  49.844  1.00  0.00    -0.102 SA
BRANCH  11  12
HETATM   12  C   UNL     1      24.952  45.172  51.639  1.00  0.00     0.184 C 
BRANCH  12  13
HETATM   13  C   UNL     1      25.705  46.257  52.397  1.00  0.00     0.231 C 
HETATM   14  N   UNL     1      26.626  45.937  53.349  1.00  0.00    -0.324 N 
HETATM   15  H   UNL     1      26.766  46.685  54.024  1.00  0.00     0.169 HD
HETATM   16  O   UNL     1      25.435  47.455  52.259  1.00  0.00    -0.272 OA
BRANCH  14  17
HETATM   17  C   UNL     1      27.443  44.813  53.566  1.00  0.00     0.070 A 
HETATM   18  C   UNL     1      28.524  44.977  54.464  1.00  0.00     0.095 A 
HETATM   19  C   UNL     1      29.408  43.919  54.691  1.00  0.00     0.041 A 
HETATM   20  C   UNL     1      29.235  42.709  54.017  1.00  0.00     0.026 A 
HETATM   21  C   UNL     1      28.192  42.565  53.105  1.00  0.00     0.036 A 
HETATM   22 CL   UNL     1      28.018  41.087  52.241  1.00  0.00    -0.084 Cl
HETATM   23  C   UNL     1      27.302  43.613  52.868  1.00  0.00     0.056 A 
BRANCH  18  24
HETATM   24  O   UNL     1      28.612  46.214  55.058  1.00  0.00    -0.354 OA
HETATM   25  C   UNL     1      28.673  46.253  56.479  1.00  0.00     0.210 C 
ENDBRANCH  18  24
ENDBRANCH  14  17
ENDBRANCH  12  13
ENDBRANCH  11  12
ENDBRANCH   4  11
BRANCH   8  26
HETATM   26  C   UNL     1      20.930  46.025  47.233  1.00  0.00    -0.044 A 
HETATM   27  C   UNL     1      19.635  45.484  47.158  1.00  0.00     0.008 A 
HETATM   28  C   UNL     1      19.119  45.040  45.939  1.00  0.00     0.001 A 
HETATM   29  C   UNL     1      19.889  45.128  44.784  1.00  0.00     0.000 A 
HETATM   30  C   UNL     1      21.178  45.653  44.844  1.00  0.00     0.001 A 
HETATM   31  C   UNL     1      21.699  46.096  46.062  1.00  0.00     0.008 A 
ENDBRANCH   8  26
BRANCH   9  32
HETATM   32  C   UNL     1      20.596  48.941  48.291  1.00  0.00     0.255 C 
HETATM   33  N   UNL     1      19.738  49.250  49.326  1.00  0.00    -0.323 N 
HETATM   34  H   UNL     1      19.830  48.748  50.195  1.00  0.00     0.169 HD
HETATM   35  O   UNL     1      20.492  49.356  47.141  1.00  0.00    -0.268 OA
BRANCH  33  36
HETATM   36  C   UNL     1      18.674  50.181  49.308  1.00  0.00     0.035 A 
HETATM   37  C   UNL     1      17.412  49.918  48.773  1.00  0.00     0.029 A 
HETATM   38  C   UNL     1      16.425  50.909  48.762  1.00  0.00     0.002 A 
HETATM   39  C   UNL     1      16.690  52.170  49.292  1.00  0.00     0.000 A 
HETATM   40  C   UNL     1      17.944  52.442  49.830  1.00  0.00     0.002 A 
HETATM   41  C   UNL     1      18.932  51.454  49.834  1.00  0.00     0.029 A 
ENDBRANCH  33  36
ENDBRANCH   9  32
TORSDOF 8
ENDMDL
MODEL 7
REMARK VINA RESULT:      -8.8      2.333      4.755
REMARK  8 active torsions:
REMARK  status: ('A' for Active; 'I' for Inactive)
REMARK    1  A    between atoms: C_4  and  S_5 
REMARK    2  A    between atoms: S_5  and  C_6 
REMARK    3  A    between atoms: C_6  and  C_7 
REMARK       I    between atoms: C_7  and  N_8 
REMARK    4  A    between atoms: N_8  and  C_9 
REMARK    5  A    between atoms: C_10  and  O_11 
REMARK    6  A    between atoms: C_22  and  C_23 
REMARK    7  A    between atoms: C_29  and  C_30 
REMARK       I    between atoms: C_30  and  N_31 
REMARK    8  A    between atoms: N_31  and  C_32 
ROOT
HETATM    1  C   UNL     1      20.976  44.418  48.125  1.00  0.00     0.069 C 
HETATM    2  C   UNL     1      21.645  45.759  48.321  1.00  0.00     0.019 A 
HETATM    3  N   UNL     1      22.779  45.742  49.114  1.00  0.00    -0.353 N 
HETATM    4  C   UNL     1      23.605  46.823  49.361  1.00  0.00     0.088 A 
HETATM    5  C   UNL     1      23.286  48.032  48.840  1.00  0.00     0.069 A 
HETATM    6  C   UNL     1      24.136  49.174  48.970  1.00  0.00     0.099 C 
HETATM    7  N   UNL     1      24.804  50.122  49.029  1.00  0.00    -0.192 NA
HETATM    8  C   UNL     1      22.017  48.208  47.995  1.00  0.00     0.106 A 
HETATM    9  C   UNL     1      21.226  46.919  47.759  1.00  0.00     0.046 A 
HETATM   10  H   UNL     1      23.222  44.832  49.258  1.00  0.00     0.166 HD
ENDROOT
BRANCH   4  11
HETATM   11  S   UNL     1      25.090  46.611  50.274  1.00  0.00    -0.102 SA
BRANCH  11  12
HETATM   12  C   UNL     1      25.347  44.814  50.130  1.00  0.00     0.184 C 
BRANCH  12  13
HETATM   13  C   UNL     1      24.631  44.043  51.231  1.00  0.00     0.231 C 
HETATM   14  N   UNL     1      25.316  43.548  52.300  1.00  0.00    -0.324 N 
HETATM   15  H   UNL     1      24.841  42.762  52.739  1.00  0.00     0.169 HD
HETATM   16  O   UNL     1      23.435  43.742  51.143  1.00  0.00    -0.272 OA
BRANCH  14  17
HETATM   17  C   UNL     1      26.511  43.921  52.940  1.00  0.00     0.070 A 
HETATM   18  C   UNL     1      27.557  42.969  52.937  1.00  0.00     0.095 A 
HETATM   19  C   UNL     1      28.757  43.249  53.596  1.00  0.00     0.041 A 
HETATM   20  C   UNL     1      28.913  44.459  54.275  1.00  0.00     0.026 A 
HETATM   21  C   UNL     1      27.867  45.376  54.309  1.00  0.00     0.036 A 
HETATM   22 CL   UNL     1      28.051  46.842  55.190  1.00  0.00    -0.084 Cl
HETATM   23  C   UNL     1      26.663  45.110  53.655  1.00  0.00     0.056 A 
BRANCH  18  24
HETATM   24  O   UNL     1      27.290  41.804  52.256  1.00  0.00    -0.354 OA
HETATM   25  C   UNL     1      28.170  41.452  51.195  1.00  0.00     0.210 C 
ENDBRANCH  18  24
ENDBRANCH  14  17
ENDBRANCH  12  13
ENDBRANCH  11  12
ENDBRANCH   4  11
BRANCH   8  26
HETATM   26  C   UNL     1      21.147  49.342  48.543  1.00  0.00    -0.044 A 
HETATM   27  C   UNL     1      21.033  50.545  47.822  1.00  0.00     0.008 A 
HETATM   28  C   UNL     1      20.266  51.600  48.317  1.00  0.00     0.001 A 
HETATM   29  C   UNL     1      19.605  51.469  49.535  1.00  0.00     0.000 A 
HETATM   30  C   UNL     1      19.716  50.288  50.264  1.00  0.00     0.001 A 
HETATM   31  C   UNL     1      20.486  49.231  49.774  1.00  0.00     0.008 A 
ENDBRANCH   8  26
BRANCH   9  32
HETATM   32  C   UNL     1      19.965  46.946  46.931  1.00  0.00     0.255 C 
HETATM   33  N   UNL     1      20.160  46.852  45.568  1.00  0.00    -0.323 N 
HETATM   34  H   UNL     1      21.101  46.893  45.212  1.00  0.00     0.169 HD
HETATM   35  O   UNL     1      18.875  47.071  47.481  1.00  0.00    -0.268 OA
BRANCH  33  36
HETATM   36  C   UNL     1      19.168  46.750  44.567  1.00  0.00     0.035 A 
HETATM   37  C   UNL     1      18.505  47.843  44.006  1.00  0.00     0.029 A 
HETATM   38  C   UNL     1      17.508  47.651  43.044  1.00  0.00     0.002 A 
HETATM   39  C   UNL     1      17.169  46.365  42.630  1.00  0.00     0.000 A 
HETATM   40  C   UNL     1      17.825  45.268  43.179  1.00  0.00     0.002 A 
HETATM   41  C   UNL     1      18.816  45.460  44.146  1.00  0.00     0.029 A 
ENDBRANCH  33  36
ENDBRANCH   9  32
TORSDOF 8
ENDMDL
MODEL 8
REMARK VINA RESULT:      -8.8      3.298     10.641
REMARK  8 active torsions:
REMARK  status: ('A' for Active; 'I' for Inactive)
REMARK    1  A    between atoms: C_4  and  S_5 
REMARK    2  A    between atoms: S_5  and  C_6 
REMARK    3  A    between atoms: C_6  and  C_7 
REMARK       I    between atoms: C_7  and  N_8 
REMARK    4  A    between atoms: N_8  and  C_9 
REMARK    5  A    between atoms: C_10  and  O_11 
REMARK    6  A    between atoms: C_22  and  C_23 
REMARK    7  A    between atoms: C_29  and  C_30 
REMARK       I    between atoms: C_30  and  N_31 
REMARK    8  A    between atoms: N_31  and  C_32 
ROOT
HETATM    1  C   UNL     1      25.582  43.000  48.475  1.00  0.00     0.069 C 
HETATM    2  C   UNL     1      25.793  43.550  49.867  1.00  0.00     0.019 A 
HETATM    3  N   UNL     1      25.498  44.893  50.021  1.00  0.00    -0.353 N 
HETATM    4  C   UNL     1      25.527  45.592  51.214  1.00  0.00     0.088 A 
HETATM    5  C   UNL     1      25.919  44.956  52.343  1.00  0.00     0.069 A 
HETATM    6  C   UNL     1      25.886  45.582  53.628  1.00  0.00     0.099 C 
HETATM    7  N   UNL     1      25.854  46.039  54.695  1.00  0.00    -0.192 NA
HETATM    8  C   UNL     1      26.339  43.481  52.304  1.00  0.00     0.106 A 
HETATM    9  C   UNL     1      26.208  42.819  50.930  1.00  0.00     0.046 A 
HETATM   10  H   UNL     1      24.913  45.318  49.298  1.00  0.00     0.166 HD
ENDROOT
BRANCH   4  11
HETATM   11  S   UNL     1      24.986  47.262  51.273  1.00  0.00    -0.102 SA
BRANCH  11  12
HETATM   12  C   UNL     1      24.038  47.388  49.725  1.00  0.00     0.184 C 
BRANCH  12  13
HETATM   13  C   UNL     1      24.354  48.668  48.962  1.00  0.00     0.231 C 
HETATM   14  N   UNL     1      23.385  49.325  48.262  1.00  0.00    -0.324 N 
HETATM   15  H   UNL     1      23.766  49.902  47.516  1.00  0.00     0.169 HD
HETATM   16  O   UNL     1      25.509  49.095  48.856  1.00  0.00    -0.272 OA
BRANCH  14  17
HETATM   17  C   UNL     1      21.986  49.399  48.382  1.00  0.00     0.070 A 
HETATM   18  C   UNL     1      21.235  48.428  47.679  1.00  0.00     0.095 A 
HETATM   19  C   UNL     1      19.839  48.469  47.711  1.00  0.00     0.041 A 
HETATM   20  C   UNL     1      19.188  49.480  48.419  1.00  0.00     0.026 A 
HETATM   21  C   UNL     1      19.930  50.456  49.078  1.00  0.00     0.036 A 
HETATM   22 CL   UNL     1      19.118  51.727  49.905  1.00  0.00    -0.084 Cl
HETATM   23  C   UNL     1      21.326  50.428  49.055  1.00  0.00     0.056 A 
BRANCH  18  24
HETATM   24  O   UNL     1      21.978  47.491  46.999  1.00  0.00    -0.354 OA
HETATM   25  C   UNL     1      21.303  46.316  46.563  1.00  0.00     0.210 C 
ENDBRANCH  18  24
ENDBRANCH  14  17
ENDBRANCH  12  13
ENDBRANCH  11  12
ENDBRANCH   4  11
BRANCH   8  26
HETATM   26  C   UNL     1      27.727  43.290  52.921  1.00  0.00    -0.044 A 
HETATM   27  C   UNL     1      28.874  43.612  52.173  1.00  0.00     0.008 A 
HETATM   28  C   UNL     1      30.148  43.421  52.709  1.00  0.00     0.001 A 
HETATM   29  C   UNL     1      30.294  42.904  53.993  1.00  0.00     0.000 A 
HETATM   30  C   UNL     1      29.168  42.572  54.742  1.00  0.00     0.001 A 
HETATM   31  C   UNL     1      27.891  42.759  54.209  1.00  0.00     0.008 A 
ENDBRANCH   8  26
BRANCH   9  32
HETATM   32  C   UNL     1      26.572  41.366  50.753  1.00  0.00     0.255 C 
HETATM   33  N   UNL     1      27.858  41.136  50.307  1.00  0.00    -0.323 N 
HETATM   34  H   UNL     1      28.416  41.923  50.019  1.00  0.00     0.169 HD
HETATM   35  O   UNL     1      25.738  40.494  50.980  1.00  0.00    -0.268 OA
BRANCH  33  36
HETATM   36  C   UNL     1      28.500  39.887  50.151  1.00  0.00     0.035 A 
HETATM   37  C   UNL     1      28.475  39.135  48.975  1.00  0.00     0.029 A 
HETATM   38  C   UNL     1      29.107  37.888  48.916  1.00  0.00     0.002 A 
HETATM   39  C   UNL     1      29.774  37.385  50.030  1.00  0.00     0.000 A 
HETATM   40  C   UNL     1      29.808  38.127  51.207  1.00  0.00     0.002 A 
HETATM   41  C   UNL     1      29.170  39.368  51.268  1.00  0.00     0.029 A 
ENDBRANCH  33  36
ENDBRANCH   9  32
TORSDOF 8
ENDMDL
MODEL 9
REMARK VINA RESULT:      -8.7      4.962      9.181
REMARK  8 active torsions:
REMARK  status: ('A' for Active; 'I' for Inactive)
REMARK    1  A    between atoms: C_4  and  S_5 
REMARK    2  A    between atoms: S_5  and  C_6 
REMARK    3  A    between atoms: C_6  and  C_7 
REMARK       I    between atoms: C_7  and  N_8 
REMARK    4  A    between atoms: N_8  and  C_9 
REMARK    5  A    between atoms: C_10  and  O_11 
REMARK    6  A    between atoms: C_22  and  C_23 
REMARK    7  A    between atoms: C_29  and  C_30 
REMARK       I    between atoms: C_30  and  N_31 
REMARK    8  A    between atoms: N_31  and  C_32 
ROOT
HETATM    1  C   UNL     1      28.305  40.927  50.060  1.00  0.00     0.069 C 
HETATM    2  C   UNL     1      27.031  41.722  50.229  1.00  0.00     0.019 A 
HETATM    3  N   UNL     1      26.218  41.778  49.110  1.00  0.00    -0.353 N 
HETATM    4  C   UNL     1      24.969  42.367  49.052  1.00  0.00     0.088 A 
HETATM    5  C   UNL     1      24.482  42.996  50.148  1.00  0.00     0.069 A 
HETATM    6  C   UNL     1      23.163  43.545  50.197  1.00  0.00     0.099 C 
HETATM    7  N   UNL     1      22.093  43.985  50.293  1.00  0.00    -0.192 NA
HETATM    8  C   UNL     1      25.308  43.068  51.439  1.00  0.00     0.106 A 
HETATM    9  C   UNL     1      26.648  42.330  51.378  1.00  0.00     0.046 A 
HETATM   10  H   UNL     1      26.386  41.075  48.388  1.00  0.00     0.166 HD
ENDROOT
BRANCH   4  11
HETATM   11  S   UNL     1      23.994  42.231  47.597  1.00  0.00    -0.102 SA
BRANCH  11  12
HETATM   12  C   UNL     1      24.870  40.911  46.700  1.00  0.00     0.184 C 
BRANCH  12  13
HETATM   13  C   UNL     1      24.231  39.547  46.919  1.00  0.00     0.231 C 
HETATM   14  N   UNL     1      24.986  38.412  46.933  1.00  0.00    -0.324 N 
HETATM   15  H   UNL     1      24.447  37.581  46.702  1.00  0.00     0.169 HD
HETATM   16  O   UNL     1      23.004  39.404  46.980  1.00  0.00    -0.272 OA
BRANCH  14  17
HETATM   17  C   UNL     1      26.334  38.151  47.236  1.00  0.00     0.070 A 
HETATM   18  C   UNL     1      27.223  38.044  46.141  1.00  0.00     0.095 A 
HETATM   19  C   UNL     1      28.567  37.736  46.361  1.00  0.00     0.041 A 
HETATM   20  C   UNL     1      29.027  37.514  47.660  1.00  0.00     0.026 A 
HETATM   21  C   UNL     1      28.141  37.581  48.732  1.00  0.00     0.036 A 
HETATM   22 CL   UNL     1      28.707  37.256  50.324  1.00  0.00    -0.084 Cl
HETATM   23  C   UNL     1      26.795  37.888  48.527  1.00  0.00     0.056 A 
BRANCH  18  24
HETATM   24  O   UNL     1      26.660  38.262  44.905  1.00  0.00    -0.354 OA
HETATM   25  C   UNL     1      27.371  39.105  44.005  1.00  0.00     0.210 C 
ENDBRANCH  18  24
ENDBRANCH  14  17
ENDBRANCH  12  13
ENDBRANCH  11  12
ENDBRANCH   4  11
BRANCH   8  26
HETATM   26  C   UNL     1      25.453  44.515  51.916  1.00  0.00    -0.044 A 
HETATM   27  C   UNL     1      25.861  45.511  51.011  1.00  0.00     0.008 A 
HETATM   28  C   UNL     1      26.024  46.832  51.433  1.00  0.00     0.001 A 
HETATM   29  C   UNL     1      25.785  47.173  52.760  1.00  0.00     0.000 A 
HETATM   30  C   UNL     1      25.389  46.196  53.671  1.00  0.00     0.001 A 
HETATM   31  C   UNL     1      25.229  44.873  53.253  1.00  0.00     0.008 A 
ENDBRANCH   8  26
BRANCH   9  32
HETATM   32  C   UNL     1      27.554  42.307  52.584  1.00  0.00     0.255 C 
HETATM   33  N   UNL     1      28.288  43.458  52.784  1.00  0.00    -0.323 N 
HETATM   34  H   UNL     1      28.271  44.171  52.074  1.00  0.00     0.169 HD
HETATM   35  O   UNL     1      27.613  41.302  53.286  1.00  0.00    -0.268 OA
BRANCH  33  36
HETATM   36  C   UNL     1      29.133  43.756  53.878  1.00  0.00     0.035 A 
HETATM   37  C   UNL     1      30.260  43.008  54.224  1.00  0.00     0.029 A 
HETATM   38  C   UNL     1      31.023  43.351  55.346  1.00  0.00     0.002 A 
HETATM   39  C   UNL     1      30.667  44.447  56.128  1.00  0.00     0.000 A 
HETATM   40  C   UNL     1      29.548  45.201  55.792  1.00  0.00     0.002 A 
HETATM   41  C   UNL     1      28.782  44.854  54.676  1.00  0.00     0.029 A 
ENDBRANCH  33  36
ENDBRANCH   9  32
TORSDOF 8
ENDMDL
MODEL 10
REMARK VINA RESULT:      -8.5      5.383      9.723
REMARK  8 active torsions:
REMARK  status: ('A' for Active; 'I' for Inactive)
REMARK    1  A    between atoms: C_4  and  S_5 
REMARK    2  A    between atoms: S_5  and  C_6 
REMARK    3  A    between atoms: C_6  and  C_7 
REMARK       I    between atoms: C_7  and  N_8 
REMARK    4  A    between atoms: N_8  and  C_9 
REMARK    5  A    between atoms: C_10  and  O_11 
REMARK    6  A    between atoms: C_22  and  C_23 
REMARK    7  A    between atoms: C_29  and  C_30 
REMARK       I    between atoms: C_30  and  N_31 
REMARK    8  A    between atoms: N_31  and  C_32 
ROOT
HETATM    1  C   UNL     1      29.181  40.949  52.469  1.00  0.00     0.069 C 
HETATM    2  C   UNL     1      28.078  41.526  51.612  1.00  0.00     0.019 A 
HETATM    3  N   UNL     1      27.971  40.982  50.343  1.00  0.00    -0.353 N 
HETATM    4  C   UNL     1      26.989  41.284  49.419  1.00  0.00     0.088 A 
HETATM    5  C   UNL     1      26.061  42.222  49.722  1.00  0.00     0.069 A 
HETATM    6  C   UNL     1      24.961  42.522  48.859  1.00  0.00     0.099 C 
HETATM    7  N   UNL     1      24.038  42.782  48.204  1.00  0.00    -0.192 NA
HETATM    8  C   UNL     1      26.101  42.954  51.069  1.00  0.00     0.106 A 
HETATM    9  C   UNL     1      27.208  42.484  52.016  1.00  0.00     0.046 A 
HETATM   10  H   UNL     1      28.428  40.080  50.194  1.00  0.00     0.166 HD
ENDROOT
BRANCH   4  11
HETATM   11  S   UNL     1      26.903  40.403  47.902  1.00  0.00    -0.102 SA
BRANCH  11  12
HETATM   12  C   UNL     1      26.517  38.721  48.484  1.00  0.00     0.184 C 
BRANCH  12  13
HETATM   13  C   UNL     1      27.773  37.919  48.792  1.00  0.00     0.231 C 
HETATM   14  N   UNL     1      28.239  36.982  47.918  1.00  0.00    -0.324 N 
HETATM   15  H   UNL     1      28.813  36.275  48.373  1.00  0.00     0.169 HD
HETATM   16  O   UNL     1      28.351  38.005  49.882  1.00  0.00    -0.272 OA
BRANCH  14  17
HETATM   17  C   UNL     1      28.123  36.813  46.527  1.00  0.00     0.070 A 
HETATM   18  C   UNL     1      27.315  35.742  46.081  1.00  0.00     0.095 A 
HETATM   19  C   UNL     1      27.192  35.482  44.714  1.00  0.00     0.041 A 
HETATM   20  C   UNL     1      27.885  36.267  43.791  1.00  0.00     0.026 A 
HETATM   21  C   UNL     1      28.711  37.296  44.236  1.00  0.00     0.036 A 
HETATM   22 CL   UNL     1      29.601  38.225  43.093  1.00  0.00    -0.084 Cl
HETATM   23  C   UNL     1      28.843  37.567  45.599  1.00  0.00     0.056 A 
BRANCH  18  24
HETATM   24  O   UNL     1      26.694  35.021  47.075  1.00  0.00    -0.354 OA
HETATM   25  C   UNL     1      25.271  34.983  47.062  1.00  0.00     0.210 C 
ENDBRANCH  18  24
ENDBRANCH  14  17
ENDBRANCH  12  13
ENDBRANCH  11  12
ENDBRANCH   4  11
BRANCH   8  26
HETATM   26  C   UNL     1      26.101  44.472  50.869  1.00  0.00    -0.044 A 
HETATM   27  C   UNL     1      26.989  45.054  49.946  1.00  0.00     0.008 A 
HETATM   28  C   UNL     1      27.022  46.438  49.767  1.00  0.00     0.001 A 
HETATM   29  C   UNL     1      26.174  47.256  50.508  1.00  0.00     0.000 A 
HETATM   30  C   UNL     1      25.297  46.695  51.432  1.00  0.00     0.001 A 
HETATM   31  C   UNL     1      25.262  45.311  51.616  1.00  0.00     0.008 A 
ENDBRANCH   8  26
BRANCH   9  32
HETATM   32  C   UNL     1      27.352  43.109  53.381  1.00  0.00     0.255 C 
HETATM   33  N   UNL     1      28.541  43.774  53.597  1.00  0.00    -0.323 N 
HETATM   34  H   UNL     1      29.267  43.702  52.902  1.00  0.00     0.169 HD
HETATM   35  O   UNL     1      26.455  42.981  54.209  1.00  0.00    -0.268 OA
BRANCH  33  36
HETATM   36  C   UNL     1      28.905  44.533  54.733  1.00  0.00     0.035 A 
HETATM   37  C   UNL     1      28.176  45.622  55.213  1.00  0.00     0.029 A 
HETATM   38  C   UNL     1      28.626  46.343  56.325  1.00  0.00     0.002 A 
HETATM   39  C   UNL     1      29.806  45.977  56.968  1.00  0.00     0.000 A 
HETATM   40  C   UNL     1      30.539  44.891  56.500  1.00  0.00     0.002 A 
HETATM   41  C   UNL     1      30.093  44.176  55.385  1.00  0.00     0.029 A 
ENDBRANCH  33  36
ENDBRANCH   9  32
TORSDOF 8
ENDMDL
