MODEL 1
REMARK VINA RESULT:      -8.0      0.000      0.000
REMARK  4 active torsions:
REMARK  status: ('A' for Active; 'I' for Inactive)
REMARK    1  A    between atoms: C_5  and  N_6 
REMARK       I    between atoms: N_6  and  C_7 
REMARK    2  A    between atoms: C_7  and  C_8 
REMARK    3  A    between atoms: C_12  and  O_13 
REMARK    4  A    between atoms: C_19  and  C_20 
ROOT
HETATM    1  C   UNL     1      29.544  42.692  54.742  1.00  0.00     0.015 C 
HETATM    2  C   UNL     1      28.850  42.636  53.367  1.00  0.00    -0.040 C 
HETATM    3  C   UNL     1      29.496  43.709  52.471  1.00  0.00     0.015 C 
HETATM    4  C   UNL     1      27.335  42.876  53.568  1.00  0.00     0.039 C 
HETATM    5  C   UNL     1      26.491  42.734  52.286  1.00  0.00     0.122 C 
HETATM    6  C   UNL     1      26.948  41.601  51.414  1.00  0.00     0.007 A 
HETATM    7  C   UNL     1      28.138  40.922  51.602  1.00  0.00     0.047 A 
HETATM    8  N   UNL     1      28.523  39.898  50.808  1.00  0.00    -0.237 NA
HETATM    9  C   UNL     1      27.717  39.552  49.784  1.00  0.00     0.133 A 
HETATM   10  N   UNL     1      26.541  40.154  49.530  1.00  0.00    -0.244 NA
HETATM   11  C   UNL     1      26.187  41.164  50.347  1.00  0.00     0.130 A 
HETATM   12  C   UNL     1      29.052  41.231  52.760  1.00  0.00     0.069 C 
ENDROOT
BRANCH   5  13
HETATM   13  N   UNL     1      26.454  43.980  51.534  1.00  0.00    -0.347 N 
HETATM   14  C   UNL     1      25.303  44.724  51.431  1.00  0.00     0.270 C 
HETATM   15  O   UNL     1      24.226  44.338  51.872  1.00  0.00    -0.266 OA
HETATM   16  H   UNL     1      27.324  44.369  51.200  1.00  0.00     0.163 HD
BRANCH  14  17
HETATM   17  C   UNL     1      25.445  45.998  50.782  1.00  0.00     0.122 A 
HETATM   18  N   UNL     1      24.439  46.936  50.828  1.00  0.00    -0.270 N 
HETATM   19  H   UNL     1      23.540  46.838  51.291  1.00  0.00     0.189 HD
HETATM   20  N   UNL     1      24.729  48.084  50.185  1.00  0.00    -0.149 NA
HETATM   21  C   UNL     1      25.946  47.846  49.726  1.00  0.00     0.183 A 
HETATM   22  C   UNL     1      26.457  46.588  50.045  1.00  0.00     0.096 A 
BRANCH  21  23
HETATM   23  O   UNL     1      26.502  48.835  49.037  1.00  0.00    -0.344 OA
HETATM   24  H   UNL     1      27.446  48.799  49.273  1.00  0.00     0.219 HD
ENDBRANCH  21  23
ENDBRANCH  14  17
ENDBRANCH   5  13
BRANCH   9  25
HETATM   25  C   UNL     1      28.107  38.343  48.937  1.00  0.00     0.011 C 
HETATM   26  C   UNL     1      29.619  38.109  49.093  1.00  0.00     0.023 C 
HETATM   27  C   UNL     1      27.346  37.084  49.395  1.00  0.00     0.023 C 
HETATM   28  C   UNL     1      27.783  38.578  47.449  1.00  0.00     0.023 C 
ENDBRANCH   9  25
TORSDOF 4
ENDMDL
MODEL 2
REMARK VINA RESULT:      -7.6      4.388      7.628
REMARK  4 active torsions:
REMARK  status: ('A' for Active; 'I' for Inactive)
REMARK    1  A    between atoms: C_5  and  N_6 
REMARK       I    between atoms: N_6  and  C_7 
REMARK    2  A    between atoms: C_7  and  C_8 
REMARK    3  A    between atoms: C_12  and  O_13 
REMARK    4  A    between atoms: C_19  and  C_20 
ROOT
HETATM    1  C   UNL     1      21.932  43.861  47.277  1.00  0.00     0.015 C 
HETATM    2  C   UNL     1      22.238  44.880  48.392  1.00  0.00    -0.040 C 
HETATM    3  C   UNL     1      20.958  45.056  49.230  1.00  0.00     0.015 C 
HETATM    4  C   UNL     1      22.697  46.205  47.739  1.00  0.00     0.039 C 
HETATM    5  C   UNL     1      23.149  47.287  48.739  1.00  0.00     0.122 C 
HETATM    6  C   UNL     1      23.932  46.722  49.888  1.00  0.00     0.007 A 
HETATM    7  C   UNL     1      24.025  45.370  50.161  1.00  0.00     0.047 A 
HETATM    8  N   UNL     1      24.744  44.886  51.198  1.00  0.00    -0.237 NA
HETATM    9  C   UNL     1      25.371  45.767  52.001  1.00  0.00     0.133 A 
HETATM   10  N   UNL     1      25.341  47.098  51.808  1.00  0.00    -0.244 NA
HETATM   11  C   UNL     1      24.620  47.543  50.761  1.00  0.00     0.130 A 
HETATM   12  C   UNL     1      23.387  44.337  49.268  1.00  0.00     0.069 C 
ENDROOT
BRANCH   5  13
HETATM   13  N   UNL     1      22.020  48.069  49.220  1.00  0.00    -0.347 N 
HETATM   14  C   UNL     1      22.016  49.442  49.152  1.00  0.00     0.270 C 
HETATM   15  O   UNL     1      22.991  50.088  48.783  1.00  0.00    -0.266 OA
HETATM   16  H   UNL     1      21.172  47.587  49.481  1.00  0.00     0.163 HD
BRANCH  14  17
HETATM   17  C   UNL     1      20.783  50.077  49.530  1.00  0.00     0.122 A 
HETATM   18  N   UNL     1      19.874  49.440  50.343  1.00  0.00    -0.270 N 
HETATM   19  H   UNL     1      19.963  48.508  50.738  1.00  0.00     0.189 HD
HETATM   20  N   UNL     1      18.776  50.171  50.619  1.00  0.00    -0.149 NA
HETATM   21  C   UNL     1      19.014  51.290  49.954  1.00  0.00     0.183 A 
HETATM   22  C   UNL     1      20.221  51.312  49.257  1.00  0.00     0.096 A 
BRANCH  21  23
HETATM   23  O   UNL     1      18.075  52.223  50.049  1.00  0.00    -0.344 OA
HETATM   24  H   UNL     1      18.116  52.701  49.203  1.00  0.00     0.219 HD
ENDBRANCH  21  23
ENDBRANCH  14  17
ENDBRANCH   5  13
BRANCH   9  25
HETATM   25  C   UNL     1      26.253  45.221  53.122  1.00  0.00     0.011 C 
HETATM   26  C   UNL     1      25.377  44.373  54.058  1.00  0.00     0.023 C 
HETATM   27  C   UNL     1      27.385  44.345  52.551  1.00  0.00     0.023 C 
HETATM   28  C   UNL     1      26.899  46.364  53.930  1.00  0.00     0.023 C 
ENDBRANCH   9  25
TORSDOF 4
ENDMDL
MODEL 3
REMARK VINA RESULT:      -7.4      3.758      6.463
REMARK  4 active torsions:
REMARK  status: ('A' for Active; 'I' for Inactive)
REMARK    1  A    between atoms: C_5  and  N_6 
REMARK       I    between atoms: N_6  and  C_7 
REMARK    2  A    between atoms: C_7  and  C_8 
REMARK    3  A    between atoms: C_12  and  O_13 
REMARK    4  A    between atoms: C_19  and  C_20 
ROOT
HETATM    1  C   UNL     1      23.046  42.437  48.354  1.00  0.00     0.015 C 
HETATM    2  C   UNL     1      23.367  43.619  49.289  1.00  0.00    -0.040 C 
HETATM    3  C   UNL     1      22.058  44.034  49.986  1.00  0.00     0.015 C 
HETATM    4  C   UNL     1      23.970  44.767  48.446  1.00  0.00     0.039 C 
HETATM    5  C   UNL     1      24.448  45.980  49.269  1.00  0.00     0.122 C 
HETATM    6  C   UNL     1      25.112  45.582  50.554  1.00  0.00     0.007 A 
HETATM    7  C   UNL     1      25.079  44.300  51.070  1.00  0.00     0.047 A 
HETATM    8  N   UNL     1      25.693  43.965  52.226  1.00  0.00    -0.237 NA
HETATM    9  C   UNL     1      26.341  44.933  52.903  1.00  0.00     0.133 A 
HETATM   10  N   UNL     1      26.430  46.205  52.474  1.00  0.00    -0.244 NA
HETATM   11  C   UNL     1      25.812  46.500  51.315  1.00  0.00     0.130 A 
HETATM   12  C   UNL     1      24.413  43.167  50.330  1.00  0.00     0.069 C 
ENDROOT
BRANCH   5  13
HETATM   13  N   UNL     1      23.360  46.913  49.519  1.00  0.00    -0.347 N 
HETATM   14  C   UNL     1      23.459  48.242  49.180  1.00  0.00     0.270 C 
HETATM   15  O   UNL     1      24.495  48.737  48.747  1.00  0.00    -0.266 OA
HETATM   16  H   UNL     1      22.468  46.548  49.821  1.00  0.00     0.163 HD
BRANCH  14  17
HETATM   17  C   UNL     1      22.262  49.017  49.352  1.00  0.00     0.122 A 
HETATM   18  N   UNL     1      21.039  48.409  49.519  1.00  0.00    -0.270 N 
HETATM   19  H   UNL     1      20.855  47.409  49.535  1.00  0.00     0.189 HD
HETATM   20  N   UNL     1      20.015  49.270  49.684  1.00  0.00    -0.149 NA
HETATM   21  C   UNL     1      20.624  50.442  49.611  1.00  0.00     0.183 A 
HETATM   22  C   UNL     1      22.001  50.375  49.405  1.00  0.00     0.096 A 
BRANCH  21  23
HETATM   23  O   UNL     1      19.840  51.504  49.747  1.00  0.00    -0.344 OA
HETATM   24  H   UNL     1      19.480  51.430  50.649  1.00  0.00     0.219 HD
ENDBRANCH  21  23
ENDBRANCH  14  17
ENDBRANCH   5  13
BRANCH   9  25
HETATM   25  C   UNL     1      27.107  44.541  54.164  1.00  0.00     0.011 C 
HETATM   26  C   UNL     1      26.214  43.614  55.005  1.00  0.00     0.023 C 
HETATM   27  C   UNL     1      28.412  43.805  53.807  1.00  0.00     0.023 C 
HETATM   28  C   UNL     1      27.476  45.783  55.000  1.00  0.00     0.023 C 
ENDBRANCH   9  25
TORSDOF 4
ENDMDL
MODEL 4
REMARK VINA RESULT:      -7.3      9.700     14.804
REMARK  4 active torsions:
REMARK  status: ('A' for Active; 'I' for Inactive)
REMARK    1  A    between atoms: C_5  and  N_6 
REMARK       I    between atoms: N_6  and  C_7 
REMARK    2  A    between atoms: C_7  and  C_8 
REMARK    3  A    between atoms: C_12  and  O_13 
REMARK    4  A    between atoms: C_19  and  C_20 
ROOT
HETATM    1  C   UNL     1      15.852  49.194  44.961  1.00  0.00     0.015 C 
HETATM    2  C   UNL     1      16.466  50.090  46.053  1.00  0.00    -0.040 C 
HETATM    3  C   UNL     1      17.671  50.825  45.435  1.00  0.00     0.015 C 
HETATM    4  C   UNL     1      16.875  49.200  47.250  1.00  0.00     0.039 C 
HETATM    5  C   UNL     1      17.403  49.977  48.473  1.00  0.00     0.122 C 
HETATM    6  C   UNL     1      16.642  51.247  48.724  1.00  0.00     0.007 A 
HETATM    7  C   UNL     1      15.742  51.792  47.826  1.00  0.00     0.047 A 
HETATM    8  N   UNL     1      15.063  52.932  48.080  1.00  0.00    -0.237 NA
HETATM    9  C   UNL     1      15.298  53.563  49.247  1.00  0.00     0.133 A 
HETATM   10  N   UNL     1      16.151  53.103  50.181  1.00  0.00    -0.244 NA
HETATM   11  C   UNL     1      16.804  51.961  49.896  1.00  0.00     0.130 A 
HETATM   12  C   UNL     1      15.402  51.102  46.530  1.00  0.00     0.069 C 
ENDROOT
BRANCH   5  13
HETATM   13  N   UNL     1      18.828  50.246  48.356  1.00  0.00    -0.347 N 
HETATM   14  C   UNL     1      19.748  49.612  49.158  1.00  0.00     0.270 C 
HETATM   15  O   UNL     1      19.420  48.870  50.078  1.00  0.00    -0.266 OA
HETATM   16  H   UNL     1      19.154  50.805  47.580  1.00  0.00     0.163 HD
BRANCH  14  17
HETATM   17  C   UNL     1      21.126  49.864  48.839  1.00  0.00     0.122 A 
HETATM   18  N   UNL     1      22.068  50.020  49.830  1.00  0.00    -0.270 N 
HETATM   19  H   UNL     1      21.906  49.982  50.832  1.00  0.00     0.189 HD
HETATM   20  N   UNL     1      23.317  50.235  49.371  1.00  0.00    -0.149 NA
HETATM   21  C   UNL     1      23.139  50.215  48.061  1.00  0.00     0.183 A 
HETATM   22  C   UNL     1      21.824  49.997  47.652  1.00  0.00     0.096 A 
BRANCH  21  23
HETATM   23  O   UNL     1      24.232  50.401  47.331  1.00  0.00    -0.344 OA
HETATM   24  H   UNL     1      24.110  51.276  46.923  1.00  0.00     0.219 HD
ENDBRANCH  21  23
ENDBRANCH  14  17
ENDBRANCH   5  13
BRANCH   9  25
HETATM   25  C   UNL     1      14.471  54.805  49.574  1.00  0.00     0.011 C 
HETATM   26  C   UNL     1      13.309  54.386  50.489  1.00  0.00     0.023 C 
HETATM   27  C   UNL     1      15.331  55.862  50.293  1.00  0.00     0.023 C 
HETATM   28  C   UNL     1      13.901  55.447  48.294  1.00  0.00     0.023 C 
ENDBRANCH   9  25
TORSDOF 4
ENDMDL
MODEL 5
REMARK VINA RESULT:      -7.3     11.999     14.542
REMARK  4 active torsions:
REMARK  status: ('A' for Active; 'I' for Inactive)
REMARK    1  A    between atoms: C_5  and  N_6 
REMARK       I    between atoms: N_6  and  C_7 
REMARK    2  A    between atoms: C_7  and  C_8 
REMARK    3  A    between atoms: C_12  and  O_13 
REMARK    4  A    between atoms: C_19  and  C_20 
ROOT
HETATM    1  C   UNL     1      28.780  53.067  38.283  1.00  0.00     0.015 C 
HETATM    2  C   UNL     1      29.391  51.796  38.905  1.00  0.00    -0.040 C 
HETATM    3  C   UNL     1      29.598  52.062  40.408  1.00  0.00     0.015 C 
HETATM    4  C   UNL     1      30.718  51.478  38.178  1.00  0.00     0.039 C 
HETATM    5  C   UNL     1      31.388  50.162  38.619  1.00  0.00     0.122 C 
HETATM    6  C   UNL     1      30.398  49.060  38.859  1.00  0.00     0.007 A 
HETATM    7  C   UNL     1      29.031  49.260  38.927  1.00  0.00     0.047 A 
HETATM    8  N   UNL     1      28.159  48.249  39.135  1.00  0.00    -0.237 NA
HETATM    9  C   UNL     1      28.655  47.007  39.303  1.00  0.00     0.133 A 
HETATM   10  N   UNL     1      29.969  46.720  39.247  1.00  0.00    -0.244 NA
HETATM   11  C   UNL     1      30.807  47.752  39.031  1.00  0.00     0.130 A 
HETATM   12  C   UNL     1      28.417  50.617  38.695  1.00  0.00     0.069 C 
ENDROOT
BRANCH   5  13
HETATM   13  N   UNL     1      32.230  50.361  39.789  1.00  0.00    -0.347 N 
HETATM   14  C   UNL     1      33.352  51.154  39.742  1.00  0.00     0.270 C 
HETATM   15  O   UNL     1      33.764  51.653  38.699  1.00  0.00    -0.266 OA
HETATM   16  H   UNL     1      31.906  50.019  40.683  1.00  0.00     0.163 HD
BRANCH  14  17
HETATM   17  C   UNL     1      34.007  51.377  41.001  1.00  0.00     0.122 A 
HETATM   18  N   UNL     1      33.310  51.834  42.095  1.00  0.00    -0.270 N 
HETATM   19  H   UNL     1      32.319  52.057  42.133  1.00  0.00     0.189 HD
HETATM   20  N   UNL     1      34.061  51.978  43.205  1.00  0.00    -0.149 NA
HETATM   21  C   UNL     1      35.256  51.602  42.781  1.00  0.00     0.183 A 
HETATM   22  C   UNL     1      35.309  51.221  41.441  1.00  0.00     0.096 A 
BRANCH  21  23
HETATM   23  O   UNL     1      36.223  51.637  43.690  1.00  0.00    -0.344 OA
HETATM   24  H   UNL     1      36.882  52.253  43.323  1.00  0.00     0.219 HD
ENDBRANCH  21  23
ENDBRANCH  14  17
ENDBRANCH   5  13
BRANCH   9  25
HETATM   25  C   UNL     1      27.670  45.851  39.454  1.00  0.00     0.011 C 
HETATM   26  C   UNL     1      26.588  45.991  38.370  1.00  0.00     0.023 C 
HETATM   27  C   UNL     1      28.385  44.496  39.288  1.00  0.00     0.023 C 
HETATM   28  C   UNL     1      27.000  45.868  40.842  1.00  0.00     0.023 C 
ENDBRANCH   9  25
TORSDOF 4
ENDMDL
MODEL 6
REMARK VINA RESULT:      -7.0     12.244     14.967
REMARK  4 active torsions:
REMARK  status: ('A' for Active; 'I' for Inactive)
REMARK    1  A    between atoms: C_5  and  N_6 
REMARK       I    between atoms: N_6  and  C_7 
REMARK    2  A    between atoms: C_7  and  C_8 
REMARK    3  A    between atoms: C_12  and  O_13 
REMARK    4  A    between atoms: C_19  and  C_20 
ROOT
HETATM    1  C   UNL     1      29.202  53.511  39.826  1.00  0.00     0.015 C 
HETATM    2  C   UNL     1      30.217  52.364  39.996  1.00  0.00    -0.040 C 
HETATM    3  C   UNL     1      30.358  51.658  38.635  1.00  0.00     0.015 C 
HETATM    4  C   UNL     1      29.704  51.410  41.100  1.00  0.00     0.039 C 
HETATM    5  C   UNL     1      30.678  50.270  41.461  1.00  0.00     0.122 C 
HETATM    6  C   UNL     1      32.110  50.717  41.480  1.00  0.00     0.007 A 
HETATM    7  C   UNL     1      32.540  51.935  40.986  1.00  0.00     0.047 A 
HETATM    8  N   UNL     1      33.836  52.318  41.023  1.00  0.00    -0.237 NA
HETATM    9  C   UNL     1      34.736  51.460  41.543  1.00  0.00     0.133 A 
HETATM   10  N   UNL     1      34.407  50.258  42.050  1.00  0.00    -0.244 NA
HETATM   11  C   UNL     1      33.106  49.914  42.003  1.00  0.00     0.130 A 
HETATM   12  C   UNL     1      31.572  52.954  40.441  1.00  0.00     0.069 C 
ENDROOT
BRANCH   5  13
HETATM   13  N   UNL     1      30.506  49.127  40.578  1.00  0.00    -0.347 N 
HETATM   14  C   UNL     1      29.587  48.141  40.848  1.00  0.00     0.270 C 
HETATM   15  O   UNL     1      28.937  48.112  41.887  1.00  0.00    -0.266 OA
HETATM   16  H   UNL     1      30.976  49.131  39.683  1.00  0.00     0.163 HD
BRANCH  14  17
HETATM   17  C   UNL     1      29.424  47.148  39.822  1.00  0.00     0.122 A 
HETATM   18  N   UNL     1      28.624  46.046  40.019  1.00  0.00    -0.270 N 
HETATM   19  H   UNL     1      28.097  45.821  40.859  1.00  0.00     0.189 HD
HETATM   20  N   UNL     1      28.561  45.216  38.959  1.00  0.00    -0.149 NA
HETATM   21  C   UNL     1      29.348  45.821  38.086  1.00  0.00     0.183 A 
HETATM   22  C   UNL     1      29.919  47.011  38.537  1.00  0.00     0.096 A 
BRANCH  21  23
HETATM   23  O   UNL     1      29.474  45.214  36.912  1.00  0.00    -0.344 OA
HETATM   24  H   UNL     1      28.712  44.611  36.863  1.00  0.00     0.219 HD
ENDBRANCH  21  23
ENDBRANCH  14  17
ENDBRANCH   5  13
BRANCH   9  25
HETATM   25  C   UNL     1      36.186  51.922  41.663  1.00  0.00     0.011 C 
HETATM   26  C   UNL     1      36.417  52.424  43.098  1.00  0.00     0.023 C 
HETATM   27  C   UNL     1      37.157  50.764  41.365  1.00  0.00     0.023 C 
HETATM   28  C   UNL     1      36.491  53.063  40.673  1.00  0.00     0.023 C 
ENDBRANCH   9  25
TORSDOF 4
ENDMDL
MODEL 7
REMARK VINA RESULT:      -6.9      9.078     13.109
REMARK  4 active torsions:
REMARK  status: ('A' for Active; 'I' for Inactive)
REMARK    1  A    between atoms: C_5  and  N_6 
REMARK       I    between atoms: N_6  and  C_7 
REMARK    2  A    between atoms: C_7  and  C_8 
REMARK    3  A    between atoms: C_12  and  O_13 
REMARK    4  A    between atoms: C_19  and  C_20 
ROOT
HETATM    1  C   UNL     1      17.152  45.974  48.445  1.00  0.00     0.015 C 
HETATM    2  C   UNL     1      17.694  47.372  48.091  1.00  0.00    -0.040 C 
HETATM    3  C   UNL     1      18.812  47.191  47.048  1.00  0.00     0.015 C 
HETATM    4  C   UNL     1      18.205  48.046  49.386  1.00  0.00     0.039 C 
HETATM    5  C   UNL     1      18.674  49.504  49.205  1.00  0.00     0.122 C 
HETATM    6  C   UNL     1      17.799  50.281  48.265  1.00  0.00     0.007 A 
HETATM    7  C   UNL     1      16.837  49.702  47.457  1.00  0.00     0.047 A 
HETATM    8  N   UNL     1      16.056  50.425  46.625  1.00  0.00    -0.237 NA
HETATM    9  C   UNL     1      16.247  51.758  46.575  1.00  0.00     0.133 A 
HETATM   10  N   UNL     1      17.154  52.406  47.328  1.00  0.00    -0.244 NA
HETATM   11  C   UNL     1      17.910  51.653  48.150  1.00  0.00     0.130 A 
HETATM   12  C   UNL     1      16.545  48.224  47.510  1.00  0.00     0.069 C 
ENDROOT
BRANCH   5  13
HETATM   13  N   UNL     1      20.065  49.564  48.782  1.00  0.00    -0.347 N 
HETATM   14  C   UNL     1      21.010  50.242  49.514  1.00  0.00     0.270 C 
HETATM   15  O   UNL     1      20.724  50.914  50.500  1.00  0.00    -0.266 OA
HETATM   16  H   UNL     1      20.363  48.984  48.011  1.00  0.00     0.163 HD
BRANCH  14  17
HETATM   17  C   UNL     1      22.366  50.100  49.059  1.00  0.00     0.122 A 
HETATM   18  N   UNL     1      23.222  49.196  49.643  1.00  0.00    -0.270 N 
HETATM   19  H   UNL     1      23.009  48.570  50.415  1.00  0.00     0.189 HD
HETATM   20  N   UNL     1      24.453  49.171  49.095  1.00  0.00    -0.149 NA
HETATM   21  C   UNL     1      24.354  50.089  48.149  1.00  0.00     0.183 A 
HETATM   22  C   UNL     1      23.107  50.709  48.062  1.00  0.00     0.096 A 
BRANCH  21  23
HETATM   23  O   UNL     1      25.447  50.283  47.421  1.00  0.00    -0.344 OA
HETATM   24  H   UNL     1      26.092  49.644  47.772  1.00  0.00     0.219 HD
ENDBRANCH  21  23
ENDBRANCH  14  17
ENDBRANCH   5  13
BRANCH   9  25
HETATM   25  C   UNL     1      15.310  52.588  45.701  1.00  0.00     0.011 C 
HETATM   26  C   UNL     1      16.161  53.380  44.694  1.00  0.00     0.023 C 
HETATM   27  C   UNL     1      14.327  51.681  44.935  1.00  0.00     0.023 C 
HETATM   28  C   UNL     1      14.483  53.574  46.550  1.00  0.00     0.023 C 
ENDBRANCH   9  25
TORSDOF 4
ENDMDL
MODEL 8
REMARK VINA RESULT:      -6.9      5.511      8.705
REMARK  4 active torsions:
REMARK  status: ('A' for Active; 'I' for Inactive)
REMARK    1  A    between atoms: C_5  and  N_6 
REMARK       I    between atoms: N_6  and  C_7 
REMARK    2  A    between atoms: C_7  and  C_8 
REMARK    3  A    between atoms: C_12  and  O_13 
REMARK    4  A    between atoms: C_19  and  C_20 
ROOT
HETATM    1  C   UNL     1      19.689  44.579  46.029  1.00  0.00     0.015 C 
HETATM    2  C   UNL     1      20.314  45.464  47.125  1.00  0.00    -0.040 C 
HETATM    3  C   UNL     1      19.255  45.662  48.227  1.00  0.00     0.015 C 
HETATM    4  C   UNL     1      20.754  46.803  46.489  1.00  0.00     0.039 C 
HETATM    5  C   UNL     1      21.504  47.749  47.447  1.00  0.00     0.122 C 
HETATM    6  C   UNL     1      22.447  47.021  48.359  1.00  0.00     0.007 A 
HETATM    7  C   UNL     1      22.464  45.646  48.506  1.00  0.00     0.047 A 
HETATM    8  N   UNL     1      23.330  45.014  49.328  1.00  0.00    -0.237 NA
HETATM    9  C   UNL     1      24.191  45.765  50.042  1.00  0.00     0.133 A 
HETATM   10  N   UNL     1      24.249  47.107  49.958  1.00  0.00    -0.244 NA
HETATM   11  C   UNL     1      23.375  47.702  49.124  1.00  0.00     0.130 A 
HETATM   12  C   UNL     1      21.560  44.753  47.695  1.00  0.00     0.069 C 
ENDROOT
BRANCH   5  13
HETATM   13  N   UNL     1      20.578  48.570  48.213  1.00  0.00    -0.347 N 
HETATM   14  C   UNL     1      20.638  49.943  48.181  1.00  0.00     0.270 C 
HETATM   15  O   UNL     1      21.528  50.551  47.595  1.00  0.00    -0.266 OA
HETATM   16  H   UNL     1      19.794  48.122  48.667  1.00  0.00     0.163 HD
BRANCH  14  17
HETATM   17  C   UNL     1      19.578  50.626  48.869  1.00  0.00     0.122 A 
HETATM   18  N   UNL     1      18.695  49.943  49.673  1.00  0.00    -0.270 N 
HETATM   19  H   UNL     1      18.690  48.943  49.855  1.00  0.00     0.189 HD
HETATM   20  N   UNL     1      17.768  50.725  50.261  1.00  0.00    -0.149 NA
HETATM   21  C   UNL     1      18.086  51.924  49.803  1.00  0.00     0.183 A 
HETATM   22  C   UNL     1      19.182  51.950  48.940  1.00  0.00     0.096 A 
BRANCH  21  23
HETATM   23  O   UNL     1      17.323  52.923  50.231  1.00  0.00    -0.344 OA
HETATM   24  H   UNL     1      17.154  53.460  49.437  1.00  0.00     0.219 HD
ENDBRANCH  21  23
ENDBRANCH  14  17
ENDBRANCH   5  13
BRANCH   9  25
HETATM   25  C   UNL     1      25.226  45.051  50.906  1.00  0.00     0.011 C 
HETATM   26  C   UNL     1      25.345  45.803  52.242  1.00  0.00     0.023 C 
HETATM   27  C   UNL     1      24.803  43.594  51.178  1.00  0.00     0.023 C 
HETATM   28  C   UNL     1      26.604  45.024  50.217  1.00  0.00     0.023 C 
ENDBRANCH   9  25
TORSDOF 4
ENDMDL
MODEL 9
REMARK VINA RESULT:      -6.8     11.210     13.439
REMARK  4 active torsions:
REMARK  status: ('A' for Active; 'I' for Inactive)
REMARK    1  A    between atoms: C_5  and  N_6 
REMARK       I    between atoms: N_6  and  C_7 
REMARK    2  A    between atoms: C_7  and  C_8 
REMARK    3  A    between atoms: C_12  and  O_13 
REMARK    4  A    between atoms: C_19  and  C_20 
ROOT
HETATM    1  C   UNL     1      27.407  51.523  38.093  1.00  0.00     0.015 C 
HETATM    2  C   UNL     1      28.148  50.435  38.895  1.00  0.00    -0.040 C 
HETATM    3  C   UNL     1      27.966  50.749  40.391  1.00  0.00     0.015 C 
HETATM    4  C   UNL     1      29.635  50.437  38.473  1.00  0.00     0.039 C 
HETATM    5  C   UNL     1      30.482  49.318  39.111  1.00  0.00     0.122 C 
HETATM    6  C   UNL     1      29.744  48.014  39.203  1.00  0.00     0.007 A 
HETATM    7  C   UNL     1      28.385  47.885  38.979  1.00  0.00     0.047 A 
HETATM    8  N   UNL     1      27.745  46.698  39.059  1.00  0.00    -0.237 NA
HETATM    9  C   UNL     1      28.467  45.610  39.392  1.00  0.00     0.133 A 
HETATM   10  N   UNL     1      29.793  45.641  39.621  1.00  0.00    -0.244 NA
HETATM   11  C   UNL     1      30.397  46.841  39.525  1.00  0.00     0.130 A 
HETATM   12  C   UNL     1      27.539  49.058  38.554  1.00  0.00     0.069 C 
ENDROOT
BRANCH   5  13
HETATM   13  N   UNL     1      30.989  49.715  40.416  1.00  0.00    -0.347 N 
HETATM   14  C   UNL     1      32.101  50.512  40.543  1.00  0.00     0.270 C 
HETATM   15  O   UNL     1      32.787  50.847  39.583  1.00  0.00    -0.266 OA
HETATM   16  H   UNL     1      30.431  49.514  41.234  1.00  0.00     0.163 HD
BRANCH  14  17
HETATM   17  C   UNL     1      32.406  50.943  41.880  1.00  0.00     0.122 A 
HETATM   18  N   UNL     1      33.557  51.644  42.157  1.00  0.00    -0.270 N 
HETATM   19  H   UNL     1      34.277  51.914  41.492  1.00  0.00     0.189 HD
HETATM   20  N   UNL     1      33.691  51.990  43.452  1.00  0.00    -0.149 NA
HETATM   21  C   UNL     1      32.594  51.485  43.990  1.00  0.00     0.183 A 
HETATM   22  C   UNL     1      31.754  50.824  43.094  1.00  0.00     0.096 A 
BRANCH  21  23
HETATM   23  O   UNL     1      32.451  51.683  45.295  1.00  0.00    -0.344 OA
HETATM   24  H   UNL     1      33.298  51.398  45.680  1.00  0.00     0.219 HD
ENDBRANCH  21  23
ENDBRANCH  14  17
ENDBRANCH   5  13
BRANCH   9  25
HETATM   25  C   UNL     1      27.765  44.254  39.401  1.00  0.00     0.011 C 
HETATM   26  C   UNL     1      27.437  43.887  40.857  1.00  0.00     0.023 C 
HETATM   27  C   UNL     1      26.461  44.307  38.582  1.00  0.00     0.023 C 
HETATM   28  C   UNL     1      28.663  43.158  38.793  1.00  0.00     0.023 C 
ENDBRANCH   9  25
TORSDOF 4
ENDMDL
MODEL 10
REMARK VINA RESULT:      -6.7     13.214     16.027
REMARK  4 active torsions:
REMARK  status: ('A' for Active; 'I' for Inactive)
REMARK    1  A    between atoms: C_5  and  N_6 
REMARK       I    between atoms: N_6  and  C_7 
REMARK    2  A    between atoms: C_7  and  C_8 
REMARK    3  A    between atoms: C_12  and  O_13 
REMARK    4  A    between atoms: C_19  and  C_20 
ROOT
HETATM    1  C   UNL     1      37.373  51.232  39.068  1.00  0.00     0.015 C 
HETATM    2  C   UNL     1      36.427  51.724  40.180  1.00  0.00    -0.040 C 
HETATM    3  C   UNL     1      36.532  53.260  40.239  1.00  0.00     0.015 C 
HETATM    4  C   UNL     1      36.841  51.058  41.513  1.00  0.00     0.039 C 
HETATM    5  C   UNL     1      35.908  51.369  42.700  1.00  0.00     0.122 C 
HETATM    6  C   UNL     1      34.460  51.394  42.307  1.00  0.00     0.007 A 
HETATM    7  C   UNL     1      34.021  51.391  40.995  1.00  0.00     0.047 A 
HETATM    8  N   UNL     1      32.710  51.404  40.667  1.00  0.00    -0.237 NA
HETATM    9  C   UNL     1      31.807  51.444  41.667  1.00  0.00     0.133 A 
HETATM   10  N   UNL     1      32.142  51.443  42.970  1.00  0.00    -0.244 NA
HETATM   11  C   UNL     1      33.458  51.423  43.258  1.00  0.00     0.130 A 
HETATM   12  C   UNL     1      34.984  51.295  39.839  1.00  0.00     0.069 C 
ENDROOT
BRANCH   5  13
HETATM   13  N   UNL     1      36.283  52.612  43.358  1.00  0.00    -0.347 N 
HETATM   14  C   UNL     1      37.252  52.645  44.332  1.00  0.00     0.270 C 
HETATM   15  O   UNL     1      37.778  51.629  44.775  1.00  0.00    -0.266 OA
HETATM   16  H   UNL     1      35.922  53.482  42.993  1.00  0.00     0.163 HD
BRANCH  14  17
HETATM   17  C   UNL     1      37.622  53.954  44.794  1.00  0.00     0.122 A 
HETATM   18  N   UNL     1      37.760  54.223  46.136  1.00  0.00    -0.270 N 
HETATM   19  H   UNL     1      37.621  53.571  46.903  1.00  0.00     0.189 HD
HETATM   20  N   UNL     1      38.127  55.491  46.408  1.00  0.00    -0.149 NA
HETATM   21  C   UNL     1      38.212  56.021  45.199  1.00  0.00     0.183 A 
HETATM   22  C   UNL     1      37.916  55.146  44.154  1.00  0.00     0.096 A 
BRANCH  21  23
HETATM   23  O   UNL     1      38.570  57.298  45.157  1.00  0.00    -0.344 OA
HETATM   24  H   UNL     1      38.684  57.490  44.209  1.00  0.00     0.219 HD
ENDBRANCH  21  23
ENDBRANCH  14  17
ENDBRANCH   5  13
BRANCH   9  25
HETATM   25  C   UNL     1      30.326  51.373  41.303  1.00  0.00     0.011 C 
HETATM   26  C   UNL     1      30.195  51.496  39.776  1.00  0.00     0.023 C 
HETATM   27  C   UNL     1      29.712  50.036  41.761  1.00  0.00     0.023 C 
HETATM   28  C   UNL     1      29.533  52.513  41.972  1.00  0.00     0.023 C 
ENDBRANCH   9  25
TORSDOF 4
ENDMDL
