MODEL 1
REMARK VINA RESULT:      -8.2      0.000      0.000
REMARK  7 active torsions:
REMARK  status: ('A' for Active; 'I' for Inactive)
REMARK    1  A    between atoms: C_8  and  C_9 
REMARK    2  A    between atoms: C_9  and  C_10 
REMARK    3  A    between atoms: C_10  and  C_11 
REMARK       I    between atoms: C_11  and  N_12 
REMARK    4  A    between atoms: N_12  and  C_13 
REMARK    5  A    between atoms: C_13  and  C_14 
REMARK    6  A    between atoms: C_14  and  N_15 
REMARK    7  A    between atoms: C_14  and  C_19 
ROOT
HETATM    1  C   UNL     1      26.689  47.465  54.220  1.00  0.00     0.217 C 
HETATM    2  N   UNL     1      26.631  46.895  52.974  1.00  0.00    -0.359 N 
HETATM    3  O   UNL     1      25.706  48.007  54.722  1.00  0.00    -0.274 OA
HETATM    4  H   UNL     1      27.506  46.564  52.573  1.00  0.00     0.162 HD
ENDROOT
BRANCH   2   5
HETATM    5  C   UNL     1      25.500  47.061  52.058  1.00  0.00     0.160 C 
BRANCH   5   6
HETATM    6  C   UNL     1      25.803  46.850  50.528  1.00  0.00     0.239 C 
BRANCH   6   7
HETATM    7  N   UNL     1      25.365  45.455  50.059  1.00  0.00    -0.069 N 
HETATM    8  H   UNL     1      24.835  45.634  49.180  1.00  0.00     0.279 HD
HETATM    9  C   UNL     1      26.443  44.504  49.646  1.00  0.00     0.270 C 
HETATM   10  C   UNL     1      24.370  44.801  50.968  1.00  0.00     0.270 C 
ENDBRANCH   6   7
BRANCH   6  11
HETATM   11  C   UNL     1      25.265  47.985  49.665  1.00  0.00    -0.004 A 
HETATM   12  C   UNL     1      26.117  48.894  49.007  1.00  0.00     0.042 A 
HETATM   13 CL   UNL     1      27.838  48.812  49.141  1.00  0.00    -0.084 Cl
HETATM   14  C   UNL     1      25.598  49.919  48.208  1.00  0.00     0.024 A 
HETATM   15  C   UNL     1      24.222  50.060  48.052  1.00  0.00     0.002 A 
HETATM   16  C   UNL     1      23.360  49.180  48.696  1.00  0.00     0.001 A 
HETATM   17  C   UNL     1      23.874  48.156  49.496  1.00  0.00     0.011 A 
ENDBRANCH   6  11
ENDBRANCH   5   6
ENDBRANCH   2   5
BRANCH   1  18
HETATM   18  C   UNL     1      28.027  47.394  54.911  1.00  0.00     0.107 C 
BRANCH  18  19
HETATM   19  C   UNL     1      27.984  46.336  56.007  1.00  0.00     0.052 C 
BRANCH  19  20
HETATM   20  C   UNL     1      29.131  45.391  55.921  1.00  0.00    -0.008 A 
HETATM   21  C   UNL     1      29.375  44.423  54.963  1.00  0.00     0.032 A 
HETATM   22  C   UNL     1      28.630  44.013  53.751  1.00  0.00     0.070 C 
HETATM   23  N   UNL     1      30.550  43.825  55.327  1.00  0.00    -0.282 N 
HETATM   24  H   UNL     1      31.047  43.073  54.857  1.00  0.00     0.189 HD
HETATM   25  N   UNL     1      31.079  44.321  56.452  1.00  0.00    -0.179 NA
HETATM   26  C   UNL     1      30.232  45.285  56.820  1.00  0.00     0.059 A 
HETATM   27  C   UNL     1      30.500  46.080  58.044  1.00  0.00     0.073 C 
ENDBRANCH  19  20
ENDBRANCH  18  19
ENDBRANCH   1  18
TORSDOF 7
ENDMDL
MODEL 2
REMARK VINA RESULT:      -7.9      2.798      8.018
REMARK  7 active torsions:
REMARK  status: ('A' for Active; 'I' for Inactive)
REMARK    1  A    between atoms: C_8  and  C_9 
REMARK    2  A    between atoms: C_9  and  C_10 
REMARK    3  A    between atoms: C_10  and  C_11 
REMARK       I    between atoms: C_11  and  N_12 
REMARK    4  A    between atoms: N_12  and  C_13 
REMARK    5  A    between atoms: C_13  and  C_14 
REMARK    6  A    between atoms: C_14  and  N_15 
REMARK    7  A    between atoms: C_14  and  C_19 
ROOT
HETATM    1  C   UNL     1      26.307  45.390  50.107  1.00  0.00     0.217 C 
HETATM    2  N   UNL     1      25.989  44.752  51.280  1.00  0.00    -0.359 N 
HETATM    3  O   UNL     1      27.446  45.350  49.647  1.00  0.00    -0.274 OA
HETATM    4  H   UNL     1      25.060  44.918  51.662  1.00  0.00     0.162 HD
ENDROOT
BRANCH   2   5
HETATM    5  C   UNL     1      26.985  44.167  52.180  1.00  0.00     0.160 C 
BRANCH   5   6
HETATM    6  C   UNL     1      27.481  45.082  53.362  1.00  0.00     0.239 C 
BRANCH   6   7
HETATM    7  N   UNL     1      26.312  45.524  54.254  1.00  0.00    -0.069 N 
HETATM    8  H   UNL     1      26.741  45.648  55.195  1.00  0.00     0.279 HD
HETATM    9  C   UNL     1      25.691  46.852  53.958  1.00  0.00     0.270 C 
HETATM   10  C   UNL     1      25.275  44.461  54.454  1.00  0.00     0.270 C 
ENDBRANCH   6   7
BRANCH   6  11
HETATM   11  C   UNL     1      28.641  44.462  54.132  1.00  0.00    -0.004 A 
HETATM   12  C   UNL     1      29.253  45.118  55.219  1.00  0.00     0.042 A 
HETATM   13 CL   UNL     1      28.755  46.683  55.754  1.00  0.00    -0.084 Cl
HETATM   14  C   UNL     1      30.306  44.520  55.920  1.00  0.00     0.024 A 
HETATM   15  C   UNL     1      30.773  43.262  55.550  1.00  0.00     0.002 A 
HETATM   16  C   UNL     1      30.191  42.599  54.476  1.00  0.00     0.001 A 
HETATM   17  C   UNL     1      29.139  43.191  53.773  1.00  0.00     0.011 A 
ENDBRANCH   6  11
ENDBRANCH   5   6
ENDBRANCH   2   5
BRANCH   1  18
HETATM   18  C   UNL     1      25.180  46.143  49.446  1.00  0.00     0.107 C 
BRANCH  18  19
HETATM   19  C   UNL     1      25.019  47.508  50.105  1.00  0.00     0.052 C 
BRANCH  19  20
HETATM   20  C   UNL     1      25.212  48.624  49.137  1.00  0.00    -0.008 A 
HETATM   21  C   UNL     1      24.249  49.324  48.433  1.00  0.00     0.032 A 
HETATM   22  C   UNL     1      22.772  49.221  48.396  1.00  0.00     0.070 C 
HETATM   23  N   UNL     1      24.929  50.244  47.683  1.00  0.00    -0.282 N 
HETATM   24  H   UNL     1      24.553  50.939  47.045  1.00  0.00     0.189 HD
HETATM   25  N   UNL     1      26.257  50.186  47.838  1.00  0.00    -0.179 NA
HETATM   26  C   UNL     1      26.444  49.212  48.732  1.00  0.00     0.059 A 
HETATM   27  C   UNL     1      27.819  48.861  49.168  1.00  0.00     0.073 C 
ENDBRANCH  19  20
ENDBRANCH  18  19
ENDBRANCH   1  18
TORSDOF 7
ENDMDL
MODEL 3
REMARK VINA RESULT:      -7.8      2.936      8.138
REMARK  7 active torsions:
REMARK  status: ('A' for Active; 'I' for Inactive)
REMARK    1  A    between atoms: C_8  and  C_9 
REMARK    2  A    between atoms: C_9  and  C_10 
REMARK    3  A    between atoms: C_10  and  C_11 
REMARK       I    between atoms: C_11  and  N_12 
REMARK    4  A    between atoms: N_12  and  C_13 
REMARK    5  A    between atoms: C_13  and  C_14 
REMARK    6  A    between atoms: C_14  and  N_15 
REMARK    7  A    between atoms: C_14  and  C_19 
ROOT
HETATM    1  C   UNL     1      26.344  45.518  49.936  1.00  0.00     0.217 C 
HETATM    2  N   UNL     1      26.399  44.689  51.028  1.00  0.00    -0.359 N 
HETATM    3  O   UNL     1      27.328  45.701  49.222  1.00  0.00    -0.274 OA
HETATM    4  H   UNL     1      25.585  44.669  51.638  1.00  0.00     0.162 HD
ENDROOT
BRANCH   2   5
HETATM    5  C   UNL     1      27.645  44.132  51.561  1.00  0.00     0.160 C 
BRANCH   5   6
HETATM    6  C   UNL     1      27.526  43.312  52.900  1.00  0.00     0.239 C 
BRANCH   6   7
HETATM    7  N   UNL     1      27.487  41.802  52.629  1.00  0.00    -0.069 N 
HETATM    8  H   UNL     1      26.473  41.584  52.533  1.00  0.00     0.279 HD
HETATM    9  C   UNL     1      28.086  41.323  51.344  1.00  0.00     0.270 C 
HETATM   10  C   UNL     1      27.940  40.971  53.791  1.00  0.00     0.270 C 
ENDBRANCH   6   7
BRANCH   6  11
HETATM   11  C   UNL     1      28.571  43.724  53.930  1.00  0.00    -0.004 A 
HETATM   12  C   UNL     1      28.370  44.809  54.807  1.00  0.00     0.042 A 
HETATM   13 CL   UNL     1      26.936  45.773  54.773  1.00  0.00    -0.084 Cl
HETATM   14  C   UNL     1      29.339  45.158  55.755  1.00  0.00     0.024 A 
HETATM   15  C   UNL     1      30.526  44.437  55.845  1.00  0.00     0.002 A 
HETATM   16  C   UNL     1      30.750  43.367  54.986  1.00  0.00     0.001 A 
HETATM   17  C   UNL     1      29.786  43.015  54.038  1.00  0.00     0.011 A 
ENDBRANCH   6  11
ENDBRANCH   5   6
ENDBRANCH   2   5
BRANCH   1  18
HETATM   18  C   UNL     1      25.017  46.188  49.690  1.00  0.00     0.107 C 
BRANCH  18  19
HETATM   19  C   UNL     1      25.041  47.601  50.260  1.00  0.00     0.052 C 
BRANCH  19  20
HETATM   20  C   UNL     1      25.171  48.634  49.196  1.00  0.00    -0.008 A 
HETATM   21  C   UNL     1      26.318  49.260  48.743  1.00  0.00     0.032 A 
HETATM   22  C   UNL     1      27.741  49.128  49.129  1.00  0.00     0.070 C 
HETATM   23  N   UNL     1      25.911  50.122  47.761  1.00  0.00    -0.282 N 
HETATM   24  H   UNL     1      26.479  50.747  47.196  1.00  0.00     0.189 HD
HETATM   25  N   UNL     1      24.589  50.112  47.553  1.00  0.00    -0.179 NA
HETATM   26  C   UNL     1      24.125  49.200  48.411  1.00  0.00     0.059 A 
HETATM   27  C   UNL     1      22.671  48.903  48.461  1.00  0.00     0.073 C 
ENDBRANCH  19  20
ENDBRANCH  18  19
ENDBRANCH   1  18
TORSDOF 7
ENDMDL
MODEL 4
REMARK VINA RESULT:      -7.7     11.925     14.690
REMARK  7 active torsions:
REMARK  status: ('A' for Active; 'I' for Inactive)
REMARK    1  A    between atoms: C_8  and  C_9 
REMARK    2  A    between atoms: C_9  and  C_10 
REMARK    3  A    between atoms: C_10  and  C_11 
REMARK       I    between atoms: C_11  and  N_12 
REMARK    4  A    between atoms: N_12  and  C_13 
REMARK    5  A    between atoms: C_13  and  C_14 
REMARK    6  A    between atoms: C_14  and  N_15 
REMARK    7  A    between atoms: C_14  and  C_19 
ROOT
HETATM    1  C   UNL     1      30.902  50.780  38.606  1.00  0.00     0.217 C 
HETATM    2  N   UNL     1      31.784  51.379  39.470  1.00  0.00    -0.359 N 
HETATM    3  O   UNL     1      30.842  49.556  38.501  1.00  0.00    -0.274 OA
HETATM    4  H   UNL     1      31.861  52.392  39.427  1.00  0.00     0.162 HD
ENDROOT
BRANCH   2   5
HETATM    5  C   UNL     1      32.853  50.659  40.165  1.00  0.00     0.160 C 
BRANCH   5   6
HETATM    6  C   UNL     1      32.752  50.604  41.735  1.00  0.00     0.239 C 
BRANCH   6   7
HETATM    7  N   UNL     1      32.412  49.189  42.224  1.00  0.00    -0.069 N 
HETATM    8  H   UNL     1      32.970  49.077  43.096  1.00  0.00     0.279 HD
HETATM    9  C   UNL     1      31.003  48.937  42.659  1.00  0.00     0.270 C 
HETATM   10  C   UNL     1      32.912  48.105  41.319  1.00  0.00     0.270 C 
ENDBRANCH   6   7
BRANCH   6  11
HETATM   11  C   UNL     1      33.970  51.214  42.420  1.00  0.00    -0.004 A 
HETATM   12  C   UNL     1      33.898  51.783  43.707  1.00  0.00     0.042 A 
HETATM   13 CL   UNL     1      32.424  51.857  44.605  1.00  0.00    -0.084 Cl
HETATM   14  C   UNL     1      35.035  52.322  44.320  1.00  0.00     0.024 A 
HETATM   15  C   UNL     1      36.262  52.310  43.663  1.00  0.00     0.002 A 
HETATM   16  C   UNL     1      36.356  51.760  42.389  1.00  0.00     0.001 A 
HETATM   17  C   UNL     1      35.224  51.221  41.773  1.00  0.00     0.011 A 
ENDBRANCH   6  11
ENDBRANCH   5   6
ENDBRANCH   2   5
BRANCH   1  18
HETATM   18  C   UNL     1      30.040  51.715  37.798  1.00  0.00     0.107 C 
BRANCH  18  19
HETATM   19  C   UNL     1      29.179  52.556  38.733  1.00  0.00     0.052 C 
BRANCH  19  20
HETATM   20  C   UNL     1      28.399  51.717  39.685  1.00  0.00    -0.008 A 
HETATM   21  C   UNL     1      27.381  50.824  39.405  1.00  0.00     0.032 A 
HETATM   22  C   UNL     1      26.746  50.406  38.135  1.00  0.00     0.070 C 
HETATM   23  N   UNL     1      26.994  50.309  40.612  1.00  0.00    -0.282 N 
HETATM   24  H   UNL     1      26.274  49.617  40.800  1.00  0.00     0.189 HD
HETATM   25  N   UNL     1      27.673  50.808  41.651  1.00  0.00    -0.179 NA
HETATM   26  C   UNL     1      28.543  51.659  41.101  1.00  0.00     0.059 A 
HETATM   27  C   UNL     1      29.490  52.409  41.963  1.00  0.00     0.073 C 
ENDBRANCH  19  20
ENDBRANCH  18  19
ENDBRANCH   1  18
TORSDOF 7
ENDMDL
MODEL 5
REMARK VINA RESULT:      -7.5     11.906     13.235
REMARK  7 active torsions:
REMARK  status: ('A' for Active; 'I' for Inactive)
REMARK    1  A    between atoms: C_8  and  C_9 
REMARK    2  A    between atoms: C_9  and  C_10 
REMARK    3  A    between atoms: C_10  and  C_11 
REMARK       I    between atoms: C_11  and  N_12 
REMARK    4  A    between atoms: N_12  and  C_13 
REMARK    5  A    between atoms: C_13  and  C_14 
REMARK    6  A    between atoms: C_14  and  N_15 
REMARK    7  A    between atoms: C_14  and  C_19 
ROOT
HETATM    1  C   UNL     1      29.954  48.614  41.414  1.00  0.00     0.217 C 
HETATM    2  N   UNL     1      30.294  48.872  40.111  1.00  0.00    -0.359 N 
HETATM    3  O   UNL     1      28.978  47.919  41.695  1.00  0.00    -0.274 OA
HETATM    4  H   UNL     1      31.042  49.543  39.949  1.00  0.00     0.162 HD
ENDROOT
BRANCH   2   5
HETATM    5  C   UNL     1      29.436  48.544  38.969  1.00  0.00     0.160 C 
BRANCH   5   6
HETATM    6  C   UNL     1      28.308  49.586  38.621  1.00  0.00     0.239 C 
BRANCH   6   7
HETATM    7  N   UNL     1      26.911  48.965  38.765  1.00  0.00    -0.069 N 
HETATM    8  H   UNL     1      26.586  49.280  39.703  1.00  0.00     0.279 HD
HETATM    9  C   UNL     1      25.849  49.449  37.830  1.00  0.00     0.270 C 
HETATM   10  C   UNL     1      26.925  47.470  38.858  1.00  0.00     0.270 C 
ENDBRANCH   6   7
BRANCH   6  11
HETATM   11  C   UNL     1      28.476  50.900  39.373  1.00  0.00    -0.004 A 
HETATM   12  C   UNL     1      29.380  51.895  38.949  1.00  0.00     0.042 A 
HETATM   13 CL   UNL     1      30.385  51.699  37.557  1.00  0.00    -0.084 Cl
HETATM   14  C   UNL     1      29.505  53.101  39.649  1.00  0.00     0.024 A 
HETATM   15  C   UNL     1      28.736  53.337  40.786  1.00  0.00     0.002 A 
HETATM   16  C   UNL     1      27.843  52.368  41.228  1.00  0.00     0.001 A 
HETATM   17  C   UNL     1      27.716  51.163  40.533  1.00  0.00     0.011 A 
ENDBRANCH   6  11
ENDBRANCH   5   6
ENDBRANCH   2   5
BRANCH   1  18
HETATM   18  C   UNL     1      30.839  49.245  42.459  1.00  0.00     0.107 C 
BRANCH  18  19
HETATM   19  C   UNL     1      30.935  50.745  42.211  1.00  0.00     0.052 C 
BRANCH  19  20
HETATM   20  C   UNL     1      32.342  51.233  42.258  1.00  0.00    -0.008 A 
HETATM   21  C   UNL     1      33.245  51.345  41.217  1.00  0.00     0.032 A 
HETATM   22  C   UNL     1      33.139  51.044  39.771  1.00  0.00     0.070 C 
HETATM   23  N   UNL     1      34.394  51.841  41.771  1.00  0.00    -0.282 N 
HETATM   24  H   UNL     1      35.272  52.061  41.310  1.00  0.00     0.189 HD
HETATM   25  N   UNL     1      34.308  52.045  43.091  1.00  0.00    -0.179 NA
HETATM   26  C   UNL     1      33.058  51.691  43.401  1.00  0.00     0.059 A 
HETATM   27  C   UNL     1      32.586  51.794  44.804  1.00  0.00     0.073 C 
ENDBRANCH  19  20
ENDBRANCH  18  19
ENDBRANCH   1  18
TORSDOF 7
ENDMDL
MODEL 6
REMARK VINA RESULT:      -7.4     12.187     13.340
REMARK  7 active torsions:
REMARK  status: ('A' for Active; 'I' for Inactive)
REMARK    1  A    between atoms: C_8  and  C_9 
REMARK    2  A    between atoms: C_9  and  C_10 
REMARK    3  A    between atoms: C_10  and  C_11 
REMARK       I    between atoms: C_11  and  N_12 
REMARK    4  A    between atoms: N_12  and  C_13 
REMARK    5  A    between atoms: C_13  and  C_14 
REMARK    6  A    between atoms: C_14  and  N_15 
REMARK    7  A    between atoms: C_14  and  C_19 
ROOT
HETATM    1  C   UNL     1      31.747  48.624  41.657  1.00  0.00     0.217 C 
HETATM    2  N   UNL     1      31.217  48.430  40.406  1.00  0.00    -0.359 N 
HETATM    3  O   UNL     1      31.034  48.638  42.658  1.00  0.00    -0.274 OA
HETATM    4  H   UNL     1      31.844  48.542  39.613  1.00  0.00     0.162 HD
ENDROOT
BRANCH   2   5
HETATM    5  C   UNL     1      29.779  48.440  40.125  1.00  0.00     0.160 C 
BRANCH   5   6
HETATM    6  C   UNL     1      29.203  49.753  39.476  1.00  0.00     0.239 C 
BRANCH   6   7
HETATM    7  N   UNL     1      27.669  49.733  39.441  1.00  0.00    -0.069 N 
HETATM    8  H   UNL     1      27.385  50.288  40.276  1.00  0.00     0.279 HD
HETATM    9  C   UNL     1      27.002  50.428  38.297  1.00  0.00     0.270 C 
HETATM   10  C   UNL     1      27.081  48.375  39.680  1.00  0.00     0.270 C 
ENDBRANCH   6   7
BRANCH   6  11
HETATM   11  C   UNL     1      29.786  51.016  40.101  1.00  0.00    -0.004 A 
HETATM   12  C   UNL     1      30.814  51.752  39.479  1.00  0.00     0.042 A 
HETATM   13 CL   UNL     1      31.513  51.274  37.972  1.00  0.00    -0.084 Cl
HETATM   14  C   UNL     1      31.321  52.917  40.065  1.00  0.00     0.024 A 
HETATM   15  C   UNL     1      30.818  53.368  41.282  1.00  0.00     0.002 A 
HETATM   16  C   UNL     1      29.809  52.655  41.919  1.00  0.00     0.001 A 
HETATM   17  C   UNL     1      29.299  51.492  41.337  1.00  0.00     0.011 A 
ENDBRANCH   6  11
ENDBRANCH   5   6
ENDBRANCH   2   5
BRANCH   1  18
HETATM   18  C   UNL     1      33.239  48.831  41.709  1.00  0.00     0.107 C 
BRANCH  18  19
HETATM   19  C   UNL     1      33.578  50.245  41.253  1.00  0.00     0.052 C 
BRANCH  19  20
HETATM   20  C   UNL     1      34.341  51.001  42.285  1.00  0.00    -0.008 A 
HETATM   21  C   UNL     1      33.870  51.571  43.453  1.00  0.00     0.032 A 
HETATM   22  C   UNL     1      32.520  51.625  44.059  1.00  0.00     0.070 C 
HETATM   23  N   UNL     1      34.956  52.147  44.053  1.00  0.00    -0.282 N 
HETATM   24  H   UNL     1      34.996  52.653  44.933  1.00  0.00     0.189 HD
HETATM   25  N   UNL     1      36.091  52.004  43.357  1.00  0.00    -0.179 NA
HETATM   26  C   UNL     1      35.735  51.296  42.283  1.00  0.00     0.059 A 
HETATM   27  C   UNL     1      36.753  50.929  41.267  1.00  0.00     0.073 C 
ENDBRANCH  19  20
ENDBRANCH  18  19
ENDBRANCH   1  18
TORSDOF 7
ENDMDL
MODEL 7
REMARK VINA RESULT:      -7.3      2.992      7.555
REMARK  7 active torsions:
REMARK  status: ('A' for Active; 'I' for Inactive)
REMARK    1  A    between atoms: C_8  and  C_9 
REMARK    2  A    between atoms: C_9  and  C_10 
REMARK    3  A    between atoms: C_10  and  C_11 
REMARK       I    between atoms: C_11  and  N_12 
REMARK    4  A    between atoms: N_12  and  C_13 
REMARK    5  A    between atoms: C_13  and  C_14 
REMARK    6  A    between atoms: C_14  and  N_15 
REMARK    7  A    between atoms: C_14  and  C_19 
ROOT
HETATM    1  C   UNL     1      24.437  45.150  50.763  1.00  0.00     0.217 C 
HETATM    2  N   UNL     1      24.855  45.533  52.013  1.00  0.00    -0.359 N 
HETATM    3  O   UNL     1      24.025  44.012  50.548  1.00  0.00    -0.274 OA
HETATM    4  H   UNL     1      25.287  46.451  52.097  1.00  0.00     0.162 HD
ENDROOT
BRANCH   2   5
HETATM    5  C   UNL     1      25.054  44.598  53.123  1.00  0.00     0.160 C 
BRANCH   5   6
HETATM    6  C   UNL     1      26.442  43.855  53.169  1.00  0.00     0.239 C 
BRANCH   6   7
HETATM    7  N   UNL     1      26.935  43.507  51.757  1.00  0.00    -0.069 N 
HETATM    8  H   UNL     1      26.183  43.857  51.128  1.00  0.00     0.279 HD
HETATM    9  C   UNL     1      28.168  44.202  51.273  1.00  0.00     0.270 C 
HETATM   10  C   UNL     1      26.991  42.034  51.487  1.00  0.00     0.270 C 
ENDBRANCH   6   7
BRANCH   6  11
HETATM   11  C   UNL     1      27.472  44.594  54.014  1.00  0.00    -0.004 A 
HETATM   12  C   UNL     1      28.605  43.948  54.548  1.00  0.00     0.042 A 
HETATM   13 CL   UNL     1      28.907  42.264  54.308  1.00  0.00    -0.084 Cl
HETATM   14  C   UNL     1      29.544  44.653  55.308  1.00  0.00     0.024 A 
HETATM   15  C   UNL     1      29.372  46.012  55.555  1.00  0.00     0.002 A 
HETATM   16  C   UNL     1      28.259  46.671  55.045  1.00  0.00     0.001 A 
HETATM   17  C   UNL     1      27.318  45.971  54.285  1.00  0.00     0.011 A 
ENDBRANCH   6  11
ENDBRANCH   5   6
ENDBRANCH   2   5
BRANCH   1  18
HETATM   18  C   UNL     1      24.531  46.204  49.690  1.00  0.00     0.107 C 
BRANCH  18  19
HETATM   19  C   UNL     1      25.001  47.518  50.302  1.00  0.00     0.052 C 
BRANCH  19  20
HETATM   20  C   UNL     1      25.169  48.586  49.277  1.00  0.00    -0.008 A 
HETATM   21  C   UNL     1      24.187  49.291  48.604  1.00  0.00     0.032 A 
HETATM   22  C   UNL     1      22.709  49.241  48.665  1.00  0.00     0.070 C 
HETATM   23  N   UNL     1      24.849  50.155  47.775  1.00  0.00    -0.282 N 
HETATM   24  H   UNL     1      24.457  50.836  47.131  1.00  0.00     0.189 HD
HETATM   25  N   UNL     1      26.181  50.055  47.849  1.00  0.00    -0.179 NA
HETATM   26  C   UNL     1      26.393  49.112  48.770  1.00  0.00     0.059 A 
HETATM   27  C   UNL     1      27.780  48.729  49.134  1.00  0.00     0.073 C 
ENDBRANCH  19  20
ENDBRANCH  18  19
ENDBRANCH   1  18
TORSDOF 7
ENDMDL
MODEL 8
REMARK VINA RESULT:      -7.3     12.119     14.135
REMARK  7 active torsions:
REMARK  status: ('A' for Active; 'I' for Inactive)
REMARK    1  A    between atoms: C_8  and  C_9 
REMARK    2  A    between atoms: C_9  and  C_10 
REMARK    3  A    between atoms: C_10  and  C_11 
REMARK       I    between atoms: C_11  and  N_12 
REMARK    4  A    between atoms: N_12  and  C_13 
REMARK    5  A    between atoms: C_13  and  C_14 
REMARK    6  A    between atoms: C_14  and  N_15 
REMARK    7  A    between atoms: C_14  and  C_19 
ROOT
HETATM    1  C   UNL     1      30.996  48.536  39.218  1.00  0.00     0.217 C 
HETATM    2  N   UNL     1      31.934  48.647  40.213  1.00  0.00    -0.359 N 
HETATM    3  O   UNL     1      30.811  49.444  38.410  1.00  0.00    -0.274 OA
HETATM    4  H   UNL     1      31.958  47.910  40.914  1.00  0.00     0.162 HD
ENDROOT
BRANCH   2   5
HETATM    5  C   UNL     1      32.629  49.896  40.537  1.00  0.00     0.160 C 
BRANCH   5   6
HETATM    6  C   UNL     1      32.058  50.718  41.752  1.00  0.00     0.239 C 
BRANCH   6   7
HETATM    7  N   UNL     1      33.165  51.512  42.458  1.00  0.00    -0.069 N 
HETATM    8  H   UNL     1      33.123  52.457  42.021  1.00  0.00     0.279 HD
HETATM    9  C   UNL     1      32.989  51.780  43.919  1.00  0.00     0.270 C 
HETATM   10  C   UNL     1      34.547  51.020  42.150  1.00  0.00     0.270 C 
ENDBRANCH   6   7
BRANCH   6  11
HETATM   11  C   UNL     1      30.847  51.560  41.369  1.00  0.00    -0.004 A 
HETATM   12  C   UNL     1      29.527  51.094  41.536  1.00  0.00     0.042 A 
HETATM   13 CL   UNL     1      29.174  49.525  42.167  1.00  0.00    -0.084 Cl
HETATM   14  C   UNL     1      28.432  51.894  41.191  1.00  0.00     0.024 A 
HETATM   15  C   UNL     1      28.629  53.169  40.669  1.00  0.00     0.002 A 
HETATM   16  C   UNL     1      29.921  53.649  40.488  1.00  0.00     0.001 A 
HETATM   17  C   UNL     1      31.018  52.854  40.831  1.00  0.00     0.011 A 
ENDBRANCH   6  11
ENDBRANCH   5   6
ENDBRANCH   2   5
BRANCH   1  18
HETATM   18  C   UNL     1      30.212  47.249  39.199  1.00  0.00     0.107 C 
BRANCH  18  19
HETATM   19  C   UNL     1      28.949  47.429  38.366  1.00  0.00     0.052 C 
BRANCH  19  20
HETATM   20  C   UNL     1      27.804  47.922  39.182  1.00  0.00    -0.008 A 
HETATM   21  C   UNL     1      27.167  49.148  39.114  1.00  0.00     0.032 A 
HETATM   22  C   UNL     1      27.382  50.333  38.252  1.00  0.00     0.070 C 
HETATM   23  N   UNL     1      26.185  49.112  40.064  1.00  0.00    -0.282 N 
HETATM   24  H   UNL     1      25.509  49.833  40.300  1.00  0.00     0.189 HD
HETATM   25  N   UNL     1      26.144  47.964  40.751  1.00  0.00    -0.179 NA
HETATM   26  C   UNL     1      27.117  47.223  40.216  1.00  0.00     0.059 A 
HETATM   27  C   UNL     1      27.370  45.852  40.727  1.00  0.00     0.073 C 
ENDBRANCH  19  20
ENDBRANCH  18  19
ENDBRANCH   1  18
TORSDOF 7
ENDMDL
MODEL 9
REMARK VINA RESULT:      -7.2      2.891      8.220
REMARK  7 active torsions:
REMARK  status: ('A' for Active; 'I' for Inactive)
REMARK    1  A    between atoms: C_8  and  C_9 
REMARK    2  A    between atoms: C_9  and  C_10 
REMARK    3  A    between atoms: C_10  and  C_11 
REMARK       I    between atoms: C_11  and  N_12 
REMARK    4  A    between atoms: N_12  and  C_13 
REMARK    5  A    between atoms: C_13  and  C_14 
REMARK    6  A    between atoms: C_14  and  N_15 
REMARK    7  A    between atoms: C_14  and  C_19 
ROOT
HETATM    1  C   UNL     1      26.557  45.329  50.225  1.00  0.00     0.217 C 
HETATM    2  N   UNL     1      26.270  44.813  51.464  1.00  0.00    -0.359 N 
HETATM    3  O   UNL     1      27.674  45.208  49.726  1.00  0.00    -0.274 OA
HETATM    4  H   UNL     1      25.364  45.044  51.865  1.00  0.00     0.162 HD
ENDROOT
BRANCH   2   5
HETATM    5  C   UNL     1      27.286  44.282  52.376  1.00  0.00     0.160 C 
BRANCH   5   6
HETATM    6  C   UNL     1      27.626  45.165  53.634  1.00  0.00     0.239 C 
BRANCH   6   7
HETATM    7  N   UNL     1      26.366  45.472  54.457  1.00  0.00    -0.069 N 
HETATM    8  H   UNL     1      26.716  45.577  55.433  1.00  0.00     0.279 HD
HETATM    9  C   UNL     1      25.668  46.765  54.180  1.00  0.00     0.270 C 
HETATM   10  C   UNL     1      25.401  44.328  54.528  1.00  0.00     0.270 C 
ENDBRANCH   6   7
BRANCH   6  11
HETATM   11  C   UNL     1      28.772  44.590  54.458  1.00  0.00    -0.004 A 
HETATM   12  C   UNL     1      29.129  43.228  54.395  1.00  0.00     0.042 A 
HETATM   13 CL   UNL     1      28.287  42.096  53.398  1.00  0.00    -0.084 Cl
HETATM   14  C   UNL     1      30.196  42.728  55.150  1.00  0.00     0.024 A 
HETATM   15  C   UNL     1      30.923  43.571  55.985  1.00  0.00     0.002 A 
HETATM   16  C   UNL     1      30.585  44.917  56.070  1.00  0.00     0.001 A 
HETATM   17  C   UNL     1      29.521  45.421  55.318  1.00  0.00     0.011 A 
ENDBRANCH   6  11
ENDBRANCH   5   6
ENDBRANCH   2   5
BRANCH   1  18
HETATM   18  C   UNL     1      25.427  46.054  49.541  1.00  0.00     0.107 C 
BRANCH  18  19
HETATM   19  C   UNL     1      25.229  47.421  50.185  1.00  0.00     0.052 C 
BRANCH  19  20
HETATM   20  C   UNL     1      25.259  48.523  49.183  1.00  0.00    -0.008 A 
HETATM   21  C   UNL     1      26.347  49.257  48.747  1.00  0.00     0.032 A 
HETATM   22  C   UNL     1      27.785  49.206  49.097  1.00  0.00     0.070 C 
HETATM   23  N   UNL     1      25.856  50.143  47.829  1.00  0.00    -0.282 N 
HETATM   24  H   UNL     1      26.364  50.841  47.292  1.00  0.00     0.189 HD
HETATM   25  N   UNL     1      24.534  50.050  47.646  1.00  0.00    -0.179 NA
HETATM   26  C   UNL     1      24.157  49.057  48.455  1.00  0.00     0.059 A 
HETATM   27  C   UNL     1      22.730  48.652  48.516  1.00  0.00     0.073 C 
ENDBRANCH  19  20
ENDBRANCH  18  19
ENDBRANCH   1  18
TORSDOF 7
ENDMDL
MODEL 10
REMARK VINA RESULT:      -7.2      3.077      4.122
REMARK  7 active torsions:
REMARK  status: ('A' for Active; 'I' for Inactive)
REMARK    1  A    between atoms: C_8  and  C_9 
REMARK    2  A    between atoms: C_9  and  C_10 
REMARK    3  A    between atoms: C_10  and  C_11 
REMARK       I    between atoms: C_11  and  N_12 
REMARK    4  A    between atoms: N_12  and  C_13 
REMARK    5  A    between atoms: C_13  and  C_14 
REMARK    6  A    between atoms: C_14  and  N_15 
REMARK    7  A    between atoms: C_14  and  C_19 
ROOT
HETATM    1  C   UNL     1      28.958  42.174  52.368  1.00  0.00     0.217 C 
HETATM    2  N   UNL     1      28.405  42.891  51.338  1.00  0.00    -0.359 N 
HETATM    3  O   UNL     1      28.556  41.046  52.650  1.00  0.00    -0.274 OA
HETATM    4  H   UNL     1      28.707  43.857  51.230  1.00  0.00     0.162 HD
ENDROOT
BRANCH   2   5
HETATM    5  C   UNL     1      27.181  42.493  50.639  1.00  0.00     0.160 C 
BRANCH   5   6
HETATM    6  C   UNL     1      26.618  43.514  49.580  1.00  0.00     0.239 C 
BRANCH   6   7
HETATM    7  N   UNL     1      25.441  42.914  48.798  1.00  0.00    -0.069 N 
HETATM    8  H   UNL     1      25.832  42.722  47.852  1.00  0.00     0.279 HD
HETATM    9  C   UNL     1      24.923  41.587  49.253  1.00  0.00     0.270 C 
HETATM   10  C   UNL     1      24.327  43.886  48.551  1.00  0.00     0.270 C 
ENDBRANCH   6   7
BRANCH   6  11
HETATM   11  C   UNL     1      26.320  44.879  50.188  1.00  0.00    -0.004 A 
HETATM   12  C   UNL     1      25.537  45.025  51.351  1.00  0.00     0.042 A 
HETATM   13 CL   UNL     1      24.836  43.675  52.170  1.00  0.00    -0.084 Cl
HETATM   14  C   UNL     1      25.290  46.289  51.899  1.00  0.00     0.024 A 
HETATM   15  C   UNL     1      25.813  47.431  51.296  1.00  0.00     0.002 A 
HETATM   16  C   UNL     1      26.581  47.313  50.144  1.00  0.00     0.001 A 
HETATM   17  C   UNL     1      26.831  46.053  49.594  1.00  0.00     0.011 A 
ENDBRANCH   6  11
ENDBRANCH   5   6
ENDBRANCH   2   5
BRANCH   1  18
HETATM   18  C   UNL     1      30.065  42.863  53.125  1.00  0.00     0.107 C 
BRANCH  18  19
HETATM   19  C   UNL     1      29.863  42.665  54.623  1.00  0.00     0.052 C 
BRANCH  19  20
HETATM   20  C   UNL     1      29.882  43.954  55.367  1.00  0.00    -0.008 A 
HETATM   21  C   UNL     1      29.059  45.053  55.200  1.00  0.00     0.032 A 
HETATM   22  C   UNL     1      27.930  45.319  54.280  1.00  0.00     0.070 C 
HETATM   23  N   UNL     1      29.476  45.976  56.120  1.00  0.00    -0.282 N 
HETATM   24  H   UNL     1      29.102  46.904  56.296  1.00  0.00     0.189 HD
HETATM   25  N   UNL     1      30.512  45.565  56.860  1.00  0.00    -0.179 NA
HETATM   26  C   UNL     1      30.763  44.329  56.422  1.00  0.00     0.059 A 
HETATM   27  C   UNL     1      31.863  43.538  57.028  1.00  0.00     0.073 C 
ENDBRANCH  19  20
ENDBRANCH  18  19
ENDBRANCH   1  18
TORSDOF 7
ENDMDL
