MODEL 1
REMARK VINA RESULT:      -8.8      0.000      0.000
REMARK  7 active torsions:
REMARK  status: ('A' for Active; 'I' for Inactive)
REMARK    1  A    between atoms: C_4  and  C_5 
REMARK    2  A    between atoms: C_9  and  C_10 
REMARK    3  A    between atoms: C_10  and  C_11 
REMARK    4  A    between atoms: C_11  and  C_12 
REMARK    5  A    between atoms: C_12  and  O_13 
REMARK    6  A    between atoms: C_18  and  C_19 
REMARK       I    between atoms: C_19  and  N_20 
REMARK    7  A    between atoms: N_20  and  C_21 
ROOT
HETATM    1  C   UNL     1      27.364  43.139  50.718  1.00  0.00     0.202 A 
HETATM    2  N   UNL     1      26.422  42.270  50.001  1.00  0.00    -0.083 N 
HETATM    3  C   UNL     1      26.193  40.964  50.322  1.00  0.00     0.726 A 
HETATM    4  N   UNL     1      25.376  40.431  49.452  1.00  0.00    -0.046 NA
HETATM    5  C   UNL     1      25.164  41.456  48.563  1.00  0.00     0.166 A 
HETATM    6  N   UNL     1      25.795  42.606  48.849  1.00  0.00    -0.140 NA
HETATM    7  N   UNL     1      26.817  40.433  51.384  1.00  0.00    -0.192 N 
HETATM    8  C   UNL     1      27.751  41.117  52.155  1.00  0.00     0.037 A 
HETATM    9  C   UNL     1      28.399  40.289  53.242  1.00  0.00     0.070 C 
HETATM   10  C   UNL     1      28.050  42.421  51.887  1.00  0.00     0.062 A 
HETATM   11  H   UNL     1      26.651  39.455  51.603  1.00  0.00     0.184 HD
ENDROOT
BRANCH  10  12
HETATM   12  C   UNL     1      29.026  43.171  52.760  1.00  0.00     0.256 C 
HETATM   13  N   UNL     1      28.586  43.503  54.028  1.00  0.00    -0.323 N 
HETATM   14  H   UNL     1      27.818  42.974  54.411  1.00  0.00     0.169 HD
HETATM   15  O   UNL     1      30.174  43.362  52.365  1.00  0.00    -0.267 OA
BRANCH  13  16
HETATM   16  C   UNL     1      29.412  44.091  55.019  1.00  0.00     0.041 A 
HETATM   17  C   UNL     1      29.293  45.413  55.479  1.00  0.00    -0.035 A 
HETATM   18  C   UNL     1      28.197  46.355  55.064  1.00  0.00     0.050 C 
HETATM   19  C   UNL     1      30.230  45.889  56.417  1.00  0.00     0.009 A 
HETATM   20  C   UNL     1      31.228  45.058  56.928  1.00  0.00     0.001 A 
HETATM   21  C   UNL     1      31.298  43.733  56.519  1.00  0.00     0.002 A 
HETATM   22  C   UNL     1      30.388  43.248  55.579  1.00  0.00     0.030 A 
ENDBRANCH  13  16
ENDBRANCH  10  12
BRANCH   1  23
HETATM   23  C   UNL     1      26.687  44.465  51.070  1.00  0.00    -0.028 A 
HETATM   24  C   UNL     1      26.914  45.648  50.345  1.00  0.00     0.016 A 
HETATM   25  C   UNL     1      26.211  46.823  50.644  1.00  0.00    -0.061 A 
HETATM   26  C   UNL     1      26.388  48.051  49.799  1.00  0.00     0.048 C 
HETATM   27  C   UNL     1      25.285  46.821  51.692  1.00  0.00     0.007 A 
HETATM   28  C   UNL     1      25.079  45.670  52.448  1.00  0.00     0.001 A 
HETATM   29  C   UNL     1      25.772  44.502  52.140  1.00  0.00     0.010 A 
ENDBRANCH   1  23
BRANCH   5  30
HETATM   30  C   UNL     1      24.261  41.316  47.393  1.00  0.00     0.085 C 
BRANCH  30  31
HETATM   31  C   UNL     1      22.793  41.158  47.788  1.00  0.00     0.034 C 
BRANCH  31  32
HETATM   32  C   UNL     1      22.075  40.004  47.095  1.00  0.00     0.164 C 
BRANCH  32  33
HETATM   33  O   UNL     1      20.959  39.564  47.855  1.00  0.00    -0.401 OA
HETATM   34  H   UNL     1      20.743  40.286  48.477  1.00  0.00     0.209 HD
ENDBRANCH  32  33
ENDBRANCH  31  32
ENDBRANCH  30  31
ENDBRANCH   5  30
TORSDOF 7
ENDMDL
MODEL 2
REMARK VINA RESULT:      -8.6      2.770      6.365
REMARK  7 active torsions:
REMARK  status: ('A' for Active; 'I' for Inactive)
REMARK    1  A    between atoms: C_4  and  C_5 
REMARK    2  A    between atoms: C_9  and  C_10 
REMARK    3  A    between atoms: C_10  and  C_11 
REMARK    4  A    between atoms: C_11  and  C_12 
REMARK    5  A    between atoms: C_12  and  O_13 
REMARK    6  A    between atoms: C_18  and  C_19 
REMARK       I    between atoms: C_19  and  N_20 
REMARK    7  A    between atoms: N_20  and  C_21 
ROOT
HETATM    1  C   UNL     1      26.268  43.930  50.338  1.00  0.00     0.202 A 
HETATM    2  N   UNL     1      25.505  45.131  49.976  1.00  0.00    -0.083 N 
HETATM    3  C   UNL     1      24.393  45.119  49.186  1.00  0.00     0.726 A 
HETATM    4  N   UNL     1      23.991  46.343  48.968  1.00  0.00    -0.046 NA
HETATM    5  C   UNL     1      24.938  47.096  49.615  1.00  0.00     0.166 A 
HETATM    6  N   UNL     1      25.899  46.399  50.241  1.00  0.00    -0.140 NA
HETATM    7  N   UNL     1      23.920  43.944  48.742  1.00  0.00    -0.192 N 
HETATM    8  C   UNL     1      24.535  42.721  48.983  1.00  0.00     0.037 A 
HETATM    9  C   UNL     1      23.878  41.540  48.304  1.00  0.00     0.070 C 
HETATM   10  C   UNL     1      25.663  42.651  49.748  1.00  0.00     0.062 A 
HETATM   11  H   UNL     1      23.099  43.949  48.142  1.00  0.00     0.184 HD
ENDROOT
BRANCH  10  12
HETATM   12  C   UNL     1      26.296  41.314  50.046  1.00  0.00     0.256 C 
HETATM   13  N   UNL     1      27.577  41.119  49.565  1.00  0.00    -0.323 N 
HETATM   14  H   UNL     1      28.125  41.937  49.348  1.00  0.00     0.169 HD
HETATM   15  O   UNL     1      25.710  40.511  50.770  1.00  0.00    -0.267 OA
BRANCH  13  16
HETATM   16  C   UNL     1      28.364  39.978  49.861  1.00  0.00     0.041 A 
HETATM   17  C   UNL     1      28.989  39.735  51.096  1.00  0.00    -0.035 A 
HETATM   18  C   UNL     1      28.815  40.599  52.314  1.00  0.00     0.050 C 
HETATM   19  C   UNL     1      29.802  38.593  51.229  1.00  0.00     0.009 A 
HETATM   20  C   UNL     1      29.950  37.685  50.180  1.00  0.00     0.001 A 
HETATM   21  C   UNL     1      29.275  37.896  48.984  1.00  0.00     0.002 A 
HETATM   22  C   UNL     1      28.477  39.030  48.830  1.00  0.00     0.030 A 
ENDBRANCH  13  16
ENDBRANCH  10  12
BRANCH   1  23
HETATM   23  C   UNL     1      26.512  43.904  51.848  1.00  0.00    -0.028 A 
HETATM   24  C   UNL     1      27.801  43.849  52.407  1.00  0.00     0.016 A 
HETATM   25  C   UNL     1      27.989  43.912  53.794  1.00  0.00    -0.061 A 
HETATM   26  C   UNL     1      29.374  43.953  54.373  1.00  0.00     0.048 C 
HETATM   27  C   UNL     1      26.875  44.011  54.634  1.00  0.00     0.007 A 
HETATM   28  C   UNL     1      25.590  44.024  54.100  1.00  0.00     0.001 A 
HETATM   29  C   UNL     1      25.409  43.972  52.720  1.00  0.00     0.010 A 
ENDBRANCH   1  23
BRANCH   5  30
HETATM   30  C   UNL     1      24.876  48.579  49.661  1.00  0.00     0.085 C 
BRANCH  30  31
HETATM   31  C   UNL     1      25.738  49.245  48.589  1.00  0.00     0.034 C 
BRANCH  31  32
HETATM   32  C   UNL     1      27.227  49.293  48.917  1.00  0.00     0.164 C 
BRANCH  32  33
HETATM   33  O   UNL     1      27.870  48.079  48.559  1.00  0.00    -0.401 OA
HETATM   34  H   UNL     1      28.391  47.799  49.337  1.00  0.00     0.209 HD
ENDBRANCH  32  33
ENDBRANCH  31  32
ENDBRANCH  30  31
ENDBRANCH   5  30
TORSDOF 7
ENDMDL
MODEL 3
REMARK VINA RESULT:      -8.5      2.800      3.653
REMARK  7 active torsions:
REMARK  status: ('A' for Active; 'I' for Inactive)
REMARK    1  A    between atoms: C_4  and  C_5 
REMARK    2  A    between atoms: C_9  and  C_10 
REMARK    3  A    between atoms: C_10  and  C_11 
REMARK    4  A    between atoms: C_11  and  C_12 
REMARK    5  A    between atoms: C_12  and  O_13 
REMARK    6  A    between atoms: C_18  and  C_19 
REMARK       I    between atoms: C_19  and  N_20 
REMARK    7  A    between atoms: N_20  and  C_21 
ROOT
HETATM    1  C   UNL     1      27.110  42.873  50.628  1.00  0.00     0.202 A 
HETATM    2  N   UNL     1      27.438  41.780  49.704  1.00  0.00    -0.083 N 
HETATM    3  C   UNL     1      28.002  40.599  50.090  1.00  0.00     0.726 A 
HETATM    4  N   UNL     1      28.259  39.867  49.038  1.00  0.00    -0.046 NA
HETATM    5  C   UNL     1      27.875  40.677  48.000  1.00  0.00     0.166 A 
HETATM    6  N   UNL     1      27.374  41.872  48.355  1.00  0.00    -0.140 NA
HETATM    7  N   UNL     1      28.234  40.381  51.393  1.00  0.00    -0.192 N 
HETATM    8  C   UNL     1      27.996  41.320  52.391  1.00  0.00     0.037 A 
HETATM    9  C   UNL     1      28.424  40.891  53.776  1.00  0.00     0.070 C 
HETATM   10  C   UNL     1      27.452  42.533  52.084  1.00  0.00     0.062 A 
HETATM   11  H   UNL     1      28.670  39.504  51.666  1.00  0.00     0.184 HD
ENDROOT
BRANCH  10  12
HETATM   12  C   UNL     1      27.149  43.527  53.179  1.00  0.00     0.256 C 
HETATM   13  N   UNL     1      27.714  44.781  53.043  1.00  0.00    -0.323 N 
HETATM   14  H   UNL     1      28.002  45.068  52.120  1.00  0.00     0.169 HD
HETATM   15  O   UNL     1      26.354  43.230  54.068  1.00  0.00    -0.267 OA
BRANCH  13  16
HETATM   16  C   UNL     1      27.432  45.869  53.907  1.00  0.00     0.041 A 
HETATM   17  C   UNL     1      28.121  46.143  55.101  1.00  0.00    -0.035 A 
HETATM   18  C   UNL     1      29.330  45.383  55.570  1.00  0.00     0.050 C 
HETATM   19  C   UNL     1      27.686  47.218  55.900  1.00  0.00     0.009 A 
HETATM   20  C   UNL     1      26.629  48.036  55.500  1.00  0.00     0.001 A 
HETATM   21  C   UNL     1      25.996  47.800  54.286  1.00  0.00     0.002 A 
HETATM   22  C   UNL     1      26.403  46.730  53.489  1.00  0.00     0.030 A 
ENDBRANCH  13  16
ENDBRANCH  10  12
BRANCH   1  23
HETATM   23  C   UNL     1      25.676  43.349  50.385  1.00  0.00    -0.028 A 
HETATM   24  C   UNL     1      25.364  44.683  50.070  1.00  0.00     0.016 A 
HETATM   25  C   UNL     1      24.049  45.064  49.771  1.00  0.00    -0.061 A 
HETATM   26  C   UNL     1      23.743  46.469  49.340  1.00  0.00     0.048 C 
HETATM   27  C   UNL     1      23.031  44.105  49.805  1.00  0.00     0.007 A 
HETATM   28  C   UNL     1      23.317  42.788  50.155  1.00  0.00     0.001 A 
HETATM   29  C   UNL     1      24.627  42.412  50.442  1.00  0.00     0.010 A 
ENDBRANCH   1  23
BRANCH   5  30
HETATM   30  C   UNL     1      27.961  40.244  46.582  1.00  0.00     0.085 C 
BRANCH  30  31
HETATM   31  C   UNL     1      27.413  38.836  46.354  1.00  0.00     0.034 C 
BRANCH  31  32
HETATM   32  C   UNL     1      28.483  37.759  46.206  1.00  0.00     0.164 C 
BRANCH  32  33
HETATM   33  O   UNL     1      28.889  37.261  47.473  1.00  0.00    -0.401 OA
HETATM   34  H   UNL     1      28.443  36.399  47.590  1.00  0.00     0.209 HD
ENDBRANCH  32  33
ENDBRANCH  31  32
ENDBRANCH  30  31
ENDBRANCH   5  30
TORSDOF 7
ENDMDL
MODEL 4
REMARK VINA RESULT:      -8.5      3.867      8.626
REMARK  7 active torsions:
REMARK  status: ('A' for Active; 'I' for Inactive)
REMARK    1  A    between atoms: C_4  and  C_5 
REMARK    2  A    between atoms: C_9  and  C_10 
REMARK    3  A    between atoms: C_10  and  C_11 
REMARK    4  A    between atoms: C_11  and  C_12 
REMARK    5  A    between atoms: C_12  and  O_13 
REMARK    6  A    between atoms: C_18  and  C_19 
REMARK       I    between atoms: C_19  and  N_20 
REMARK    7  A    between atoms: N_20  and  C_21 
ROOT
HETATM    1  C   UNL     1      24.619  46.099  50.870  1.00  0.00     0.202 A 
HETATM    2  N   UNL     1      25.578  45.737  51.921  1.00  0.00    -0.083 N 
HETATM    3  C   UNL     1      25.981  44.459  52.178  1.00  0.00     0.726 A 
HETATM    4  N   UNL     1      26.764  44.444  53.225  1.00  0.00    -0.046 NA
HETATM    5  C   UNL     1      26.773  45.758  53.620  1.00  0.00     0.166 A 
HETATM    6  N   UNL     1      26.049  46.594  52.858  1.00  0.00    -0.140 NA
HETATM    7  N   UNL     1      25.526  43.462  51.405  1.00  0.00    -0.192 N 
HETATM    8  C   UNL     1      24.602  43.636  50.381  1.00  0.00     0.037 A 
HETATM    9  C   UNL     1      24.159  42.357  49.706  1.00  0.00     0.070 C 
HETATM   10  C   UNL     1      24.135  44.881  50.074  1.00  0.00     0.062 A 
HETATM   11  H   UNL     1      25.821  42.512  51.617  1.00  0.00     0.184 HD
ENDROOT
BRANCH  10  12
HETATM   12  C   UNL     1      23.171  45.068  48.927  1.00  0.00     0.256 C 
HETATM   13  N   UNL     1      21.863  45.364  49.266  1.00  0.00    -0.323 N 
HETATM   14  H   UNL     1      21.693  45.751  50.181  1.00  0.00     0.169 HD
HETATM   15  O   UNL     1      23.589  45.054  47.772  1.00  0.00    -0.267 OA
BRANCH  13  16
HETATM   16  C   UNL     1      20.861  45.695  48.320  1.00  0.00     0.041 A 
HETATM   17  C   UNL     1      20.339  46.985  48.125  1.00  0.00    -0.035 A 
HETATM   18  C   UNL     1      20.854  48.217  48.817  1.00  0.00     0.050 C 
HETATM   19  C   UNL     1      19.293  47.157  47.198  1.00  0.00     0.009 A 
HETATM   20  C   UNL     1      18.812  46.087  46.443  1.00  0.00     0.001 A 
HETATM   21  C   UNL     1      19.379  44.828  46.592  1.00  0.00     0.002 A 
HETATM   22  C   UNL     1      20.406  44.635  47.517  1.00  0.00     0.030 A 
ENDBRANCH  13  16
ENDBRANCH  10  12
BRANCH   1  23
HETATM   23  C   UNL     1      25.175  47.251  50.031  1.00  0.00    -0.028 A 
HETATM   24  C   UNL     1      24.354  48.243  49.466  1.00  0.00     0.016 A 
HETATM   25  C   UNL     1      24.907  49.330  48.776  1.00  0.00    -0.061 A 
HETATM   26  C   UNL     1      24.027  50.433  48.263  1.00  0.00     0.048 C 
HETATM   27  C   UNL     1      26.295  49.417  48.631  1.00  0.00     0.007 A 
HETATM   28  C   UNL     1      27.121  48.422  49.148  1.00  0.00     0.001 A 
HETATM   29  C   UNL     1      26.567  47.349  49.842  1.00  0.00     0.010 A 
ENDBRANCH   1  23
BRANCH   5  30
HETATM   30  C   UNL     1      27.568  46.232  54.780  1.00  0.00     0.085 C 
BRANCH  30  31
HETATM   31  C   UNL     1      27.694  47.755  54.835  1.00  0.00     0.034 C 
BRANCH  31  32
HETATM   32  C   UNL     1      26.647  48.444  55.705  1.00  0.00     0.164 C 
BRANCH  32  33
HETATM   33  O   UNL     1      25.495  48.784  54.948  1.00  0.00    -0.401 OA
HETATM   34  H   UNL     1      24.878  48.029  55.025  1.00  0.00     0.209 HD
ENDBRANCH  32  33
ENDBRANCH  31  32
ENDBRANCH  30  31
ENDBRANCH   5  30
TORSDOF 7
ENDMDL
MODEL 5
REMARK VINA RESULT:      -8.4      2.532      4.316
REMARK  7 active torsions:
REMARK  status: ('A' for Active; 'I' for Inactive)
REMARK    1  A    between atoms: C_4  and  C_5 
REMARK    2  A    between atoms: C_9  and  C_10 
REMARK    3  A    between atoms: C_10  and  C_11 
REMARK    4  A    between atoms: C_11  and  C_12 
REMARK    5  A    between atoms: C_12  and  O_13 
REMARK    6  A    between atoms: C_18  and  C_19 
REMARK       I    between atoms: C_19  and  N_20 
REMARK    7  A    between atoms: N_20  and  C_21 
ROOT
HETATM    1  C   UNL     1      25.163  43.408  51.411  1.00  0.00     0.202 A 
HETATM    2  N   UNL     1      24.321  43.917  50.322  1.00  0.00    -0.083 N 
HETATM    3  C   UNL     1      24.090  45.242  50.091  1.00  0.00     0.726 A 
HETATM    4  N   UNL     1      23.232  45.378  49.115  1.00  0.00    -0.046 NA
HETATM    5  C   UNL     1      22.916  44.080  48.801  1.00  0.00     0.166 A 
HETATM    6  N   UNL     1      23.549  43.142  49.523  1.00  0.00    -0.140 NA
HETATM    7  N   UNL     1      24.698  46.154  50.863  1.00  0.00    -0.192 N 
HETATM    8  C   UNL     1      25.512  45.836  51.945  1.00  0.00     0.037 A 
HETATM    9  C   UNL     1      26.012  47.027  52.730  1.00  0.00     0.070 C 
HETATM   10  C   UNL     1      25.776  44.533  52.253  1.00  0.00     0.062 A 
HETATM   11  H   UNL     1      24.506  47.138  50.692  1.00  0.00     0.184 HD
ENDROOT
BRANCH  10  12
HETATM   12  C   UNL     1      26.701  44.197  53.397  1.00  0.00     0.256 C 
HETATM   13  N   UNL     1      28.021  44.584  53.254  1.00  0.00    -0.323 N 
HETATM   14  H   UNL     1      28.225  45.320  52.597  1.00  0.00     0.169 HD
HETATM   15  O   UNL     1      26.244  43.700  54.424  1.00  0.00    -0.267 OA
BRANCH  13  16
HETATM   16  C   UNL     1      28.992  44.463  54.280  1.00  0.00     0.041 A 
HETATM   17  C   UNL     1      29.968  43.454  54.344  1.00  0.00    -0.035 A 
HETATM   18  C   UNL     1      30.189  42.426  53.269  1.00  0.00     0.050 C 
HETATM   19  C   UNL     1      30.825  43.412  55.461  1.00  0.00     0.009 A 
HETATM   20  C   UNL     1      30.753  44.379  56.464  1.00  0.00     0.001 A 
HETATM   21  C   UNL     1      29.831  45.413  56.360  1.00  0.00     0.002 A 
HETATM   22  C   UNL     1      28.963  45.461  55.269  1.00  0.00     0.030 A 
ENDBRANCH  13  16
ENDBRANCH  10  12
BRANCH   1  23
HETATM   23  C   UNL     1      26.158  42.381  50.865  1.00  0.00    -0.028 A 
HETATM   24  C   UNL     1      26.441  42.255  49.494  1.00  0.00     0.016 A 
HETATM   25  C   UNL     1      27.421  41.361  49.040  1.00  0.00    -0.061 A 
HETATM   26  C   UNL     1      27.784  41.307  47.584  1.00  0.00     0.048 C 
HETATM   27  C   UNL     1      28.111  40.571  49.964  1.00  0.00     0.007 A 
HETATM   28  C   UNL     1      27.813  40.653  51.322  1.00  0.00     0.001 A 
HETATM   29  C   UNL     1      26.847  41.550  51.769  1.00  0.00     0.010 A 
ENDBRANCH   1  23
BRANCH   5  30
HETATM   30  C   UNL     1      21.974  43.736  47.706  1.00  0.00     0.085 C 
BRANCH  30  31
HETATM   31  C   UNL     1      21.108  44.918  47.271  1.00  0.00     0.034 C 
BRANCH  31  32
HETATM   32  C   UNL     1      19.779  45.031  48.011  1.00  0.00     0.164 C 
BRANCH  32  33
HETATM   33  O   UNL     1      19.978  45.087  49.416  1.00  0.00    -0.401 OA
HETATM   34  H   UNL     1      19.103  44.944  49.827  1.00  0.00     0.209 HD
ENDBRANCH  32  33
ENDBRANCH  31  32
ENDBRANCH  30  31
ENDBRANCH   5  30
TORSDOF 7
ENDMDL
MODEL 6
REMARK VINA RESULT:      -8.3      1.981      3.864
REMARK  7 active torsions:
REMARK  status: ('A' for Active; 'I' for Inactive)
REMARK    1  A    between atoms: C_4  and  C_5 
REMARK    2  A    between atoms: C_9  and  C_10 
REMARK    3  A    between atoms: C_10  and  C_11 
REMARK    4  A    between atoms: C_11  and  C_12 
REMARK    5  A    between atoms: C_12  and  O_13 
REMARK    6  A    between atoms: C_18  and  C_19 
REMARK       I    between atoms: C_19  and  N_20 
REMARK    7  A    between atoms: N_20  and  C_21 
ROOT
HETATM    1  C   UNL     1      24.999  43.110  51.162  1.00  0.00     0.202 A 
HETATM    2  N   UNL     1      24.154  43.502  50.027  1.00  0.00    -0.083 N 
HETATM    3  C   UNL     1      23.800  44.790  49.749  1.00  0.00     0.726 A 
HETATM    4  N   UNL     1      22.972  44.813  48.738  1.00  0.00    -0.046 NA
HETATM    5  C   UNL     1      22.801  43.482  48.452  1.00  0.00     0.166 A 
HETATM    6  N   UNL     1      23.497  42.632  49.225  1.00  0.00    -0.140 NA
HETATM    7  N   UNL     1      24.282  45.780  50.516  1.00  0.00    -0.192 N 
HETATM    8  C   UNL     1      25.080  45.574  51.636  1.00  0.00     0.037 A 
HETATM    9  C   UNL     1      25.426  46.830  52.403  1.00  0.00     0.070 C 
HETATM   10  C   UNL     1      25.462  44.313  51.992  1.00  0.00     0.062 A 
HETATM   11  H   UNL     1      23.998  46.734  50.308  1.00  0.00     0.184 HD
ENDROOT
BRANCH  10  12
HETATM   12  C   UNL     1      26.370  44.103  53.179  1.00  0.00     0.256 C 
HETATM   13  N   UNL     1      27.696  44.455  53.008  1.00  0.00    -0.323 N 
HETATM   14  H   UNL     1      27.917  45.106  52.271  1.00  0.00     0.169 HD
HETATM   15  O   UNL     1      25.895  43.737  54.252  1.00  0.00    -0.267 OA
BRANCH  13  16
HETATM   16  C   UNL     1      28.654  44.443  54.053  1.00  0.00     0.041 A 
HETATM   17  C   UNL     1      28.834  45.479  54.986  1.00  0.00    -0.035 A 
HETATM   18  C   UNL     1      27.955  46.696  55.075  1.00  0.00     0.050 C 
HETATM   19  C   UNL     1      29.874  45.366  55.929  1.00  0.00     0.009 A 
HETATM   20  C   UNL     1      30.683  44.230  55.980  1.00  0.00     0.001 A 
HETATM   21  C   UNL     1      30.456  43.181  55.099  1.00  0.00     0.002 A 
HETATM   22  C   UNL     1      29.440  43.282  54.148  1.00  0.00     0.030 A 
ENDBRANCH  13  16
ENDBRANCH  10  12
BRANCH   1  23
HETATM   23  C   UNL     1      26.113  42.176  50.685  1.00  0.00    -0.028 A 
HETATM   24  C   UNL     1      26.448  42.027  49.327  1.00  0.00     0.016 A 
HETATM   25  C   UNL     1      27.530  41.228  48.935  1.00  0.00    -0.061 A 
HETATM   26  C   UNL     1      27.939  41.156  47.492  1.00  0.00     0.048 C 
HETATM   27  C   UNL     1      28.274  40.554  49.908  1.00  0.00     0.007 A 
HETATM   28  C   UNL     1      27.930  40.657  51.254  1.00  0.00     0.001 A 
HETATM   29  C   UNL     1      26.861  41.461  51.639  1.00  0.00     0.010 A 
ENDBRANCH   1  23
BRANCH   5  30
HETATM   30  C   UNL     1      21.944  43.015  47.334  1.00  0.00     0.085 C 
BRANCH  30  31
HETATM   31  C   UNL     1      22.546  41.834  46.572  1.00  0.00     0.034 C 
BRANCH  31  32
HETATM   32  C   UNL     1      21.822  40.509  46.789  1.00  0.00     0.164 C 
BRANCH  32  33
HETATM   33  O   UNL     1      21.767  40.174  48.168  1.00  0.00    -0.401 OA
HETATM   34  H   UNL     1      22.090  39.255  48.244  1.00  0.00     0.209 HD
ENDBRANCH  32  33
ENDBRANCH  31  32
ENDBRANCH  30  31
ENDBRANCH   5  30
TORSDOF 7
ENDMDL
MODEL 7
REMARK VINA RESULT:      -8.2      4.551      6.890
REMARK  7 active torsions:
REMARK  status: ('A' for Active; 'I' for Inactive)
REMARK    1  A    between atoms: C_4  and  C_5 
REMARK    2  A    between atoms: C_9  and  C_10 
REMARK    3  A    between atoms: C_10  and  C_11 
REMARK    4  A    between atoms: C_11  and  C_12 
REMARK    5  A    between atoms: C_12  and  O_13 
REMARK    6  A    between atoms: C_18  and  C_19 
REMARK       I    between atoms: C_19  and  N_20 
REMARK    7  A    between atoms: N_20  and  C_21 
ROOT
HETATM    1  C   UNL     1      24.045  47.353  49.814  1.00  0.00     0.202 A 
HETATM    2  N   UNL     1      23.410  48.437  49.054  1.00  0.00    -0.083 N 
HETATM    3  C   UNL     1      24.094  49.466  48.476  1.00  0.00     0.726 A 
HETATM    4  N   UNL     1      23.253  50.317  47.951  1.00  0.00    -0.046 NA
HETATM    5  C   UNL     1      22.032  49.786  48.283  1.00  0.00     0.166 A 
HETATM    6  N   UNL     1      22.072  48.634  48.973  1.00  0.00    -0.140 NA
HETATM    7  N   UNL     1      25.433  49.483  48.551  1.00  0.00    -0.192 N 
HETATM    8  C   UNL     1      26.183  48.541  49.248  1.00  0.00     0.037 A 
HETATM    9  C   UNL     1      27.669  48.815  49.277  1.00  0.00     0.070 C 
HETATM   10  C   UNL     1      25.571  47.492  49.869  1.00  0.00     0.062 A 
HETATM   11  H   UNL     1      25.931  50.264  48.131  1.00  0.00     0.184 HD
ENDROOT
BRANCH  10  12
HETATM   12  C   UNL     1      26.396  46.446  50.580  1.00  0.00     0.256 C 
HETATM   13  N   UNL     1      26.185  46.318  51.940  1.00  0.00    -0.323 N 
HETATM   14  H   UNL     1      25.314  46.661  52.314  1.00  0.00     0.169 HD
HETATM   15  O   UNL     1      27.124  45.700  49.929  1.00  0.00    -0.267 OA
BRANCH  13  16
HETATM   16  C   UNL     1      26.777  45.304  52.736  1.00  0.00     0.041 A 
HETATM   17  C   UNL     1      27.477  45.533  53.932  1.00  0.00    -0.035 A 
HETATM   18  C   UNL     1      27.598  46.877  54.595  1.00  0.00     0.050 C 
HETATM   19  C   UNL     1      28.077  44.437  54.584  1.00  0.00     0.009 A 
HETATM   20  C   UNL     1      27.941  43.140  54.090  1.00  0.00     0.001 A 
HETATM   21  C   UNL     1      27.190  42.913  52.944  1.00  0.00     0.002 A 
HETATM   22  C   UNL     1      26.602  43.988  52.277  1.00  0.00     0.030 A 
ENDBRANCH  13  16
ENDBRANCH  10  12
BRANCH   1  23
HETATM   23  C   UNL     1      23.527  45.999  49.324  1.00  0.00    -0.028 A 
HETATM   24  C   UNL     1      23.168  45.764  47.985  1.00  0.00     0.016 A 
HETATM   25  C   UNL     1      22.779  44.488  47.556  1.00  0.00    -0.061 A 
HETATM   26  C   UNL     1      22.494  44.228  46.105  1.00  0.00     0.048 C 
HETATM   27  C   UNL     1      22.730  43.439  48.479  1.00  0.00     0.007 A 
HETATM   28  C   UNL     1      23.043  43.663  49.817  1.00  0.00     0.001 A 
HETATM   29  C   UNL     1      23.439  44.931  50.236  1.00  0.00     0.010 A 
ENDBRANCH   1  23
BRANCH   5  30
HETATM   30  C   UNL     1      20.754  50.414  47.866  1.00  0.00     0.085 C 
BRANCH  30  31
HETATM   31  C   UNL     1      20.316  51.549  48.793  1.00  0.00     0.034 C 
BRANCH  31  32
HETATM   32  C   UNL     1      19.353  51.124  49.898  1.00  0.00     0.164 C 
BRANCH  32  33
HETATM   33  O   UNL     1      19.916  50.096  50.700  1.00  0.00    -0.401 OA
HETATM   34  H   UNL     1      19.707  49.250  50.257  1.00  0.00     0.209 HD
ENDBRANCH  32  33
ENDBRANCH  31  32
ENDBRANCH  30  31
ENDBRANCH   5  30
TORSDOF 7
ENDMDL
MODEL 8
REMARK VINA RESULT:      -7.9      2.803      8.356
REMARK  7 active torsions:
REMARK  status: ('A' for Active; 'I' for Inactive)
REMARK    1  A    between atoms: C_4  and  C_5 
REMARK    2  A    between atoms: C_9  and  C_10 
REMARK    3  A    between atoms: C_10  and  C_11 
REMARK    4  A    between atoms: C_11  and  C_12 
REMARK    5  A    between atoms: C_12  and  O_13 
REMARK    6  A    between atoms: C_18  and  C_19 
REMARK       I    between atoms: C_19  and  N_20 
REMARK    7  A    between atoms: N_20  and  C_21 
ROOT
HETATM    1  C   UNL     1      24.936  45.944  51.450  1.00  0.00     0.202 A 
HETATM    2  N   UNL     1      26.017  45.918  52.443  1.00  0.00    -0.083 N 
HETATM    3  C   UNL     1      26.716  44.796  52.780  1.00  0.00     0.726 A 
HETATM    4  N   UNL     1      27.547  45.067  53.752  1.00  0.00    -0.046 NA
HETATM    5  C   UNL     1      27.282  46.386  54.022  1.00  0.00     0.166 A 
HETATM    6  N   UNL     1      26.340  46.955  53.253  1.00  0.00    -0.140 NA
HETATM    7  N   UNL     1      26.450  43.645  52.144  1.00  0.00    -0.192 N 
HETATM    8  C   UNL     1      25.446  43.500  51.193  1.00  0.00     0.037 A 
HETATM    9  C   UNL     1      25.263  42.089  50.680  1.00  0.00     0.070 C 
HETATM   10  C   UNL     1      24.690  44.571  50.815  1.00  0.00     0.062 A 
HETATM   11  H   UNL     1      26.965  42.812  52.416  1.00  0.00     0.184 HD
ENDROOT
BRANCH  10  12
HETATM   12  C   UNL     1      23.637  44.416  49.744  1.00  0.00     0.256 C 
HETATM   13  N   UNL     1      24.070  44.529  48.436  1.00  0.00    -0.323 N 
HETATM   14  H   UNL     1      25.050  44.380  48.252  1.00  0.00     0.169 HD
HETATM   15  O   UNL     1      22.491  44.103  50.059  1.00  0.00    -0.267 OA
BRANCH  13  16
HETATM   16  C   UNL     1      23.243  44.285  47.310  1.00  0.00     0.041 A 
HETATM   17  C   UNL     1      22.264  45.171  46.829  1.00  0.00    -0.035 A 
HETATM   18  C   UNL     1      22.036  46.553  47.374  1.00  0.00     0.050 C 
HETATM   19  C   UNL     1      21.465  44.767  45.741  1.00  0.00     0.009 A 
HETATM   20  C   UNL     1      21.666  43.538  45.112  1.00  0.00     0.001 A 
HETATM   21  C   UNL     1      22.680  42.697  45.551  1.00  0.00     0.002 A 
HETATM   22  C   UNL     1      23.472  43.073  46.636  1.00  0.00     0.030 A 
ENDBRANCH  13  16
ENDBRANCH  10  12
BRANCH   1  23
HETATM   23  C   UNL     1      25.161  47.092  50.464  1.00  0.00    -0.028 A 
HETATM   24  C   UNL     1      24.111  47.894  49.981  1.00  0.00     0.016 A 
HETATM   25  C   UNL     1      24.366  48.990  49.146  1.00  0.00    -0.061 A 
HETATM   26  C   UNL     1      23.249  49.896  48.718  1.00  0.00     0.048 C 
HETATM   27  C   UNL     1      25.683  49.276  48.772  1.00  0.00     0.007 A 
HETATM   28  C   UNL     1      26.730  48.468  49.207  1.00  0.00     0.001 A 
HETATM   29  C   UNL     1      26.472  47.386  50.046  1.00  0.00     0.010 A 
ENDBRANCH   1  23
BRANCH   5  30
HETATM   30  C   UNL     1      28.022  47.146  55.061  1.00  0.00     0.085 C 
BRANCH  30  31
HETATM   31  C   UNL     1      28.272  46.333  56.331  1.00  0.00     0.034 C 
BRANCH  31  32
HETATM   32  C   UNL     1      29.710  45.851  56.497  1.00  0.00     0.164 C 
BRANCH  32  33
HETATM   33  O   UNL     1      30.007  44.800  55.589  1.00  0.00    -0.401 OA
HETATM   34  H   UNL     1      29.411  44.916  54.824  1.00  0.00     0.209 HD
ENDBRANCH  32  33
ENDBRANCH  31  32
ENDBRANCH  30  31
ENDBRANCH   5  30
TORSDOF 7
ENDMDL
MODEL 9
REMARK VINA RESULT:      -7.7      2.320      3.106
REMARK  7 active torsions:
REMARK  status: ('A' for Active; 'I' for Inactive)
REMARK    1  A    between atoms: C_4  and  C_5 
REMARK    2  A    between atoms: C_9  and  C_10 
REMARK    3  A    between atoms: C_10  and  C_11 
REMARK    4  A    between atoms: C_11  and  C_12 
REMARK    5  A    between atoms: C_12  and  O_13 
REMARK    6  A    between atoms: C_18  and  C_19 
REMARK       I    between atoms: C_19  and  N_20 
REMARK    7  A    between atoms: N_20  and  C_21 
ROOT
HETATM    1  C   UNL     1      27.320  42.535  49.965  1.00  0.00     0.202 A 
HETATM    2  N   UNL     1      26.962  41.275  49.302  1.00  0.00    -0.083 N 
HETATM    3  C   UNL     1      27.051  40.049  49.895  1.00  0.00     0.726 A 
HETATM    4  N   UNL     1      26.753  39.116  49.029  1.00  0.00    -0.046 NA
HETATM    5  C   UNL     1      26.533  39.827  47.876  1.00  0.00     0.166 A 
HETATM    6  N   UNL     1      26.661  41.159  47.987  1.00  0.00    -0.140 NA
HETATM    7  N   UNL     1      27.438  39.971  51.177  1.00  0.00    -0.192 N 
HETATM    8  C   UNL     1      27.827  41.068  51.938  1.00  0.00     0.037 A 
HETATM    9  C   UNL     1      28.316  40.730  53.328  1.00  0.00     0.070 C 
HETATM   10  C   UNL     1      27.785  42.325  51.411  1.00  0.00     0.062 A 
HETATM   11  H   UNL     1      27.516  39.051  51.603  1.00  0.00     0.184 HD
ENDROOT
BRANCH  10  12
HETATM   12  C   UNL     1      28.159  43.516  52.260  1.00  0.00     0.256 C 
HETATM   13  N   UNL     1      27.143  44.081  53.008  1.00  0.00    -0.323 N 
HETATM   14  H   UNL     1      26.336  43.511  53.208  1.00  0.00     0.169 HD
HETATM   15  O   UNL     1      29.335  43.866  52.333  1.00  0.00    -0.267 OA
BRANCH  13  16
HETATM   16  C   UNL     1      27.345  45.119  53.953  1.00  0.00     0.041 A 
HETATM   17  C   UNL     1      26.753  46.391  53.884  1.00  0.00    -0.035 A 
HETATM   18  C   UNL     1      25.731  46.790  52.856  1.00  0.00     0.050 C 
HETATM   19  C   UNL     1      27.100  47.351  54.854  1.00  0.00     0.009 A 
HETATM   20  C   UNL     1      27.971  47.041  55.899  1.00  0.00     0.001 A 
HETATM   21  C   UNL     1      28.500  45.761  55.999  1.00  0.00     0.002 A 
HETATM   22  C   UNL     1      28.180  44.802  55.039  1.00  0.00     0.030 A 
ENDBRANCH  13  16
ENDBRANCH  10  12
BRANCH   1  23
HETATM   23  C   UNL     1      26.198  43.559  49.779  1.00  0.00    -0.028 A 
HETATM   24  C   UNL     1      24.837  43.215  49.860  1.00  0.00     0.016 A 
HETATM   25  C   UNL     1      23.839  44.196  49.770  1.00  0.00    -0.061 A 
HETATM   26  C   UNL     1      22.395  43.831  49.957  1.00  0.00     0.048 C 
HETATM   27  C   UNL     1      24.205  45.531  49.575  1.00  0.00     0.007 A 
HETATM   28  C   UNL     1      25.547  45.883  49.450  1.00  0.00     0.001 A 
HETATM   29  C   UNL     1      26.535  44.907  49.552  1.00  0.00     0.010 A 
ENDBRANCH   1  23
BRANCH   5  30
HETATM   30  C   UNL     1      26.133  39.172  46.606  1.00  0.00     0.085 C 
BRANCH  30  31
HETATM   31  C   UNL     1      27.183  39.317  45.504  1.00  0.00     0.034 C 
BRANCH  31  32
HETATM   32  C   UNL     1      26.809  40.305  44.404  1.00  0.00     0.164 C 
BRANCH  32  33
HETATM   33  O   UNL     1      26.826  41.641  44.887  1.00  0.00    -0.401 OA
HETATM   34  H   UNL     1      27.716  41.996  44.694  1.00  0.00     0.209 HD
ENDBRANCH  32  33
ENDBRANCH  31  32
ENDBRANCH  30  31
ENDBRANCH   5  30
TORSDOF 7
ENDMDL
MODEL 10
REMARK VINA RESULT:      -7.7      2.061      4.435
REMARK  7 active torsions:
REMARK  status: ('A' for Active; 'I' for Inactive)
REMARK    1  A    between atoms: C_4  and  C_5 
REMARK    2  A    between atoms: C_9  and  C_10 
REMARK    3  A    between atoms: C_10  and  C_11 
REMARK    4  A    between atoms: C_11  and  C_12 
REMARK    5  A    between atoms: C_12  and  O_13 
REMARK    6  A    between atoms: C_18  and  C_19 
REMARK       I    between atoms: C_19  and  N_20 
REMARK    7  A    between atoms: N_20  and  C_21 
ROOT
HETATM    1  C   UNL     1      25.608  42.264  49.843  1.00  0.00     0.202 A 
HETATM    2  N   UNL     1      24.505  42.117  48.886  1.00  0.00    -0.083 N 
HETATM    3  C   UNL     1      23.817  43.165  48.347  1.00  0.00     0.726 A 
HETATM    4  N   UNL     1      22.838  42.718  47.605  1.00  0.00    -0.046 NA
HETATM    5  C   UNL     1      22.932  41.358  47.762  1.00  0.00     0.166 A 
HETATM    6  N   UNL     1      23.933  40.935  48.551  1.00  0.00    -0.140 NA
HETATM    7  N   UNL     1      24.186  44.416  48.657  1.00  0.00    -0.192 N 
HETATM    8  C   UNL     1      25.199  44.725  49.560  1.00  0.00     0.037 A 
HETATM    9  C   UNL     1      25.376  46.202  49.828  1.00  0.00     0.070 C 
HETATM   10  C   UNL     1      25.920  43.732  50.156  1.00  0.00     0.062 A 
HETATM   11  H   UNL     1      23.656  45.189  48.262  1.00  0.00     0.184 HD
ENDROOT
BRANCH  10  12
HETATM   12  C   UNL     1      27.052  44.076  51.095  1.00  0.00     0.256 C 
HETATM   13  N   UNL     1      26.877  43.727  52.421  1.00  0.00    -0.323 N 
HETATM   14  H   UNL     1      26.204  43.007  52.631  1.00  0.00     0.169 HD
HETATM   15  O   UNL     1      28.095  44.544  50.645  1.00  0.00    -0.267 OA
BRANCH  13  16
HETATM   16  C   UNL     1      27.885  43.859  53.409  1.00  0.00     0.041 A 
HETATM   17  C   UNL     1      28.020  44.959  54.273  1.00  0.00    -0.035 A 
HETATM   18  C   UNL     1      27.043  46.100  54.346  1.00  0.00     0.050 C 
HETATM   19  C   UNL     1      29.115  44.991  55.159  1.00  0.00     0.009 A 
HETATM   20  C   UNL     1      30.022  43.934  55.226  1.00  0.00     0.001 A 
HETATM   21  C   UNL     1      29.844  42.820  54.416  1.00  0.00     0.002 A 
HETATM   22  C   UNL     1      28.775  42.777  53.521  1.00  0.00     0.030 A 
ENDBRANCH  13  16
ENDBRANCH  10  12
BRANCH   1  23
HETATM   23  C   UNL     1      26.804  41.420  49.395  1.00  0.00    -0.028 A 
HETATM   24  C   UNL     1      27.470  40.531  50.257  1.00  0.00     0.016 A 
HETATM   25  C   UNL     1      28.506  39.713  49.787  1.00  0.00    -0.061 A 
HETATM   26  C   UNL     1      29.142  38.698  50.692  1.00  0.00     0.048 C 
HETATM   27  C   UNL     1      28.895  39.798  48.447  1.00  0.00     0.007 A 
HETATM   28  C   UNL     1      28.274  40.703  47.590  1.00  0.00     0.001 A 
HETATM   29  C   UNL     1      27.237  41.507  48.059  1.00  0.00     0.010 A 
ENDBRANCH   1  23
BRANCH   5  30
HETATM   30  C   UNL     1      22.019  40.415  47.068  1.00  0.00     0.085 C 
BRANCH  30  31
HETATM   31  C   UNL     1      21.681  40.852  45.643  1.00  0.00     0.034 C 
BRANCH  31  32
HETATM   32  C   UNL     1      20.263  41.386  45.467  1.00  0.00     0.164 C 
BRANCH  32  33
HETATM   33  O   UNL     1      20.026  42.499  46.316  1.00  0.00    -0.401 OA
HETATM   34  H   UNL     1      19.676  43.214  45.748  1.00  0.00     0.209 HD
ENDBRANCH  32  33
ENDBRANCH  31  32
ENDBRANCH  30  31
ENDBRANCH   5  30
TORSDOF 7
ENDMDL
