MODEL 1
REMARK VINA RESULT:     -10.9      0.000      0.000
REMARK  7 active torsions:
REMARK  status: ('A' for Active; 'I' for Inactive)
REMARK    1  A    between atoms: C_9  and  C_10 
REMARK       I    between atoms: C_10  and  N_11 
REMARK    2  A    between atoms: N_11  and  C_12 
REMARK    3  A    between atoms: C_12  and  C_13 
REMARK    4  A    between atoms: C_12  and  C_22 
REMARK       I    between atoms: C_13  and  N_14 
REMARK    5  A    between atoms: N_14  and  C_15 
REMARK    6  A    between atoms: C_15  and  C_16 
REMARK    7  A    between atoms: C_22  and  C_23 
ROOT
HETATM    1  C   UNL     1      27.517  43.520  53.061  1.00  0.00     0.180 C 
ENDROOT
BRANCH   1   2
HETATM    2  N   UNL     1      26.968  44.543  52.149  1.00  0.00    -0.346 N 
HETATM    3  C   UNL     1      25.698  45.042  52.310  1.00  0.00     0.249 C 
HETATM    4  O   UNL     1      24.850  44.581  53.075  1.00  0.00    -0.271 OA
HETATM    5  H   UNL     1      27.675  45.161  51.769  1.00  0.00     0.163 HD
BRANCH   3   6
HETATM    6  C   UNL     1      25.361  46.312  51.522  1.00  0.00     0.281 C 
HETATM    7  N   UNL     1      24.261  45.996  50.526  1.00  0.00    -0.058 N 
HETATM    8  C   UNL     1      23.732  47.200  49.853  1.00  0.00     0.272 C 
HETATM    9  H   UNL     1      24.636  45.329  49.838  1.00  0.00     0.278 HD
HETATM   10  H   UNL     1      23.528  45.467  51.022  1.00  0.00     0.278 HD
HETATM   11  C   UNL     1      24.821  48.112  49.356  1.00  0.00    -0.026 A 
HETATM   12  C   UNL     1      26.154  47.977  49.802  1.00  0.00    -0.048 A 
HETATM   13  C   UNL     1      24.494  49.150  48.471  1.00  0.00     0.009 A 
HETATM   14  C   UNL     1      27.134  48.859  49.326  1.00  0.00     0.008 A 
HETATM   15  C   UNL     1      26.556  46.870  50.751  1.00  0.00     0.082 C 
HETATM   16  C   UNL     1      26.794  49.882  48.443  1.00  0.00     0.001 A 
HETATM   17  C   UNL     1      25.477  50.028  48.018  1.00  0.00     0.001 A 
ENDBRANCH   3   6
ENDBRANCH   1   2
BRANCH   1  18
HETATM   18  C   UNL     1      27.213  42.141  52.429  1.00  0.00     0.241 C 
HETATM   19  N   UNL     1      26.281  42.119  51.425  1.00  0.00    -0.353 N 
HETATM   20  H   UNL     1      25.824  42.960  51.090  1.00  0.00     0.162 HD
HETATM   21  O   UNL     1      27.850  41.134  52.752  1.00  0.00    -0.271 OA
BRANCH  19  22
HETATM   22  C   UNL     1      26.034  40.912  50.670  1.00  0.00     0.187 C 
BRANCH  22  23
HETATM   23  C   UNL     1      26.918  40.846  49.479  1.00  0.00     0.070 A 
HETATM   24  O   UNL     1      28.075  40.123  49.578  1.00  0.00    -0.325 OA
HETATM   25  C   UNL     1      28.706  40.219  48.379  1.00  0.00     0.142 A 
HETATM   26  C   UNL     1      27.968  40.983  47.505  1.00  0.00     0.027 A 
HETATM   27  C   UNL     1      26.812  41.387  48.213  1.00  0.00     0.036 A 
ENDBRANCH  22  23
ENDBRANCH  19  22
ENDBRANCH   1  18
BRANCH   1  28
HETATM   28  C   UNL     1      28.982  43.734  53.480  1.00  0.00     0.075 C 
BRANCH  28  29
HETATM   29  C   UNL     1      29.102  44.589  54.711  1.00  0.00    -0.028 A 
HETATM   30  C   UNL     1      30.012  44.416  55.805  1.00  0.00    -0.002 A 
HETATM   31  C   UNL     1      29.788  45.460  56.704  1.00  0.00     0.042 A 
HETATM   32  C   UNL     1      31.005  43.464  56.123  1.00  0.00     0.014 A 
HETATM   33  C   UNL     1      30.515  45.611  57.890  1.00  0.00     0.030 A 
HETATM   34  N   UNL     1      28.758  46.217  56.200  1.00  0.00    -0.365 N 
HETATM   35  C   UNL     1      31.497  44.658  58.176  1.00  0.00     0.002 A 
HETATM   36  C   UNL     1      31.736  43.596  57.309  1.00  0.00     0.001 A 
HETATM   37  H   UNL     1      28.361  47.024  56.662  1.00  0.00     0.165 HD
HETATM   38  C   UNL     1      28.339  45.706  55.001  1.00  0.00     0.096 A 
ENDBRANCH  28  29
ENDBRANCH   1  28
TORSDOF 7
ENDMDL
MODEL 2
REMARK VINA RESULT:     -10.6      1.427      7.608
REMARK  7 active torsions:
REMARK  status: ('A' for Active; 'I' for Inactive)
REMARK    1  A    between atoms: C_9  and  C_10 
REMARK       I    between atoms: C_10  and  N_11 
REMARK    2  A    between atoms: N_11  and  C_12 
REMARK    3  A    between atoms: C_12  and  C_13 
REMARK    4  A    between atoms: C_12  and  C_22 
REMARK       I    between atoms: C_13  and  N_14 
REMARK    5  A    between atoms: N_14  and  C_15 
REMARK    6  A    between atoms: C_15  and  C_16 
REMARK    7  A    between atoms: C_22  and  C_23 
ROOT
HETATM    1  C   UNL     1      25.658  44.922  51.194  1.00  0.00     0.180 C 
ENDROOT
BRANCH   1   2
HETATM    2  N   UNL     1      26.216  44.719  52.547  1.00  0.00    -0.346 N 
HETATM    3  C   UNL     1      27.506  44.286  52.735  1.00  0.00     0.249 C 
HETATM    4  O   UNL     1      28.243  43.858  51.847  1.00  0.00    -0.271 OA
HETATM    5  H   UNL     1      25.819  45.343  53.240  1.00  0.00     0.163 HD
BRANCH   3   6
HETATM    6  C   UNL     1      28.070  44.426  54.153  1.00  0.00     0.281 C 
HETATM    7  N   UNL     1      28.203  45.900  54.487  1.00  0.00    -0.058 N 
HETATM    8  C   UNL     1      28.555  46.140  55.901  1.00  0.00     0.272 C 
HETATM    9  H   UNL     1      28.911  46.305  53.860  1.00  0.00     0.278 HD
HETATM   10  H   UNL     1      27.324  46.366  54.214  1.00  0.00     0.278 HD
HETATM   11  C   UNL     1      29.679  45.259  56.375  1.00  0.00    -0.026 A 
HETATM   12  C   UNL     1      30.083  44.121  55.642  1.00  0.00    -0.048 A 
HETATM   13  C   UNL     1      30.305  45.546  57.597  1.00  0.00     0.009 A 
HETATM   14  C   UNL     1      31.123  43.318  56.129  1.00  0.00     0.008 A 
HETATM   15  C   UNL     1      29.443  43.775  54.315  1.00  0.00     0.082 C 
HETATM   16  C   UNL     1      31.738  43.620  57.342  1.00  0.00     0.001 A 
HETATM   17  C   UNL     1      31.328  44.729  58.076  1.00  0.00     0.001 A 
ENDBRANCH   3   6
ENDBRANCH   1   2
BRANCH   1  18
HETATM   18  C   UNL     1      25.160  43.544  50.699  1.00  0.00     0.241 C 
HETATM   19  N   UNL     1      25.941  42.907  49.772  1.00  0.00    -0.353 N 
HETATM   20  H   UNL     1      26.814  43.298  49.435  1.00  0.00     0.162 HD
HETATM   21  O   UNL     1      24.161  43.010  51.191  1.00  0.00    -0.271 OA
BRANCH  19  22
HETATM   22  C   UNL     1      25.644  41.554  49.357  1.00  0.00     0.187 C 
BRANCH  22  23
HETATM   23  C   UNL     1      26.894  40.773  49.177  1.00  0.00     0.070 A 
HETATM   24  O   UNL     1      27.126  39.728  50.029  1.00  0.00    -0.325 OA
HETATM   25  C   UNL     1      28.318  39.183  49.671  1.00  0.00     0.142 A 
HETATM   26  C   UNL     1      28.853  39.854  48.597  1.00  0.00     0.027 A 
HETATM   27  C   UNL     1      27.934  40.879  48.274  1.00  0.00     0.036 A 
ENDBRANCH  22  23
ENDBRANCH  19  22
ENDBRANCH   1  18
BRANCH   1  28
HETATM   28  C   UNL     1      24.637  46.066  51.071  1.00  0.00     0.075 C 
BRANCH  28  29
HETATM   29  C   UNL     1      25.156  47.205  50.238  1.00  0.00    -0.028 A 
HETATM   30  C   UNL     1      24.388  48.147  49.478  1.00  0.00    -0.002 A 
HETATM   31  C   UNL     1      25.286  49.043  48.894  1.00  0.00     0.042 A 
HETATM   32  C   UNL     1      23.011  48.322  49.223  1.00  0.00     0.014 A 
HETATM   33  C   UNL     1      24.878  50.111  48.087  1.00  0.00     0.030 A 
HETATM   34  N   UNL     1      26.551  48.641  49.251  1.00  0.00    -0.365 N 
HETATM   35  C   UNL     1      23.508  50.264  47.857  1.00  0.00     0.002 A 
HETATM   36  C   UNL     1      22.586  49.381  48.411  1.00  0.00     0.001 A 
HETATM   37  H   UNL     1      27.403  49.090  48.941  1.00  0.00     0.165 HD
HETATM   38  C   UNL     1      26.486  47.540  50.061  1.00  0.00     0.096 A 
ENDBRANCH  28  29
ENDBRANCH   1  28
TORSDOF 7
ENDMDL
MODEL 3
REMARK VINA RESULT:     -10.4      1.408      1.736
REMARK  7 active torsions:
REMARK  status: ('A' for Active; 'I' for Inactive)
REMARK    1  A    between atoms: C_9  and  C_10 
REMARK       I    between atoms: C_10  and  N_11 
REMARK    2  A    between atoms: N_11  and  C_12 
REMARK    3  A    between atoms: C_12  and  C_13 
REMARK    4  A    between atoms: C_12  and  C_22 
REMARK       I    between atoms: C_13  and  N_14 
REMARK    5  A    between atoms: N_14  and  C_15 
REMARK    6  A    between atoms: C_15  and  C_16 
REMARK    7  A    between atoms: C_22  and  C_23 
ROOT
HETATM    1  C   UNL     1      26.752  43.154  51.961  1.00  0.00     0.180 C 
ENDROOT
BRANCH   1   2
HETATM    2  N   UNL     1      26.344  44.376  51.236  1.00  0.00    -0.346 N 
HETATM    3  C   UNL     1      25.168  45.023  51.525  1.00  0.00     0.249 C 
HETATM    4  O   UNL     1      24.277  44.579  52.250  1.00  0.00    -0.271 OA
HETATM    5  H   UNL     1      27.128  44.934  50.922  1.00  0.00     0.163 HD
BRANCH   3   6
HETATM    6  C   UNL     1      25.010  46.435  50.950  1.00  0.00     0.281 C 
HETATM    7  N   UNL     1      23.845  46.443  49.978  1.00  0.00    -0.058 N 
HETATM    8  C   UNL     1      23.490  47.801  49.518  1.00  0.00     0.272 C 
HETATM    9  H   UNL     1      24.091  45.840  49.182  1.00  0.00     0.278 HD
HETATM   10  H   UNL     1      23.054  45.960  50.430  1.00  0.00     0.278 HD
HETATM   11  C   UNL     1      24.693  48.604  49.103  1.00  0.00    -0.026 A 
HETATM   12  C   UNL     1      26.001  48.205  49.453  1.00  0.00    -0.048 A 
HETATM   13  C   UNL     1      24.506  49.803  48.398  1.00  0.00     0.009 A 
HETATM   14  C   UNL     1      27.092  48.993  49.060  1.00  0.00     0.008 A 
HETATM   15  C   UNL     1      26.254  46.918  50.207  1.00  0.00     0.082 C 
HETATM   16  C   UNL     1      26.890  50.177  48.355  1.00  0.00     0.001 A 
HETATM   17  C   UNL     1      25.600  50.583  48.027  1.00  0.00     0.001 A 
ENDBRANCH   3   6
ENDBRANCH   1   2
BRANCH   1  18
HETATM   18  C   UNL     1      26.402  41.952  51.053  1.00  0.00     0.241 C 
HETATM   19  N   UNL     1      27.451  41.189  50.613  1.00  0.00    -0.353 N 
HETATM   20  H   UNL     1      28.411  41.380  50.880  1.00  0.00     0.162 HD
HETATM   21  O   UNL     1      25.228  41.646  50.821  1.00  0.00    -0.271 OA
BRANCH  19  22
HETATM   22  C   UNL     1      27.221  39.961  49.886  1.00  0.00     0.187 C 
BRANCH  22  23
HETATM   23  C   UNL     1      28.466  39.155  49.808  1.00  0.00     0.070 A 
HETATM   24  O   UNL     1      29.111  38.858  50.977  1.00  0.00    -0.325 OA
HETATM   25  C   UNL     1      30.210  38.129  50.648  1.00  0.00     0.142 A 
HETATM   26  C   UNL     1      30.276  37.943  49.287  1.00  0.00     0.027 A 
HETATM   27  C   UNL     1      29.150  38.603  48.744  1.00  0.00     0.036 A 
ENDBRANCH  22  23
ENDBRANCH  19  22
ENDBRANCH   1  18
BRANCH   1  28
HETATM   28  C   UNL     1      28.193  43.164  52.501  1.00  0.00     0.075 C 
BRANCH  28  29
HETATM   29  C   UNL     1      28.360  44.109  53.658  1.00  0.00    -0.028 A 
HETATM   30  C   UNL     1      29.340  44.040  54.702  1.00  0.00    -0.002 A 
HETATM   31  C   UNL     1      29.138  45.142  55.536  1.00  0.00     0.042 A 
HETATM   32  C   UNL     1      30.379  43.141  55.024  1.00  0.00     0.014 A 
HETATM   33  C   UNL     1      29.931  45.398  56.661  1.00  0.00     0.030 A 
HETATM   34  N   UNL     1      28.056  45.832  55.045  1.00  0.00    -0.365 N 
HETATM   35  C   UNL     1      30.956  44.494  56.953  1.00  0.00     0.002 A 
HETATM   36  C   UNL     1      31.176  43.379  56.151  1.00  0.00     0.001 A 
HETATM   37  H   UNL     1      27.663  46.660  55.473  1.00  0.00     0.165 HD
HETATM   38  C   UNL     1      27.582  45.223  53.914  1.00  0.00     0.096 A 
ENDBRANCH  28  29
ENDBRANCH   1  28
TORSDOF 7
ENDMDL
MODEL 4
REMARK VINA RESULT:     -10.3      1.846      6.585
REMARK  7 active torsions:
REMARK  status: ('A' for Active; 'I' for Inactive)
REMARK    1  A    between atoms: C_9  and  C_10 
REMARK       I    between atoms: C_10  and  N_11 
REMARK    2  A    between atoms: N_11  and  C_12 
REMARK    3  A    between atoms: C_12  and  C_13 
REMARK    4  A    between atoms: C_12  and  C_22 
REMARK       I    between atoms: C_13  and  N_14 
REMARK    5  A    between atoms: N_14  and  C_15 
REMARK    6  A    between atoms: C_15  and  C_16 
REMARK    7  A    between atoms: C_22  and  C_23 
ROOT
HETATM    1  C   UNL     1      26.259  44.264  52.288  1.00  0.00     0.180 C 
ENDROOT
BRANCH   1   2
HETATM    2  N   UNL     1      26.283  42.982  51.553  1.00  0.00    -0.346 N 
HETATM    3  C   UNL     1      26.856  42.878  50.309  1.00  0.00     0.249 C 
HETATM    4  O   UNL     1      27.226  43.829  49.620  1.00  0.00    -0.271 OA
HETATM    5  H   UNL     1      26.320  42.174  52.162  1.00  0.00     0.163 HD
BRANCH   3   6
HETATM    6  C   UNL     1      27.110  41.457  49.795  1.00  0.00     0.281 C 
HETATM    7  N   UNL     1      28.346  40.900  50.478  1.00  0.00    -0.058 N 
HETATM    8  C   UNL     1      28.562  39.467  50.195  1.00  0.00     0.272 C 
HETATM    9  H   UNL     1      29.155  41.458  50.176  1.00  0.00     0.278 HD
HETATM   10  H   UNL     1      28.263  41.096  51.488  1.00  0.00     0.278 HD
HETATM   11  C   UNL     1      28.419  39.137  48.734  1.00  0.00    -0.026 A 
HETATM   12  C   UNL     1      27.812  40.037  47.832  1.00  0.00    -0.048 A 
HETATM   13  C   UNL     1      28.852  37.886  48.269  1.00  0.00     0.009 A 
HETATM   14  C   UNL     1      27.683  39.682  46.483  1.00  0.00     0.008 A 
HETATM   15  C   UNL     1      27.334  41.400  48.285  1.00  0.00     0.082 C 
HETATM   16  C   UNL     1      28.124  38.439  46.035  1.00  0.00     0.001 A 
HETATM   17  C   UNL     1      28.705  37.542  46.926  1.00  0.00     0.001 A 
ENDBRANCH   3   6
ENDBRANCH   1   2
BRANCH   1  18
HETATM   18  C   UNL     1      25.200  45.158  51.603  1.00  0.00     0.241 C 
HETATM   19  N   UNL     1      25.651  46.323  51.041  1.00  0.00    -0.353 N 
HETATM   20  H   UNL     1      26.631  46.586  51.048  1.00  0.00     0.162 HD
HETATM   21  O   UNL     1      24.027  44.788  51.489  1.00  0.00    -0.271 OA
BRANCH  19  22
HETATM   22  C   UNL     1      24.772  47.154  50.250  1.00  0.00     0.187 C 
BRANCH  22  23
HETATM   23  C   UNL     1      25.542  48.205  49.537  1.00  0.00     0.070 A 
HETATM   24  O   UNL     1      26.905  48.189  49.649  1.00  0.00    -0.325 OA
HETATM   25  C   UNL     1      27.374  49.238  48.924  1.00  0.00     0.142 A 
HETATM   26  C   UNL     1      26.336  49.922  48.338  1.00  0.00     0.027 A 
HETATM   27  C   UNL     1      25.152  49.255  48.730  1.00  0.00     0.036 A 
ENDBRANCH  22  23
ENDBRANCH  19  22
ENDBRANCH   1  18
BRANCH   1  28
HETATM   28  C   UNL     1      26.118  44.141  53.815  1.00  0.00     0.075 C 
BRANCH  28  29
HETATM   29  C   UNL     1      27.174  44.922  54.548  1.00  0.00    -0.028 A 
HETATM   30  C   UNL     1      28.486  44.477  54.916  1.00  0.00    -0.002 A 
HETATM   31  C   UNL     1      29.126  45.545  55.549  1.00  0.00     0.042 A 
HETATM   32  C   UNL     1      29.193  43.264  54.778  1.00  0.00     0.014 A 
HETATM   33  C   UNL     1      30.437  45.466  56.033  1.00  0.00     0.030 A 
HETATM   34  N   UNL     1      28.229  46.584  55.601  1.00  0.00    -0.365 N 
HETATM   35  C   UNL     1      31.115  44.254  55.877  1.00  0.00     0.002 A 
HETATM   36  C   UNL     1      30.502  43.165  55.263  1.00  0.00     0.001 A 
HETATM   37  H   UNL     1      28.413  47.478  56.037  1.00  0.00     0.165 HD
HETATM   38  C   UNL     1      27.053  46.224  54.999  1.00  0.00     0.096 A 
ENDBRANCH  28  29
ENDBRANCH   1  28
TORSDOF 7
ENDMDL
MODEL 5
REMARK VINA RESULT:     -10.2      1.963      7.612
REMARK  7 active torsions:
REMARK  status: ('A' for Active; 'I' for Inactive)
REMARK    1  A    between atoms: C_9  and  C_10 
REMARK       I    between atoms: C_10  and  N_11 
REMARK    2  A    between atoms: N_11  and  C_12 
REMARK    3  A    between atoms: C_12  and  C_13 
REMARK    4  A    between atoms: C_12  and  C_22 
REMARK       I    between atoms: C_13  and  N_14 
REMARK    5  A    between atoms: N_14  and  C_15 
REMARK    6  A    between atoms: C_15  and  C_16 
REMARK    7  A    between atoms: C_22  and  C_23 
ROOT
HETATM    1  C   UNL     1      25.473  45.078  51.594  1.00  0.00     0.180 C 
ENDROOT
BRANCH   1   2
HETATM    2  N   UNL     1      26.502  44.971  52.649  1.00  0.00    -0.346 N 
HETATM    3  C   UNL     1      26.581  45.886  53.671  1.00  0.00     0.249 C 
HETATM    4  O   UNL     1      25.959  46.947  53.719  1.00  0.00    -0.271 OA
HETATM    5  H   UNL     1      26.775  44.016  52.845  1.00  0.00     0.163 HD
BRANCH   3   6
HETATM    6  C   UNL     1      27.460  45.496  54.865  1.00  0.00     0.281 C 
HETATM    7  N   UNL     1      27.913  46.759  55.574  1.00  0.00    -0.058 N 
HETATM    8  C   UNL     1      28.605  46.484  56.850  1.00  0.00     0.272 C 
HETATM    9  H   UNL     1      28.524  47.282  54.933  1.00  0.00     0.278 HD
HETATM   10  H   UNL     1      27.089  47.367  55.695  1.00  0.00     0.278 HD
HETATM   11  C   UNL     1      29.638  45.397  56.726  1.00  0.00    -0.026 A 
HETATM   12  C   UNL     1      29.669  44.535  55.609  1.00  0.00    -0.048 A 
HETATM   13  C   UNL     1      30.558  45.205  57.768  1.00  0.00     0.009 A 
HETATM   14  C   UNL     1      30.638  43.525  55.542  1.00  0.00     0.008 A 
HETATM   15  C   UNL     1      28.702  44.706  54.458  1.00  0.00     0.082 C 
HETATM   16  C   UNL     1      31.549  43.350  56.583  1.00  0.00     0.001 A 
HETATM   17  C   UNL     1      31.507  44.186  57.694  1.00  0.00     0.001 A 
ENDBRANCH   3   6
ENDBRANCH   1   2
BRANCH   1  18
HETATM   18  C   UNL     1      26.043  46.010  50.499  1.00  0.00     0.241 C 
HETATM   19  N   UNL     1      25.527  47.277  50.443  1.00  0.00    -0.353 N 
HETATM   20  H   UNL     1      24.823  47.607  51.094  1.00  0.00     0.162 HD
HETATM   21  O   UNL     1      26.982  45.653  49.781  1.00  0.00    -0.271 OA
BRANCH  19  22
HETATM   22  C   UNL     1      26.094  48.270  49.558  1.00  0.00     0.187 C 
BRANCH  22  23
HETATM   23  C   UNL     1      25.032  49.145  49.000  1.00  0.00     0.070 A 
HETATM   24  O   UNL     1      23.796  49.106  49.584  1.00  0.00    -0.325 OA
HETATM   25  C   UNL     1      23.007  49.977  48.902  1.00  0.00     0.142 A 
HETATM   26  C   UNL     1      23.719  50.584  47.895  1.00  0.00     0.027 A 
HETATM   27  C   UNL     1      25.027  50.051  47.958  1.00  0.00     0.036 A 
ENDBRANCH  22  23
ENDBRANCH  19  22
ENDBRANCH   1  18
BRANCH   1  28
HETATM   28  C   UNL     1      24.916  43.739  51.084  1.00  0.00     0.075 C 
BRANCH  28  29
HETATM   29  C   UNL     1      26.004  42.815  50.609  1.00  0.00    -0.028 A 
HETATM   30  C   UNL     1      26.930  42.076  51.415  1.00  0.00    -0.002 A 
HETATM   31  C   UNL     1      27.733  41.329  50.550  1.00  0.00     0.042 A 
HETATM   32  C   UNL     1      27.170  41.973  52.802  1.00  0.00     0.014 A 
HETATM   33  C   UNL     1      28.747  40.476  51.001  1.00  0.00     0.030 A 
HETATM   34  N   UNL     1      27.339  41.630  49.269  1.00  0.00    -0.365 N 
HETATM   35  C   UNL     1      28.958  40.389  52.380  1.00  0.00     0.002 A 
HETATM   36  C   UNL     1      28.186  41.130  53.269  1.00  0.00     0.001 A 
HETATM   37  H   UNL     1      27.773  41.257  48.434  1.00  0.00     0.165 HD
HETATM   38  C   UNL     1      26.299  42.519  49.290  1.00  0.00     0.096 A 
ENDBRANCH  28  29
ENDBRANCH   1  28
TORSDOF 7
ENDMDL
MODEL 6
REMARK VINA RESULT:     -10.0      1.831      7.928
REMARK  7 active torsions:
REMARK  status: ('A' for Active; 'I' for Inactive)
REMARK    1  A    between atoms: C_9  and  C_10 
REMARK       I    between atoms: C_10  and  N_11 
REMARK    2  A    between atoms: N_11  and  C_12 
REMARK    3  A    between atoms: C_12  and  C_13 
REMARK    4  A    between atoms: C_12  and  C_22 
REMARK       I    between atoms: C_13  and  N_14 
REMARK    5  A    between atoms: N_14  and  C_15 
REMARK    6  A    between atoms: C_15  and  C_16 
REMARK    7  A    between atoms: C_22  and  C_23 
ROOT
HETATM    1  C   UNL     1      26.034  42.644  51.334  1.00  0.00     0.180 C 
ENDROOT
BRANCH   1   2
HETATM    2  N   UNL     1      26.833  42.823  52.564  1.00  0.00    -0.346 N 
HETATM    3  C   UNL     1      27.651  43.913  52.737  1.00  0.00     0.249 C 
HETATM    4  O   UNL     1      27.943  44.723  51.856  1.00  0.00    -0.271 OA
HETATM    5  H   UNL     1      26.396  42.424  53.386  1.00  0.00     0.163 HD
BRANCH   3   6
HETATM    6  C   UNL     1      28.167  44.158  54.159  1.00  0.00     0.281 C 
HETATM    7  N   UNL     1      28.234  45.653  54.408  1.00  0.00    -0.058 N 
HETATM    8  C   UNL     1      28.534  45.989  55.815  1.00  0.00     0.272 C 
HETATM    9  H   UNL     1      28.944  46.049  53.778  1.00  0.00     0.278 HD
HETATM   10  H   UNL     1      27.346  46.067  54.084  1.00  0.00     0.278 HD
HETATM   11  C   UNL     1      29.676  45.182  56.371  1.00  0.00    -0.026 A 
HETATM   12  C   UNL     1      30.144  44.021  55.719  1.00  0.00    -0.048 A 
HETATM   13  C   UNL     1      30.253  45.564  57.592  1.00  0.00     0.009 A 
HETATM   14  C   UNL     1      31.199  43.289  56.282  1.00  0.00     0.008 A 
HETATM   15  C   UNL     1      29.558  43.572  54.398  1.00  0.00     0.082 C 
HETATM   16  C   UNL     1      31.765  43.685  57.491  1.00  0.00     0.001 A 
HETATM   17  C   UNL     1      31.292  44.818  58.146  1.00  0.00     0.001 A 
ENDBRANCH   3   6
ENDBRANCH   1   2
BRANCH   1  18
HETATM   18  C   UNL     1      25.104  43.875  51.217  1.00  0.00     0.241 C 
HETATM   19  N   UNL     1      25.356  44.737  50.183  1.00  0.00    -0.353 N 
HETATM   20  H   UNL     1      26.097  44.576  49.509  1.00  0.00     0.162 HD
HETATM   21  O   UNL     1      24.129  44.014  51.962  1.00  0.00    -0.271 OA
BRANCH  19  22
HETATM   22  C   UNL     1      24.458  45.833  49.896  1.00  0.00     0.187 C 
BRANCH  22  23
HETATM   23  C   UNL     1      25.218  47.076  49.614  1.00  0.00     0.070 A 
HETATM   24  O   UNL     1      24.537  48.140  49.089  1.00  0.00    -0.325 OA
HETATM   25  C   UNL     1      25.439  49.141  48.916  1.00  0.00     0.142 A 
HETATM   26  C   UNL     1      26.688  48.744  49.332  1.00  0.00     0.027 A 
HETATM   27  C   UNL     1      26.547  47.411  49.785  1.00  0.00     0.036 A 
ENDBRANCH  22  23
ENDBRANCH  19  22
ENDBRANCH   1  18
BRANCH   1  28
HETATM   28  C   UNL     1      26.844  42.318  50.068  1.00  0.00     0.075 C 
BRANCH  28  29
HETATM   29  C   UNL     1      27.688  41.085  50.235  1.00  0.00    -0.028 A 
HETATM   30  C   UNL     1      27.957  40.076  49.253  1.00  0.00    -0.002 A 
HETATM   31  C   UNL     1      28.812  39.140  49.839  1.00  0.00     0.042 A 
HETATM   32  C   UNL     1      27.550  39.863  47.918  1.00  0.00     0.014 A 
HETATM   33  C   UNL     1      29.293  38.018  49.156  1.00  0.00     0.030 A 
HETATM   34  N   UNL     1      29.023  39.540  51.137  1.00  0.00    -0.365 N 
HETATM   35  C   UNL     1      28.878  37.835  47.834  1.00  0.00     0.002 A 
HETATM   36  C   UNL     1      28.016  38.740  47.223  1.00  0.00     0.001 A 
HETATM   37  H   UNL     1      29.580  39.029  51.809  1.00  0.00     0.165 HD
HETATM   38  C   UNL     1      28.356  40.709  51.386  1.00  0.00     0.096 A 
ENDBRANCH  28  29
ENDBRANCH   1  28
TORSDOF 7
ENDMDL
MODEL 7
REMARK VINA RESULT:      -9.8      2.153      6.154
REMARK  7 active torsions:
REMARK  status: ('A' for Active; 'I' for Inactive)
REMARK    1  A    between atoms: C_9  and  C_10 
REMARK       I    between atoms: C_10  and  N_11 
REMARK    2  A    between atoms: N_11  and  C_12 
REMARK    3  A    between atoms: C_12  and  C_13 
REMARK    4  A    between atoms: C_12  and  C_22 
REMARK       I    between atoms: C_13  and  N_14 
REMARK    5  A    between atoms: N_14  and  C_15 
REMARK    6  A    between atoms: C_15  and  C_16 
REMARK    7  A    between atoms: C_22  and  C_23 
ROOT
HETATM    1  C   UNL     1      26.599  45.108  52.494  1.00  0.00     0.180 C 
ENDROOT
BRANCH   1   2
HETATM    2  N   UNL     1      26.184  46.221  51.615  1.00  0.00    -0.346 N 
HETATM    3  C   UNL     1      26.468  46.218  50.271  1.00  0.00     0.249 C 
HETATM    4  O   UNL     1      27.225  45.425  49.711  1.00  0.00    -0.271 OA
HETATM    5  H   UNL     1      25.329  46.672  51.918  1.00  0.00     0.163 HD
BRANCH   3   6
HETATM    6  C   UNL     1      25.717  47.244  49.416  1.00  0.00     0.281 C 
HETATM    7  N   UNL     1      26.439  48.576  49.496  1.00  0.00    -0.058 N 
HETATM    8  C   UNL     1      25.904  49.578  48.552  1.00  0.00     0.272 C 
HETATM    9  H   UNL     1      26.375  48.915  50.465  1.00  0.00     0.278 HD
HETATM   10  H   UNL     1      27.445  48.398  49.354  1.00  0.00     0.278 HD
HETATM   11  C   UNL     1      24.401  49.648  48.574  1.00  0.00    -0.026 A 
HETATM   12  C   UNL     1      23.625  48.631  49.171  1.00  0.00    -0.048 A 
HETATM   13  C   UNL     1      23.757  50.722  47.941  1.00  0.00     0.009 A 
HETATM   14  C   UNL     1      22.227  48.728  49.153  1.00  0.00     0.008 A 
HETATM   15  C   UNL     1      24.274  47.457  49.871  1.00  0.00     0.082 C 
HETATM   16  C   UNL     1      21.602  49.804  48.526  1.00  0.00     0.001 A 
HETATM   17  C   UNL     1      22.365  50.797  47.919  1.00  0.00     0.001 A 
ENDBRANCH   3   6
ENDBRANCH   1   2
BRANCH   1  18
HETATM   18  C   UNL     1      27.129  45.740  53.803  1.00  0.00     0.241 C 
HETATM   19  N   UNL     1      28.303  45.235  54.296  1.00  0.00    -0.353 N 
HETATM   20  H   UNL     1      28.818  44.500  53.824  1.00  0.00     0.162 HD
HETATM   21  O   UNL     1      26.568  46.713  54.317  1.00  0.00    -0.271 OA
BRANCH  19  22
HETATM   22  C   UNL     1      28.959  45.853  55.426  1.00  0.00     0.187 C 
BRANCH  22  23
HETATM   23  C   UNL     1      29.945  44.924  56.034  1.00  0.00     0.070 A 
HETATM   24  O   UNL     1      30.392  45.200  57.297  1.00  0.00    -0.325 OA
HETATM   25  C   UNL     1      31.278  44.224  57.625  1.00  0.00     0.142 A 
HETATM   26  C   UNL     1      31.401  43.318  56.598  1.00  0.00     0.027 A 
HETATM   27  C   UNL     1      30.539  43.766  55.571  1.00  0.00     0.036 A 
ENDBRANCH  22  23
ENDBRANCH  19  22
ENDBRANCH   1  18
BRANCH   1  28
HETATM   28  C   UNL     1      25.550  43.999  52.686  1.00  0.00     0.075 C 
BRANCH  28  29
HETATM   29  C   UNL     1      25.627  42.952  51.609  1.00  0.00    -0.028 A 
HETATM   30  C   UNL     1      26.673  41.994  51.401  1.00  0.00    -0.002 A 
HETATM   31  C   UNL     1      26.305  41.206  50.309  1.00  0.00     0.042 A 
HETATM   32  C   UNL     1      27.906  41.724  52.033  1.00  0.00     0.014 A 
HETATM   33  C   UNL     1      27.095  40.154  49.830  1.00  0.00     0.030 A 
HETATM   34  N   UNL     1      25.104  41.687  49.846  1.00  0.00    -0.365 N 
HETATM   35  C   UNL     1      28.308  39.905  50.479  1.00  0.00     0.002 A 
HETATM   36  C   UNL     1      28.712  40.681  51.562  1.00  0.00     0.001 A 
HETATM   37  H   UNL     1      24.615  41.325  49.038  1.00  0.00     0.165 HD
HETATM   38  C   UNL     1      24.684  42.734  50.621  1.00  0.00     0.096 A 
ENDBRANCH  28  29
ENDBRANCH   1  28
TORSDOF 7
ENDMDL
MODEL 8
REMARK VINA RESULT:      -9.8      2.009      7.931
REMARK  7 active torsions:
REMARK  status: ('A' for Active; 'I' for Inactive)
REMARK    1  A    between atoms: C_9  and  C_10 
REMARK       I    between atoms: C_10  and  N_11 
REMARK    2  A    between atoms: N_11  and  C_12 
REMARK    3  A    between atoms: C_12  and  C_13 
REMARK    4  A    between atoms: C_12  and  C_22 
REMARK       I    between atoms: C_13  and  N_14 
REMARK    5  A    between atoms: N_14  and  C_15 
REMARK    6  A    between atoms: C_15  and  C_16 
REMARK    7  A    between atoms: C_22  and  C_23 
ROOT
HETATM    1  C   UNL     1      26.391  44.568  50.552  1.00  0.00     0.180 C 
ENDROOT
BRANCH   1   2
HETATM    2  N   UNL     1      27.124  44.820  51.810  1.00  0.00    -0.346 N 
HETATM    3  C   UNL     1      26.467  44.965  53.008  1.00  0.00     0.249 C 
HETATM    4  O   UNL     1      25.248  45.085  53.135  1.00  0.00    -0.271 OA
HETATM    5  H   UNL     1      28.048  44.406  51.824  1.00  0.00     0.163 HD
BRANCH   3   6
HETATM    6  C   UNL     1      27.332  44.894  54.271  1.00  0.00     0.281 C 
HETATM    7  N   UNL     1      27.715  46.303  54.685  1.00  0.00    -0.058 N 
HETATM    8  C   UNL     1      28.386  46.354  55.999  1.00  0.00     0.272 C 
HETATM    9  H   UNL     1      28.318  46.698  53.951  1.00  0.00     0.278 HD
HETATM   10  H   UNL     1      26.862  46.884  54.654  1.00  0.00     0.278 HD
HETATM   11  C   UNL     1      29.467  45.316  56.137  1.00  0.00    -0.026 A 
HETATM   12  C   UNL     1      29.562  44.228  55.243  1.00  0.00    -0.048 A 
HETATM   13  C   UNL     1      30.369  45.406  57.208  1.00  0.00     0.009 A 
HETATM   14  C   UNL     1      30.574  43.275  55.419  1.00  0.00     0.008 A 
HETATM   15  C   UNL     1      28.617  44.092  54.069  1.00  0.00     0.082 C 
HETATM   16  C   UNL     1      31.466  43.381  56.484  1.00  0.00     0.001 A 
HETATM   17  C   UNL     1      31.362  44.442  57.379  1.00  0.00     0.001 A 
ENDBRANCH   3   6
ENDBRANCH   1   2
BRANCH   1  18
HETATM   18  C   UNL     1      26.041  45.949  49.949  1.00  0.00     0.241 C 
HETATM   19  N   UNL     1      24.822  46.475  50.288  1.00  0.00    -0.353 N 
HETATM   20  H   UNL     1      24.183  46.003  50.918  1.00  0.00     0.162 HD
HETATM   21  O   UNL     1      26.862  46.580  49.276  1.00  0.00    -0.271 OA
BRANCH  19  22
HETATM   22  C   UNL     1      24.462  47.820  49.900  1.00  0.00     0.187 C 
BRANCH  22  23
HETATM   23  C   UNL     1      23.169  47.828  49.169  1.00  0.00     0.070 A 
HETATM   24  O   UNL     1      22.664  46.629  48.747  1.00  0.00    -0.325 OA
HETATM   25  C   UNL     1      21.495  46.895  48.107  1.00  0.00     0.142 A 
HETATM   26  C   UNL     1      21.235  48.246  48.120  1.00  0.00     0.027 A 
HETATM   27  C   UNL     1      22.313  48.849  48.808  1.00  0.00     0.036 A 
ENDBRANCH  22  23
ENDBRANCH  19  22
ENDBRANCH   1  18
BRANCH   1  28
HETATM   28  C   UNL     1      27.072  43.588  49.582  1.00  0.00     0.075 C 
BRANCH  28  29
HETATM   29  C   UNL     1      26.839  42.153  49.967  1.00  0.00    -0.028 A 
HETATM   30  C   UNL     1      27.319  40.983  49.292  1.00  0.00    -0.002 A 
HETATM   31  C   UNL     1      26.888  39.874  50.022  1.00  0.00     0.042 A 
HETATM   32  C   UNL     1      28.076  40.758  48.122  1.00  0.00     0.014 A 
HETATM   33  C   UNL     1      27.188  38.558  49.653  1.00  0.00     0.030 A 
HETATM   34  N   UNL     1      26.143  40.345  51.076  1.00  0.00    -0.365 N 
HETATM   35  C   UNL     1      27.944  38.364  48.493  1.00  0.00     0.002 A 
HETATM   36  C   UNL     1      28.378  39.447  47.734  1.00  0.00     0.001 A 
HETATM   37  H   UNL     1      25.676  39.758  51.755  1.00  0.00     0.165 HD
HETATM   38  C   UNL     1      26.110  41.713  51.057  1.00  0.00     0.096 A 
ENDBRANCH  28  29
ENDBRANCH   1  28
TORSDOF 7
ENDMDL
MODEL 9
REMARK VINA RESULT:      -9.7      2.501      7.936
REMARK  7 active torsions:
REMARK  status: ('A' for Active; 'I' for Inactive)
REMARK    1  A    between atoms: C_9  and  C_10 
REMARK       I    between atoms: C_10  and  N_11 
REMARK    2  A    between atoms: N_11  and  C_12 
REMARK    3  A    between atoms: C_12  and  C_13 
REMARK    4  A    between atoms: C_12  and  C_22 
REMARK       I    between atoms: C_13  and  N_14 
REMARK    5  A    between atoms: N_14  and  C_15 
REMARK    6  A    between atoms: C_15  and  C_16 
REMARK    7  A    between atoms: C_22  and  C_23 
ROOT
HETATM    1  C   UNL     1      25.762  45.510  50.167  1.00  0.00     0.180 C 
ENDROOT
BRANCH   1   2
HETATM    2  N   UNL     1      26.422  45.637  51.483  1.00  0.00    -0.346 N 
HETATM    3  C   UNL     1      25.899  45.048  52.608  1.00  0.00     0.249 C 
HETATM    4  O   UNL     1      24.782  44.535  52.683  1.00  0.00    -0.271 OA
HETATM    5  H   UNL     1      27.429  45.726  51.418  1.00  0.00     0.163 HD
BRANCH   3   6
HETATM    6  C   UNL     1      26.824  44.972  53.828  1.00  0.00     0.281 C 
HETATM    7  N   UNL     1      27.301  46.371  54.172  1.00  0.00    -0.058 N 
HETATM    8  C   UNL     1      28.042  46.427  55.448  1.00  0.00     0.272 C 
HETATM    9  H   UNL     1      27.885  46.708  53.395  1.00  0.00     0.278 HD
HETATM   10  H   UNL     1      26.480  46.995  54.164  1.00  0.00     0.278 HD
HETATM   11  C   UNL     1      29.073  45.337  55.568  1.00  0.00    -0.026 A 
HETATM   12  C   UNL     1      29.063  44.217  54.709  1.00  0.00    -0.048 A 
HETATM   13  C   UNL     1      30.032  45.413  56.589  1.00  0.00     0.009 A 
HETATM   14  C   UNL     1      30.032  43.217  54.867  1.00  0.00     0.008 A 
HETATM   15  C   UNL     1      28.052  44.095  53.590  1.00  0.00     0.082 C 
HETATM   16  C   UNL     1      30.982  43.309  55.882  1.00  0.00     0.001 A 
HETATM   17  C   UNL     1      30.981  44.402  56.742  1.00  0.00     0.001 A 
ENDBRANCH   3   6
ENDBRANCH   1   2
BRANCH   1  18
HETATM   18  C   UNL     1      25.790  44.010  49.791  1.00  0.00     0.241 C 
HETATM   19  N   UNL     1      24.604  43.332  49.885  1.00  0.00    -0.353 N 
HETATM   20  H   UNL     1      23.740  43.785  50.163  1.00  0.00     0.162 HD
HETATM   21  O   UNL     1      26.811  43.482  49.339  1.00  0.00    -0.271 OA
BRANCH  19  22
HETATM   22  C   UNL     1      24.489  41.969  49.416  1.00  0.00     0.187 C 
BRANCH  22  23
HETATM   23  C   UNL     1      23.663  41.904  48.184  1.00  0.00     0.070 A 
HETATM   24  O   UNL     1      22.494  41.195  48.233  1.00  0.00    -0.325 OA
HETATM   25  C   UNL     1      21.930  41.277  47.000  1.00  0.00     0.142 A 
HETATM   26  C   UNL     1      22.710  42.037  46.161  1.00  0.00     0.027 A 
HETATM   27  C   UNL     1      23.829  42.445  46.925  1.00  0.00     0.036 A 
ENDBRANCH  22  23
ENDBRANCH  19  22
ENDBRANCH   1  18
BRANCH   1  28
HETATM   28  C   UNL     1      24.383  46.182  50.057  1.00  0.00     0.075 C 
BRANCH  28  29
HETATM   29  C   UNL     1      24.472  47.572  49.490  1.00  0.00    -0.028 A 
HETATM   30  C   UNL     1      23.398  48.372  48.978  1.00  0.00    -0.002 A 
HETATM   31  C   UNL     1      23.940  49.599  48.591  1.00  0.00     0.042 A 
HETATM   32  C   UNL     1      22.013  48.169  48.798  1.00  0.00     0.014 A 
HETATM   33  C   UNL     1      23.169  50.635  48.053  1.00  0.00     0.030 A 
HETATM   34  N   UNL     1      25.294  49.536  48.820  1.00  0.00    -0.365 N 
HETATM   35  C   UNL     1      21.799  50.409  47.892  1.00  0.00     0.002 A 
HETATM   36  C   UNL     1      21.228  49.193  48.254  1.00  0.00     0.001 A 
HETATM   37  H   UNL     1      25.947  50.278  48.601  1.00  0.00     0.165 HD
HETATM   38  C   UNL     1      25.625  48.325  49.364  1.00  0.00     0.096 A 
ENDBRANCH  28  29
ENDBRANCH   1  28
TORSDOF 7
ENDMDL
MODEL 10
REMARK VINA RESULT:      -9.7      1.806      7.143
REMARK  7 active torsions:
REMARK  status: ('A' for Active; 'I' for Inactive)
REMARK    1  A    between atoms: C_9  and  C_10 
REMARK       I    between atoms: C_10  and  N_11 
REMARK    2  A    between atoms: N_11  and  C_12 
REMARK    3  A    between atoms: C_12  and  C_13 
REMARK    4  A    between atoms: C_12  and  C_22 
REMARK       I    between atoms: C_13  and  N_14 
REMARK    5  A    between atoms: N_14  and  C_15 
REMARK    6  A    between atoms: C_15  and  C_16 
REMARK    7  A    between atoms: C_22  and  C_23 
ROOT
HETATM    1  C   UNL     1      26.034  42.437  51.041  1.00  0.00     0.180 C 
ENDROOT
BRANCH   1   2
HETATM    2  N   UNL     1      26.701  42.623  52.346  1.00  0.00    -0.346 N 
HETATM    3  C   UNL     1      27.810  43.424  52.477  1.00  0.00     0.249 C 
HETATM    4  O   UNL     1      28.453  43.899  51.541  1.00  0.00    -0.271 OA
HETATM    5  H   UNL     1      26.066  42.560  53.132  1.00  0.00     0.163 HD
BRANCH   3   6
HETATM    6  C   UNL     1      28.212  43.798  53.908  1.00  0.00     0.281 C 
HETATM    7  N   UNL     1      28.129  45.305  54.064  1.00  0.00    -0.058 N 
HETATM    8  C   UNL     1      28.309  45.749  55.462  1.00  0.00     0.272 C 
HETATM    9  H   UNL     1      28.839  45.728  53.452  1.00  0.00     0.278 HD
HETATM   10  H   UNL     1      27.230  45.614  53.665  1.00  0.00     0.278 HD
HETATM   11  C   UNL     1      29.482  45.086  56.132  1.00  0.00    -0.026 A 
HETATM   12  C   UNL     1      30.092  43.938  55.583  1.00  0.00    -0.048 A 
HETATM   13  C   UNL     1      29.945  45.591  57.356  1.00  0.00     0.009 A 
HETATM   14  C   UNL     1      31.171  43.342  56.250  1.00  0.00     0.008 A 
HETATM   15  C   UNL     1      29.632  43.360  54.262  1.00  0.00     0.082 C 
HETATM   16  C   UNL     1      31.624  43.860  57.462  1.00  0.00     0.001 A 
HETATM   17  C   UNL     1      31.011  44.979  58.016  1.00  0.00     0.001 A 
ENDBRANCH   3   6
ENDBRANCH   1   2
BRANCH   1  18
HETATM   18  C   UNL     1      26.628  41.157  50.408  1.00  0.00     0.241 C 
HETATM   19  N   UNL     1      27.771  41.312  49.669  1.00  0.00    -0.353 N 
HETATM   20  H   UNL     1      28.225  42.211  49.553  1.00  0.00     0.162 HD
HETATM   21  O   UNL     1      26.146  40.044  50.642  1.00  0.00    -0.271 OA
BRANCH  19  22
HETATM   22  C   UNL     1      28.487  40.164  49.161  1.00  0.00     0.187 C 
BRANCH  22  23
HETATM   23  C   UNL     1      28.202  39.962  47.718  1.00  0.00     0.070 A 
HETATM   24  O   UNL     1      28.114  38.678  47.255  1.00  0.00    -0.325 OA
HETATM   25  C   UNL     1      27.858  38.754  45.923  1.00  0.00     0.142 A 
HETATM   26  C   UNL     1      27.768  40.067  45.522  1.00  0.00     0.027 A 
HETATM   27  C   UNL     1      27.988  40.848  46.681  1.00  0.00     0.036 A 
ENDBRANCH  22  23
ENDBRANCH  19  22
ENDBRANCH   1  18
BRANCH   1  28
HETATM   28  C   UNL     1      24.497  42.491  51.077  1.00  0.00     0.075 C 
BRANCH  28  29
HETATM   29  C   UNL     1      23.948  43.628  50.260  1.00  0.00    -0.028 A 
HETATM   30  C   UNL     1      24.243  45.023  50.403  1.00  0.00    -0.002 A 
HETATM   31  C   UNL     1      23.534  45.703  49.411  1.00  0.00     0.042 A 
HETATM   32  C   UNL     1      25.041  45.779  51.289  1.00  0.00     0.014 A 
HETATM   33  C   UNL     1      23.598  47.092  49.248  1.00  0.00     0.030 A 
HETATM   34  N   UNL     1      22.807  44.767  48.716  1.00  0.00    -0.365 N 
HETATM   35  C   UNL     1      24.401  47.814  50.135  1.00  0.00     0.002 A 
HETATM   36  C   UNL     1      25.109  47.170  51.145  1.00  0.00     0.001 A 
HETATM   37  H   UNL     1      22.174  44.982  47.957  1.00  0.00     0.165 HD
HETATM   38  C   UNL     1      23.050  43.515  49.214  1.00  0.00     0.096 A 
ENDBRANCH  28  29
ENDBRANCH   1  28
TORSDOF 7
ENDMDL
