MODEL 1
REMARK VINA RESULT:      -8.5      0.000      0.000
REMARK  5 active torsions:
REMARK  status: ('A' for Active; 'I' for Inactive)
REMARK    1  A    between atoms: C_3  and  N_4 
REMARK       I    between atoms: N_4  and  C_5 
REMARK       I    between atoms: C_5  and  N_6 
REMARK    2  A    between atoms: N_6  and  C_7 
REMARK    3  A    between atoms: C_7  and  C_8 
REMARK    4  A    between atoms: C_8  and  O_9 
REMARK    5  A    between atoms: O_9  and  C_10 
ROOT
HETATM    1  N   UNL     1      25.276  46.802  50.290  1.00  0.00    -0.307 N 
HETATM    2  C   UNL     1      25.183  46.668  51.656  1.00  0.00     0.320 C 
HETATM    3  N   UNL     1      25.006  45.344  52.006  1.00  0.00    -0.340 N 
HETATM    4  O   UNL     1      25.229  47.571  52.476  1.00  0.00    -0.247 OA
HETATM    5  H   UNL     1      24.685  46.153  49.788  1.00  0.00     0.170 HD
HETATM    6  H   UNL     1      25.396  44.701  51.333  1.00  0.00     0.164 HD
ENDROOT
BRANCH   3   7
HETATM    7  C   UNL     1      25.153  44.931  53.399  1.00  0.00     0.156 C 
BRANCH   7   8
HETATM    8  C   UNL     1      26.409  44.088  53.713  1.00  0.00     0.142 C 
HETATM    9  C   UNL     1      26.296  43.384  55.068  1.00  0.00     0.042 C 
BRANCH   8  10
HETATM   10  O   UNL     1      27.532  44.979  53.860  1.00  0.00    -0.345 OA
BRANCH  10  11
HETATM   11  C   UNL     1      28.633  44.556  54.543  1.00  0.00     0.069 A 
HETATM   12  C   UNL     1      29.387  43.417  54.266  1.00  0.00     0.038 A 
HETATM   13  C   UNL     1      30.504  43.110  55.052  1.00  0.00     0.026 A 
HETATM   14  C   UNL     1      30.870  43.948  56.105  1.00  0.00     0.034 A 
HETATM   15 CL   UNL     1      32.242  43.565  57.069  1.00  0.00    -0.084 Cl
HETATM   16  C   UNL     1      30.133  45.096  56.376  1.00  0.00     0.026 A 
HETATM   17  C   UNL     1      29.019  45.399  55.591  1.00  0.00     0.038 A 
ENDBRANCH  10  11
ENDBRANCH   8  10
ENDBRANCH   7   8
ENDBRANCH   3   7
BRANCH   1  18
HETATM   18  C   UNL     1      25.669  47.965  49.583  1.00  0.00     0.059 A 
HETATM   19  C   UNL     1      24.812  48.881  48.952  1.00  0.00    -0.032 A 
HETATM   20  C   UNL     1      23.311  48.811  48.970  1.00  0.00     0.050 C 
HETATM   21  C   UNL     1      25.386  49.968  48.269  1.00  0.00     0.028 A 
HETATM   22  C   UNL     1      26.760  50.143  48.288  1.00  0.00     0.117 A 
HETATM   23  N   UNL     1      27.602  49.322  48.937  1.00  0.00    -0.271 NA
HETATM   24  C   UNL     1      27.036  48.263  49.563  1.00  0.00     0.146 A 
ENDBRANCH   1  18
TORSDOF 5
ENDMDL
MODEL 2
REMARK VINA RESULT:      -8.4      3.866      8.286
REMARK  5 active torsions:
REMARK  status: ('A' for Active; 'I' for Inactive)
REMARK    1  A    between atoms: C_3  and  N_4 
REMARK       I    between atoms: N_4  and  C_5 
REMARK       I    between atoms: C_5  and  N_6 
REMARK    2  A    between atoms: N_6  and  C_7 
REMARK    3  A    between atoms: C_7  and  C_8 
REMARK    4  A    between atoms: C_8  and  O_9 
REMARK    5  A    between atoms: O_9  and  C_10 
ROOT
HETATM    1  N   UNL     1      28.529  45.507  54.694  1.00  0.00    -0.307 N 
HETATM    2  C   UNL     1      27.278  45.008  54.418  1.00  0.00     0.320 C 
HETATM    3  N   UNL     1      26.699  45.692  53.367  1.00  0.00    -0.340 N 
HETATM    4  O   UNL     1      26.716  44.097  55.006  1.00  0.00    -0.247 OA
HETATM    5  H   UNL     1      28.593  46.507  54.562  1.00  0.00     0.170 HD
HETATM    6  H   UNL     1      27.377  46.089  52.733  1.00  0.00     0.164 HD
ENDROOT
BRANCH   3   7
HETATM    7  C   UNL     1      25.498  45.167  52.725  1.00  0.00     0.156 C 
BRANCH   7   8
HETATM    8  C   UNL     1      25.471  45.264  51.184  1.00  0.00     0.142 C 
HETATM    9  C   UNL     1      26.045  44.007  50.526  1.00  0.00     0.042 C 
BRANCH   8  10
HETATM   10  O   UNL     1      26.358  46.324  50.777  1.00  0.00    -0.345 OA
BRANCH  10  11
HETATM   11  C   UNL     1      25.855  47.383  50.083  1.00  0.00     0.069 A 
HETATM   12  C   UNL     1      26.597  48.390  49.466  1.00  0.00     0.038 A 
HETATM   13  C   UNL     1      25.941  49.417  48.777  1.00  0.00     0.026 A 
HETATM   14  C   UNL     1      24.549  49.430  48.698  1.00  0.00     0.034 A 
HETATM   15 CL   UNL     1      23.750  50.697  47.853  1.00  0.00    -0.084 Cl
HETATM   16  C   UNL     1      23.804  48.420  49.296  1.00  0.00     0.026 A 
HETATM   17  C   UNL     1      24.460  47.397  49.983  1.00  0.00     0.038 A 
ENDBRANCH  10  11
ENDBRANCH   8  10
ENDBRANCH   7   8
ENDBRANCH   3   7
BRANCH   1  18
HETATM   18  C   UNL     1      29.497  44.928  55.551  1.00  0.00     0.059 A 
HETATM   19  C   UNL     1      30.249  43.771  55.290  1.00  0.00    -0.032 A 
HETATM   20  C   UNL     1      30.193  42.974  54.017  1.00  0.00     0.050 C 
HETATM   21  C   UNL     1      31.148  43.325  56.276  1.00  0.00     0.028 A 
HETATM   22  C   UNL     1      31.315  44.062  57.437  1.00  0.00     0.117 A 
HETATM   23  N   UNL     1      30.660  45.208  57.688  1.00  0.00    -0.271 NA
HETATM   24  C   UNL     1      29.776  45.607  56.743  1.00  0.00     0.146 A 
ENDBRANCH   1  18
TORSDOF 5
ENDMDL
MODEL 3
REMARK VINA RESULT:      -8.3      1.979      2.573
REMARK  5 active torsions:
REMARK  status: ('A' for Active; 'I' for Inactive)
REMARK    1  A    between atoms: C_3  and  N_4 
REMARK       I    between atoms: N_4  and  C_5 
REMARK       I    between atoms: C_5  and  N_6 
REMARK    2  A    between atoms: N_6  and  C_7 
REMARK    3  A    between atoms: C_7  and  C_8 
REMARK    4  A    between atoms: C_8  and  O_9 
REMARK    5  A    between atoms: O_9  and  C_10 
ROOT
HETATM    1  N   UNL     1      26.034  46.909  50.655  1.00  0.00    -0.307 N 
HETATM    2  C   UNL     1      26.497  45.668  50.284  1.00  0.00     0.320 C 
HETATM    3  N   UNL     1      26.637  44.849  51.387  1.00  0.00    -0.340 N 
HETATM    4  O   UNL     1      26.773  45.307  49.151  1.00  0.00    -0.247 OA
HETATM    5  H   UNL     1      26.394  47.213  51.550  1.00  0.00     0.170 HD
HETATM    6  H   UNL     1      26.012  45.091  52.142  1.00  0.00     0.164 HD
ENDROOT
BRANCH   3   7
HETATM    7  C   UNL     1      26.852  43.415  51.210  1.00  0.00     0.156 C 
BRANCH   7   8
HETATM    8  C   UNL     1      28.094  42.836  51.923  1.00  0.00     0.142 C 
HETATM    9  C   UNL     1      28.401  41.410  51.459  1.00  0.00     0.042 C 
BRANCH   8  10
HETATM   10  O   UNL     1      27.797  42.705  53.326  1.00  0.00    -0.345 OA
BRANCH  10  11
HETATM   11  C   UNL     1      28.534  43.408  54.232  1.00  0.00     0.069 A 
HETATM   12  C   UNL     1      29.803  43.070  54.700  1.00  0.00     0.038 A 
HETATM   13  C   UNL     1      30.447  43.896  55.629  1.00  0.00     0.026 A 
HETATM   14  C   UNL     1      29.827  45.060  56.079  1.00  0.00     0.034 A 
HETATM   15 CL   UNL     1      30.622  46.070  57.222  1.00  0.00    -0.084 Cl
HETATM   16  C   UNL     1      28.569  45.413  55.603  1.00  0.00     0.026 A 
HETATM   17  C   UNL     1      27.928  44.588  54.677  1.00  0.00     0.038 A 
ENDBRANCH  10  11
ENDBRANCH   8  10
ENDBRANCH   7   8
ENDBRANCH   3   7
BRANCH   1  18
HETATM   18  C   UNL     1      25.572  47.929  49.788  1.00  0.00     0.059 A 
HETATM   19  C   UNL     1      26.368  48.871  49.117  1.00  0.00    -0.032 A 
HETATM   20  C   UNL     1      27.869  48.922  49.163  1.00  0.00     0.050 C 
HETATM   21  C   UNL     1      25.727  49.833  48.315  1.00  0.00     0.028 A 
HETATM   22  C   UNL     1      24.352  49.790  48.157  1.00  0.00     0.117 A 
HETATM   23  N   UNL     1      23.569  48.861  48.732  1.00  0.00    -0.271 NA
HETATM   24  C   UNL     1      24.197  47.962  49.525  1.00  0.00     0.146 A 
ENDBRANCH   1  18
TORSDOF 5
ENDMDL
MODEL 4
REMARK VINA RESULT:      -8.1      4.375      7.808
REMARK  5 active torsions:
REMARK  status: ('A' for Active; 'I' for Inactive)
REMARK    1  A    between atoms: C_3  and  N_4 
REMARK       I    between atoms: N_4  and  C_5 
REMARK       I    between atoms: C_5  and  N_6 
REMARK    2  A    between atoms: N_6  and  C_7 
REMARK    3  A    between atoms: C_7  and  C_8 
REMARK    4  A    between atoms: C_8  and  O_9 
REMARK    5  A    between atoms: O_9  and  C_10 
ROOT
HETATM    1  N   UNL     1      30.399  43.394  54.374  1.00  0.00    -0.307 N 
HETATM    2  C   UNL     1      29.317  42.656  53.954  1.00  0.00     0.320 C 
HETATM    3  N   UNL     1      29.598  42.008  52.768  1.00  0.00    -0.340 N 
HETATM    4  O   UNL     1      28.237  42.571  54.516  1.00  0.00    -0.247 OA
HETATM    5  H   UNL     1      30.918  43.804  53.610  1.00  0.00     0.170 HD
HETATM    6  H   UNL     1      30.581  41.815  52.645  1.00  0.00     0.164 HD
ENDROOT
BRANCH   3   7
HETATM    7  C   UNL     1      28.706  40.961  52.277  1.00  0.00     0.156 C 
BRANCH   7   8
HETATM    8  C   UNL     1      27.408  41.455  51.602  1.00  0.00     0.142 C 
HETATM    9  C   UNL     1      26.812  40.396  50.672  1.00  0.00     0.042 C 
BRANCH   8  10
HETATM   10  O   UNL     1      27.735  42.557  50.733  1.00  0.00    -0.345 OA
BRANCH  10  11
HETATM   11  C   UNL     1      27.002  43.703  50.806  1.00  0.00     0.069 A 
HETATM   12  C   UNL     1      26.760  44.455  51.954  1.00  0.00     0.038 A 
HETATM   13  C   UNL     1      25.991  45.622  51.876  1.00  0.00     0.026 A 
HETATM   14  C   UNL     1      25.475  46.039  50.650  1.00  0.00     0.034 A 
HETATM   15 CL   UNL     1      24.529  47.473  50.561  1.00  0.00    -0.084 Cl
HETATM   16  C   UNL     1      25.727  45.305  49.497  1.00  0.00     0.026 A 
HETATM   17  C   UNL     1      26.494  44.141  49.578  1.00  0.00     0.038 A 
ENDBRANCH  10  11
ENDBRANCH   8  10
ENDBRANCH   7   8
ENDBRANCH   3   7
BRANCH   1  18
HETATM   18  C   UNL     1      30.558  44.011  55.639  1.00  0.00     0.059 A 
HETATM   19  C   UNL     1      29.950  45.204  56.061  1.00  0.00    -0.032 A 
HETATM   20  C   UNL     1      28.972  46.008  55.252  1.00  0.00     0.050 C 
HETATM   21  C   UNL     1      30.249  45.684  57.350  1.00  0.00     0.028 A 
HETATM   22  C   UNL     1      31.073  44.946  58.183  1.00  0.00     0.117 A 
HETATM   23  N   UNL     1      31.617  43.768  57.833  1.00  0.00    -0.271 NA
HETATM   24  C   UNL     1      31.345  43.336  56.579  1.00  0.00     0.146 A 
ENDBRANCH   1  18
TORSDOF 5
ENDMDL
MODEL 5
REMARK VINA RESULT:      -8.1      3.716      5.874
REMARK  5 active torsions:
REMARK  status: ('A' for Active; 'I' for Inactive)
REMARK    1  A    between atoms: C_3  and  N_4 
REMARK       I    between atoms: N_4  and  C_5 
REMARK       I    between atoms: C_5  and  N_6 
REMARK    2  A    between atoms: N_6  and  C_7 
REMARK    3  A    between atoms: C_7  and  C_8 
REMARK    4  A    between atoms: C_8  and  O_9 
REMARK    5  A    between atoms: O_9  and  C_10 
ROOT
HETATM    1  N   UNL     1      25.993  41.655  51.529  1.00  0.00    -0.307 N 
HETATM    2  C   UNL     1      25.969  43.030  51.488  1.00  0.00     0.320 C 
HETATM    3  N   UNL     1      25.330  43.541  52.601  1.00  0.00    -0.340 N 
HETATM    4  O   UNL     1      26.423  43.735  50.602  1.00  0.00    -0.247 OA
HETATM    5  H   UNL     1      25.160  41.258  51.941  1.00  0.00     0.170 HD
HETATM    6  H   UNL     1      25.389  42.933  53.404  1.00  0.00     0.164 HD
ENDROOT
BRANCH   3   7
HETATM    7  C   UNL     1      25.423  44.965  52.907  1.00  0.00     0.156 C 
BRANCH   7   8
HETATM    8  C   UNL     1      26.365  45.335  54.073  1.00  0.00     0.142 C 
HETATM    9  C   UNL     1      26.177  46.788  54.517  1.00  0.00     0.042 C 
BRANCH   8  10
HETATM   10  O   UNL     1      27.724  45.273  53.601  1.00  0.00    -0.345 OA
BRANCH  10  11
HETATM   11  C   UNL     1      28.714  44.911  54.464  1.00  0.00     0.069 A 
HETATM   12  C   UNL     1      29.200  45.671  55.527  1.00  0.00     0.038 A 
HETATM   13  C   UNL     1      30.220  45.164  56.340  1.00  0.00     0.026 A 
HETATM   14  C   UNL     1      30.745  43.896  56.095  1.00  0.00     0.034 A 
HETATM   15 CL   UNL     1      32.000  43.279  57.096  1.00  0.00    -0.084 Cl
HETATM   16  C   UNL     1      30.254  43.124  55.048  1.00  0.00     0.026 A 
HETATM   17  C   UNL     1      29.236  43.633  54.239  1.00  0.00     0.038 A 
ENDBRANCH  10  11
ENDBRANCH   8  10
ENDBRANCH   7   8
ENDBRANCH   3   7
BRANCH   1  18
HETATM   18  C   UNL     1      26.740  40.800  50.682  1.00  0.00     0.059 A 
HETATM   19  C   UNL     1      28.047  40.340  50.911  1.00  0.00    -0.032 A 
HETATM   20  C   UNL     1      28.863  40.636  52.137  1.00  0.00     0.050 C 
HETATM   21  C   UNL     1      28.642  39.516  49.939  1.00  0.00     0.028 A 
HETATM   22  C   UNL     1      27.914  39.131  48.826  1.00  0.00     0.117 A 
HETATM   23  N   UNL     1      26.640  39.499  48.609  1.00  0.00    -0.271 NA
HETATM   24  C   UNL     1      26.092  40.318  49.539  1.00  0.00     0.146 A 
ENDBRANCH   1  18
TORSDOF 5
ENDMDL
MODEL 6
REMARK VINA RESULT:      -8.1      1.909      3.060
REMARK  5 active torsions:
REMARK  status: ('A' for Active; 'I' for Inactive)
REMARK    1  A    between atoms: C_3  and  N_4 
REMARK       I    between atoms: N_4  and  C_5 
REMARK       I    between atoms: C_5  and  N_6 
REMARK    2  A    between atoms: N_6  and  C_7 
REMARK    3  A    between atoms: C_7  and  C_8 
REMARK    4  A    between atoms: C_8  and  O_9 
REMARK    5  A    between atoms: O_9  and  C_10 
ROOT
HETATM    1  N   UNL     1      23.841  47.432  49.082  1.00  0.00    -0.307 N 
HETATM    2  C   UNL     1      24.744  47.100  50.064  1.00  0.00     0.320 C 
HETATM    3  N   UNL     1      25.345  45.888  49.785  1.00  0.00    -0.340 N 
HETATM    4  O   UNL     1      24.997  47.750  51.066  1.00  0.00    -0.247 OA
HETATM    5  H   UNL     1      23.357  46.630  48.703  1.00  0.00     0.170 HD
HETATM    6  H   UNL     1      25.379  45.682  48.798  1.00  0.00     0.164 HD
ENDROOT
BRANCH   3   7
HETATM    7  C   UNL     1      26.524  45.467  50.537  1.00  0.00     0.156 C 
BRANCH   7   8
HETATM    8  C   UNL     1      26.294  44.322  51.548  1.00  0.00     0.142 C 
HETATM    9  C   UNL     1      24.878  43.751  51.447  1.00  0.00     0.042 C 
BRANCH   8  10
HETATM   10  O   UNL     1      26.371  44.866  52.880  1.00  0.00    -0.345 OA
BRANCH  10  11
HETATM   11  C   UNL     1      27.475  44.616  53.639  1.00  0.00     0.069 A 
HETATM   12  C   UNL     1      28.015  45.458  54.610  1.00  0.00     0.038 A 
HETATM   13  C   UNL     1      29.155  45.063  55.321  1.00  0.00     0.026 A 
HETATM   14  C   UNL     1      29.744  43.825  55.067  1.00  0.00     0.034 A 
HETATM   15 CL   UNL     1      31.145  43.347  55.943  1.00  0.00    -0.084 Cl
HETATM   16  C   UNL     1      29.200  42.972  54.113  1.00  0.00     0.026 A 
HETATM   17  C   UNL     1      28.065  43.369  53.405  1.00  0.00     0.038 A 
ENDBRANCH  10  11
ENDBRANCH   8  10
ENDBRANCH   7   8
ENDBRANCH   3   7
BRANCH   1  18
HETATM   18  C   UNL     1      23.198  48.684  48.918  1.00  0.00     0.059 A 
HETATM   19  C   UNL     1      23.798  49.870  48.463  1.00  0.00    -0.032 A 
HETATM   20  C   UNL     1      25.226  49.998  48.015  1.00  0.00     0.050 C 
HETATM   21  C   UNL     1      23.006  51.030  48.390  1.00  0.00     0.028 A 
HETATM   22  C   UNL     1      21.658  50.963  48.702  1.00  0.00     0.117 A 
HETATM   23  N   UNL     1      21.040  49.830  49.077  1.00  0.00    -0.271 NA
HETATM   24  C   UNL     1      21.823  48.729  49.172  1.00  0.00     0.146 A 
ENDBRANCH   1  18
TORSDOF 5
ENDMDL
MODEL 7
REMARK VINA RESULT:      -7.7      6.484     10.524
REMARK  5 active torsions:
REMARK  status: ('A' for Active; 'I' for Inactive)
REMARK    1  A    between atoms: C_3  and  N_4 
REMARK       I    between atoms: N_4  and  C_5 
REMARK       I    between atoms: C_5  and  N_6 
REMARK    2  A    between atoms: N_6  and  C_7 
REMARK    3  A    between atoms: C_7  and  C_8 
REMARK    4  A    between atoms: C_8  and  O_9 
REMARK    5  A    between atoms: O_9  and  C_10 
ROOT
HETATM    1  N   UNL     1      22.907  48.483  49.434  1.00  0.00    -0.307 N 
HETATM    2  C   UNL     1      22.087  47.619  48.747  1.00  0.00     0.320 C 
HETATM    3  N   UNL     1      20.791  47.695  49.219  1.00  0.00    -0.340 N 
HETATM    4  O   UNL     1      22.422  46.863  47.849  1.00  0.00    -0.247 OA
HETATM    5  H   UNL     1      22.660  48.569  50.411  1.00  0.00     0.170 HD
HETATM    6  H   UNL     1      20.568  48.594  49.620  1.00  0.00     0.164 HD
ENDROOT
BRANCH   3   7
HETATM    7  C   UNL     1      19.702  47.076  48.468  1.00  0.00     0.156 C 
BRANCH   7   8
HETATM    8  C   UNL     1      18.767  48.055  47.725  1.00  0.00     0.142 C 
HETATM    9  C   UNL     1      18.862  47.890  46.207  1.00  0.00     0.042 C 
BRANCH   8  10
HETATM   10  O   UNL     1      19.222  49.400  47.972  1.00  0.00    -0.345 OA
BRANCH  10  11
HETATM   11  C   UNL     1      18.348  50.318  48.472  1.00  0.00     0.069 A 
HETATM   12  C   UNL     1      16.958  50.268  48.379  1.00  0.00     0.038 A 
HETATM   13  C   UNL     1      16.183  51.284  48.950  1.00  0.00     0.026 A 
HETATM   14  C   UNL     1      16.798  52.341  49.621  1.00  0.00     0.034 A 
HETATM   15 CL   UNL     1      15.840  53.588  50.318  1.00  0.00    -0.084 Cl
HETATM   16  C   UNL     1      18.183  52.388  49.733  1.00  0.00     0.026 A 
HETATM   17  C   UNL     1      18.954  51.374  49.162  1.00  0.00     0.038 A 
ENDBRANCH  10  11
ENDBRANCH   8  10
ENDBRANCH   7   8
ENDBRANCH   3   7
BRANCH   1  18
HETATM   18  C   UNL     1      24.236  48.834  49.093  1.00  0.00     0.059 A 
HETATM   19  C   UNL     1      25.406  48.269  49.626  1.00  0.00    -0.032 A 
HETATM   20  C   UNL     1      25.444  47.144  50.622  1.00  0.00     0.050 C 
HETATM   21  C   UNL     1      26.646  48.766  49.186  1.00  0.00     0.028 A 
HETATM   22  C   UNL     1      26.685  49.741  48.203  1.00  0.00     0.117 A 
HETATM   23  N   UNL     1      25.586  50.255  47.625  1.00  0.00    -0.271 NA
HETATM   24  C   UNL     1      24.400  49.789  48.082  1.00  0.00     0.146 A 
ENDBRANCH   1  18
TORSDOF 5
ENDMDL
MODEL 8
REMARK VINA RESULT:      -7.6      5.102      9.749
REMARK  5 active torsions:
REMARK  status: ('A' for Active; 'I' for Inactive)
REMARK    1  A    between atoms: C_3  and  N_4 
REMARK       I    between atoms: N_4  and  C_5 
REMARK       I    between atoms: C_5  and  N_6 
REMARK    2  A    between atoms: N_6  and  C_7 
REMARK    3  A    between atoms: C_7  and  C_8 
REMARK    4  A    between atoms: C_8  and  O_9 
REMARK    5  A    between atoms: O_9  and  C_10 
ROOT
HETATM    1  N   UNL     1      25.085  46.540  52.230  1.00  0.00    -0.307 N 
HETATM    2  C   UNL     1      25.183  47.311  51.095  1.00  0.00     0.320 C 
HETATM    3  N   UNL     1      23.972  47.365  50.434  1.00  0.00    -0.340 N 
HETATM    4  O   UNL     1      26.186  47.874  50.687  1.00  0.00    -0.247 OA
HETATM    5  H   UNL     1      24.461  45.753  52.119  1.00  0.00     0.170 HD
HETATM    6  H   UNL     1      23.180  47.240  51.049  1.00  0.00     0.164 HD
ENDROOT
BRANCH   3   7
HETATM    7  C   UNL     1      23.765  48.336  49.364  1.00  0.00     0.156 C 
BRANCH   7   8
HETATM    8  C   UNL     1      22.291  48.666  49.041  1.00  0.00     0.142 C 
HETATM    9  C   UNL     1      21.881  48.145  47.661  1.00  0.00     0.042 C 
BRANCH   8  10
HETATM   10  O   UNL     1      22.153  50.097  48.944  1.00  0.00    -0.345 OA
BRANCH  10  11
HETATM   11  C   UNL     1      20.922  50.660  49.101  1.00  0.00     0.069 A 
HETATM   12  C   UNL     1      20.426  51.762  48.406  1.00  0.00     0.038 A 
HETATM   13  C   UNL     1      19.132  52.228  48.667  1.00  0.00     0.026 A 
HETATM   14  C   UNL     1      18.334  51.585  49.613  1.00  0.00     0.034 A 
HETATM   15 CL   UNL     1      16.746  52.163  49.931  1.00  0.00    -0.084 Cl
HETATM   16  C   UNL     1      18.815  50.473  50.297  1.00  0.00     0.026 A 
HETATM   17  C   UNL     1      20.107  50.012  50.035  1.00  0.00     0.038 A 
ENDBRANCH  10  11
ENDBRANCH   8  10
ENDBRANCH   7   8
ENDBRANCH   3   7
BRANCH   1  18
HETATM   18  C   UNL     1      26.051  46.432  53.260  1.00  0.00     0.059 A 
HETATM   19  C   UNL     1      27.021  45.425  53.385  1.00  0.00    -0.032 A 
HETATM   20  C   UNL     1      27.238  44.308  52.402  1.00  0.00     0.050 C 
HETATM   21  C   UNL     1      27.883  45.464  54.496  1.00  0.00     0.028 A 
HETATM   22  C   UNL     1      27.798  46.515  55.394  1.00  0.00     0.117 A 
HETATM   23  N   UNL     1      26.925  47.529  55.267  1.00  0.00    -0.271 NA
HETATM   24  C   UNL     1      26.082  47.460  54.210  1.00  0.00     0.146 A 
ENDBRANCH   1  18
TORSDOF 5
ENDMDL
MODEL 9
REMARK VINA RESULT:      -7.6      3.343      4.967
REMARK  5 active torsions:
REMARK  status: ('A' for Active; 'I' for Inactive)
REMARK    1  A    between atoms: C_3  and  N_4 
REMARK       I    between atoms: N_4  and  C_5 
REMARK       I    between atoms: C_5  and  N_6 
REMARK    2  A    between atoms: N_6  and  C_7 
REMARK    3  A    between atoms: C_7  and  C_8 
REMARK    4  A    between atoms: C_8  and  O_9 
REMARK    5  A    between atoms: O_9  and  C_10 
ROOT
HETATM    1  N   UNL     1      22.236  48.432  49.595  1.00  0.00    -0.307 N 
HETATM    2  C   UNL     1      22.675  47.388  48.816  1.00  0.00     0.320 C 
HETATM    3  N   UNL     1      23.421  46.499  49.565  1.00  0.00    -0.340 N 
HETATM    4  O   UNL     1      22.470  47.238  47.622  1.00  0.00    -0.247 OA
HETATM    5  H   UNL     1      22.903  48.704  50.304  1.00  0.00     0.170 HD
HETATM    6  H   UNL     1      23.169  46.498  50.543  1.00  0.00     0.164 HD
ENDROOT
BRANCH   3   7
HETATM    7  C   UNL     1      23.760  45.187  49.021  1.00  0.00     0.156 C 
BRANCH   7   8
HETATM    8  C   UNL     1      24.312  44.167  50.040  1.00  0.00     0.142 C 
HETATM    9  C   UNL     1      23.381  42.963  50.201  1.00  0.00     0.042 C 
BRANCH   8  10
HETATM   10  O   UNL     1      24.333  44.786  51.341  1.00  0.00    -0.345 OA
BRANCH  10  11
HETATM   11  C   UNL     1      25.371  44.527  52.186  1.00  0.00     0.069 A 
HETATM   12  C   UNL     1      25.300  44.440  53.575  1.00  0.00     0.038 A 
HETATM   13  C   UNL     1      26.453  44.158  54.317  1.00  0.00     0.026 A 
HETATM   14  C   UNL     1      27.670  43.953  53.668  1.00  0.00     0.034 A 
HETATM   15 CL   UNL     1      29.084  43.609  54.585  1.00  0.00    -0.084 Cl
HETATM   16  C   UNL     1      27.745  44.020  52.281  1.00  0.00     0.026 A 
HETATM   17  C   UNL     1      26.593  44.302  51.544  1.00  0.00     0.038 A 
ENDBRANCH  10  11
ENDBRANCH   8  10
ENDBRANCH   7   8
ENDBRANCH   3   7
BRANCH   1  18
HETATM   18  C   UNL     1      21.278  49.411  49.229  1.00  0.00     0.059 A 
HETATM   19  C   UNL     1      21.553  50.689  48.718  1.00  0.00    -0.032 A 
HETATM   20  C   UNL     1      22.926  51.221  48.416  1.00  0.00     0.050 C 
HETATM   21  C   UNL     1      20.469  51.541  48.437  1.00  0.00     0.028 A 
HETATM   22  C   UNL     1      19.174  51.082  48.607  1.00  0.00     0.117 A 
HETATM   23  N   UNL     1      18.876  49.842  49.031  1.00  0.00    -0.271 NA
HETATM   24  C   UNL     1      19.931  49.046  49.328  1.00  0.00     0.146 A 
ENDBRANCH   1  18
TORSDOF 5
ENDMDL
MODEL 10
REMARK VINA RESULT:      -7.6      6.954     10.541
REMARK  5 active torsions:
REMARK  status: ('A' for Active; 'I' for Inactive)
REMARK    1  A    between atoms: C_3  and  N_4 
REMARK       I    between atoms: N_4  and  C_5 
REMARK       I    between atoms: C_5  and  N_6 
REMARK    2  A    between atoms: N_6  and  C_7 
REMARK    3  A    between atoms: C_7  and  C_8 
REMARK    4  A    between atoms: C_8  and  O_9 
REMARK    5  A    between atoms: O_9  and  C_10 
ROOT
HETATM    1  N   UNL     1      22.639  48.315  49.522  1.00  0.00    -0.307 N 
HETATM    2  C   UNL     1      21.784  47.567  48.746  1.00  0.00     0.320 C 
HETATM    3  N   UNL     1      20.494  47.638  49.232  1.00  0.00    -0.340 N 
HETATM    4  O   UNL     1      22.088  46.906  47.765  1.00  0.00    -0.247 OA
HETATM    5  H   UNL     1      22.398  48.298  50.503  1.00  0.00     0.170 HD
HETATM    6  H   UNL     1      20.307  48.494  49.735  1.00  0.00     0.164 HD
ENDROOT
BRANCH   3   7
HETATM    7  C   UNL     1      19.380  47.152  48.423  1.00  0.00     0.156 C 
BRANCH   7   8
HETATM    8  C   UNL     1      18.721  48.201  47.500  1.00  0.00     0.142 C 
HETATM    9  C   UNL     1      19.073  47.964  46.029  1.00  0.00     0.042 C 
BRANCH   8  10
HETATM   10  O   UNL     1      19.281  49.493  47.803  1.00  0.00    -0.345 OA
BRANCH  10  11
HETATM   11  C   UNL     1      18.515  50.416  48.450  1.00  0.00     0.069 A 
HETATM   12  C   UNL     1      18.982  51.487  49.210  1.00  0.00     0.038 A 
HETATM   13  C   UNL     1      18.074  52.364  49.814  1.00  0.00     0.026 A 
HETATM   14  C   UNL     1      16.702  52.176  49.646  1.00  0.00     0.034 A 
HETATM   15 CL   UNL     1      15.590  53.256  50.391  1.00  0.00    -0.084 Cl
HETATM   16  C   UNL     1      16.229  51.121  48.873  1.00  0.00     0.026 A 
HETATM   17  C   UNL     1      17.138  50.247  48.274  1.00  0.00     0.038 A 
ENDBRANCH  10  11
ENDBRANCH   8  10
ENDBRANCH   7   8
ENDBRANCH   3   7
BRANCH   1  18
HETATM   18  C   UNL     1      23.980  48.650  49.214  1.00  0.00     0.059 A 
HETATM   19  C   UNL     1      24.406  49.757  48.462  1.00  0.00    -0.032 A 
HETATM   20  C   UNL     1      23.502  50.817  47.898  1.00  0.00     0.050 C 
HETATM   21  C   UNL     1      25.785  49.915  48.233  1.00  0.00     0.028 A 
HETATM   22  C   UNL     1      26.682  49.025  48.799  1.00  0.00     0.117 A 
HETATM   23  N   UNL     1      26.311  47.994  49.577  1.00  0.00    -0.271 NA
HETATM   24  C   UNL     1      24.979  47.837  49.763  1.00  0.00     0.146 A 
ENDBRANCH   1  18
TORSDOF 5
ENDMDL
