MODEL 1
REMARK VINA RESULT:      -9.7      0.000      0.000
REMARK  5 active torsions:
REMARK  status: ('A' for Active; 'I' for Inactive)
REMARK    1  A    between atoms: C_3  and  O_4 
REMARK    2  A    between atoms: C_6  and  N_7 
REMARK       I    between atoms: N_7  and  C_8 
REMARK    3  A    between atoms: C_8  and  C_9 
REMARK    4  A    between atoms: C_12  and  C_13 
REMARK    5  A    between atoms: C_18  and  C_19 
ROOT
HETATM    1  C   UNL     1      25.041  45.418  50.610  1.00  0.00     0.096 C 
HETATM    2  C   UNL     1      25.898  44.723  51.445  1.00  0.00     0.138 C 
HETATM    3  N   UNL     1      25.918  43.430  50.970  1.00  0.00    -0.240 N 
HETATM    4  C   UNL     1      26.657  42.340  51.585  1.00  0.00     0.221 C 
HETATM    5  C   UNL     1      27.708  42.887  52.568  1.00  0.00     0.066 C 
HETATM    6  C   UNL     1      27.102  44.005  53.423  1.00  0.00     0.118 C 
HETATM    7  N   UNL     1      26.619  45.080  52.546  1.00  0.00    -0.365 N 
HETATM    8  N   UNL     1      25.013  43.202  50.008  1.00  0.00    -0.181 NA
HETATM    9  C   UNL     1      24.505  44.415  49.767  1.00  0.00     0.160 C 
HETATM   10  H   UNL     1      26.280  45.876  53.091  1.00  0.00     0.161 HD
ENDROOT
BRANCH   1  11
HETATM   11  C   UNL     1      24.698  46.831  50.597  1.00  0.00     0.261 C 
HETATM   12  N   UNL     1      23.954  47.201  49.492  1.00  0.00    -0.323 N 
HETATM   13  H   UNL     1      23.646  46.436  48.902  1.00  0.00     0.169 HD
HETATM   14  O   UNL     1      25.032  47.560  51.523  1.00  0.00    -0.267 OA
BRANCH  12  15
HETATM   15  C   UNL     1      23.504  48.490  49.145  1.00  0.00     0.037 A 
HETATM   16  C   UNL     1      22.218  48.967  49.409  1.00  0.00     0.066 A 
HETATM   17  C   UNL     1      21.866  50.263  49.039  1.00  0.00     0.067 A 
HETATM   18  C   UNL     1      22.774  51.103  48.404  1.00  0.00     0.036 A 
HETATM   19  C   UNL     1      24.060  50.637  48.140  1.00  0.00     0.005 A 
HETATM   20  C   UNL     1      24.423  49.338  48.512  1.00  0.00     0.029 A 
BRANCH  17  21
HETATM   21  O   UNL     1      20.599  50.683  49.325  1.00  0.00    -0.361 OA
HETATM   22  H   UNL     1      20.620  51.220  50.133  1.00  0.00     0.217 HD
ENDBRANCH  17  21
ENDBRANCH  12  15
ENDBRANCH   1  11
BRANCH   4  23
HETATM   23  C   UNL     1      27.333  41.464  50.554  1.00  0.00     0.409 C 
HETATM   24  F   UNL     1      27.619  42.136  49.416  1.00  0.00    -0.169 F 
HETATM   25  F   UNL     1      28.520  41.018  51.048  1.00  0.00    -0.169 F 
HETATM   26  F   UNL     1      26.627  40.362  50.231  1.00  0.00    -0.169 F 
ENDBRANCH   4  23
BRANCH   6  27
HETATM   27  C   UNL     1      28.109  44.564  54.409  1.00  0.00    -0.035 A 
HETATM   28  C   UNL     1      29.313  43.889  54.688  1.00  0.00     0.012 A 
HETATM   29  C   UNL     1      30.219  44.407  55.615  1.00  0.00     0.043 A 
HETATM   30  C   UNL     1      29.927  45.598  56.268  1.00  0.00     0.116 A 
HETATM   31  F   UNL     1      30.796  46.094  57.159  1.00  0.00    -0.206 F 
HETATM   32  C   UNL     1      28.746  46.282  56.011  1.00  0.00     0.043 A 
HETATM   33  C   UNL     1      27.838  45.767  55.084  1.00  0.00     0.012 A 
ENDBRANCH   6  27
TORSDOF 5
ENDMDL
MODEL 2
REMARK VINA RESULT:      -9.5      3.536      8.045
REMARK  5 active torsions:
REMARK  status: ('A' for Active; 'I' for Inactive)
REMARK    1  A    between atoms: C_3  and  O_4 
REMARK    2  A    between atoms: C_6  and  N_7 
REMARK       I    between atoms: N_7  and  C_8 
REMARK    3  A    between atoms: C_8  and  C_9 
REMARK    4  A    between atoms: C_12  and  C_13 
REMARK    5  A    between atoms: C_18  and  C_19 
ROOT
HETATM    1  C   UNL     1      26.828  46.574  54.148  1.00  0.00     0.096 C 
HETATM    2  C   UNL     1      26.433  45.742  53.117  1.00  0.00     0.138 C 
HETATM    3  N   UNL     1      25.541  46.474  52.365  1.00  0.00    -0.240 N 
HETATM    4  C   UNL     1      24.833  45.965  51.202  1.00  0.00     0.221 C 
HETATM    5  C   UNL     1      25.496  44.672  50.691  1.00  0.00     0.066 C 
HETATM    6  C   UNL     1      25.838  43.752  51.866  1.00  0.00     0.118 C 
HETATM    7  N   UNL     1      26.740  44.455  52.788  1.00  0.00    -0.365 N 
HETATM    8  N   UNL     1      25.203  47.643  52.929  1.00  0.00    -0.181 NA
HETATM    9  C   UNL     1      26.009  47.718  53.992  1.00  0.00     0.160 C 
HETATM   10  H   UNL     1      27.049  43.838  53.544  1.00  0.00     0.161 HD
ENDROOT
BRANCH   1  11
HETATM   11  C   UNL     1      27.808  46.351  55.200  1.00  0.00     0.261 C 
HETATM   12  N   UNL     1      28.667  45.302  54.932  1.00  0.00    -0.323 N 
HETATM   13  H   UNL     1      28.586  44.903  54.002  1.00  0.00     0.169 HD
HETATM   14  O   UNL     1      27.840  47.080  56.184  1.00  0.00    -0.267 OA
BRANCH  12  15
HETATM   15  C   UNL     1      29.690  44.790  55.754  1.00  0.00     0.037 A 
HETATM   16  C   UNL     1      30.070  45.355  56.973  1.00  0.00     0.066 A 
HETATM   17  C   UNL     1      31.087  44.770  57.726  1.00  0.00     0.067 A 
HETATM   18  C   UNL     1      31.741  43.625  57.286  1.00  0.00     0.036 A 
HETATM   19  C   UNL     1      31.366  43.053  56.072  1.00  0.00     0.005 A 
HETATM   20  C   UNL     1      30.344  43.630  55.312  1.00  0.00     0.029 A 
BRANCH  17  21
HETATM   21  O   UNL     1      31.416  45.357  58.913  1.00  0.00    -0.361 OA
HETATM   22  H   UNL     1      32.124  46.003  58.760  1.00  0.00     0.217 HD
ENDBRANCH  17  21
ENDBRANCH  12  15
ENDBRANCH   1  11
BRANCH   4  23
HETATM   23  C   UNL     1      24.778  46.984  50.085  1.00  0.00     0.409 C 
HETATM   24  F   UNL     1      25.980  47.556  49.850  1.00  0.00    -0.169 F 
HETATM   25  F   UNL     1      24.413  46.366  48.928  1.00  0.00    -0.169 F 
HETATM   26  F   UNL     1      23.872  47.962  50.287  1.00  0.00    -0.169 F 
ENDBRANCH   4  23
BRANCH   6  27
HETATM   27  C   UNL     1      26.486  42.464  51.399  1.00  0.00    -0.035 A 
HETATM   28  C   UNL     1      27.751  42.066  51.873  1.00  0.00     0.012 A 
HETATM   29  C   UNL     1      28.343  40.887  51.415  1.00  0.00     0.043 A 
HETATM   30  C   UNL     1      27.677  40.103  50.482  1.00  0.00     0.116 A 
HETATM   31  F   UNL     1      28.246  38.973  50.041  1.00  0.00    -0.206 F 
HETATM   32  C   UNL     1      26.429  40.474  49.998  1.00  0.00     0.043 A 
HETATM   33  C   UNL     1      25.834  41.652  50.454  1.00  0.00     0.012 A 
ENDBRANCH   6  27
TORSDOF 5
ENDMDL
MODEL 3
REMARK VINA RESULT:      -9.4      1.763      2.276
REMARK  5 active torsions:
REMARK  status: ('A' for Active; 'I' for Inactive)
REMARK    1  A    between atoms: C_3  and  O_4 
REMARK    2  A    between atoms: C_6  and  N_7 
REMARK       I    between atoms: N_7  and  C_8 
REMARK    3  A    between atoms: C_8  and  C_9 
REMARK    4  A    between atoms: C_12  and  C_13 
REMARK    5  A    between atoms: C_18  and  C_19 
ROOT
HETATM    1  C   UNL     1      25.098  43.063  50.681  1.00  0.00     0.096 C 
HETATM    2  C   UNL     1      26.180  42.639  51.430  1.00  0.00     0.138 C 
HETATM    3  N   UNL     1      26.499  41.386  50.955  1.00  0.00    -0.240 N 
HETATM    4  C   UNL     1      27.553  40.544  51.497  1.00  0.00     0.221 C 
HETATM    5  C   UNL     1      28.506  41.373  52.378  1.00  0.00     0.066 C 
HETATM    6  C   UNL     1      27.705  42.311  53.287  1.00  0.00     0.118 C 
HETATM    7  N   UNL     1      26.877  43.199  52.460  1.00  0.00    -0.365 N 
HETATM    8  N   UNL     1      25.603  40.905  50.082  1.00  0.00    -0.181 NA
HETATM    9  C   UNL     1      24.773  41.934  49.890  1.00  0.00     0.160 C 
HETATM   10  H   UNL     1      26.390  43.891  53.035  1.00  0.00     0.161 HD
ENDROOT
BRANCH   1  11
HETATM   11  C   UNL     1      24.393  44.334  50.701  1.00  0.00     0.261 C 
HETATM   12  N   UNL     1      24.155  44.846  49.439  1.00  0.00    -0.323 N 
HETATM   13  H   UNL     1      24.391  44.229  48.669  1.00  0.00     0.169 HD
HETATM   14  O   UNL     1      24.038  44.831  51.763  1.00  0.00    -0.267 OA
BRANCH  12  15
HETATM   15  C   UNL     1      23.548  46.072  49.103  1.00  0.00     0.037 A 
HETATM   16  C   UNL     1      24.037  47.321  49.494  1.00  0.00     0.066 A 
HETATM   17  C   UNL     1      23.375  48.483  49.103  1.00  0.00     0.067 A 
HETATM   18  C   UNL     1      22.223  48.428  48.326  1.00  0.00     0.036 A 
HETATM   19  C   UNL     1      21.729  47.187  47.930  1.00  0.00     0.005 A 
HETATM   20  C   UNL     1      22.391  46.016  48.313  1.00  0.00     0.029 A 
BRANCH  17  21
HETATM   21  O   UNL     1      23.897  49.677  49.506  1.00  0.00    -0.361 OA
HETATM   22  H   UNL     1      23.198  50.202  49.927  1.00  0.00     0.217 HD
ENDBRANCH  17  21
ENDBRANCH  12  15
ENDBRANCH   1  11
BRANCH   4  23
HETATM   23  C   UNL     1      28.341  39.854  50.406  1.00  0.00     0.409 C 
HETATM   24  F   UNL     1      28.742  40.711  49.440  1.00  0.00    -0.169 F 
HETATM   25  F   UNL     1      29.471  39.314  50.938  1.00  0.00    -0.169 F 
HETATM   26  F   UNL     1      27.681  38.834  49.823  1.00  0.00    -0.169 F 
ENDBRANCH   4  23
BRANCH   6  27
HETATM   27  C   UNL     1      28.613  43.139  54.175  1.00  0.00    -0.035 A 
HETATM   28  C   UNL     1      29.850  42.641  54.627  1.00  0.00     0.012 A 
HETATM   29  C   UNL     1      30.664  43.408  55.461  1.00  0.00     0.043 A 
HETATM   30  C   UNL     1      30.246  44.674  55.850  1.00  0.00     0.116 A 
HETATM   31  F   UNL     1      31.026  45.411  56.654  1.00  0.00    -0.206 F 
HETATM   32  C   UNL     1      29.029  45.189  55.420  1.00  0.00     0.043 A 
HETATM   33  C   UNL     1      28.214  44.424  54.584  1.00  0.00     0.012 A 
ENDBRANCH   6  27
TORSDOF 5
ENDMDL
MODEL 4
REMARK VINA RESULT:      -9.2      3.687      7.840
REMARK  5 active torsions:
REMARK  status: ('A' for Active; 'I' for Inactive)
REMARK    1  A    between atoms: C_3  and  O_4 
REMARK    2  A    between atoms: C_6  and  N_7 
REMARK       I    between atoms: N_7  and  C_8 
REMARK    3  A    between atoms: C_8  and  C_9 
REMARK    4  A    between atoms: C_12  and  C_13 
REMARK    5  A    between atoms: C_18  and  C_19 
ROOT
HETATM    1  C   UNL     1      27.916  42.306  52.599  1.00  0.00     0.096 C 
HETATM    2  C   UNL     1      27.364  42.885  51.472  1.00  0.00     0.138 C 
HETATM    3  N   UNL     1      27.388  41.911  50.498  1.00  0.00    -0.240 N 
HETATM    4  C   UNL     1      26.946  42.106  49.127  1.00  0.00     0.221 C 
HETATM    5  C   UNL     1      26.092  43.383  49.013  1.00  0.00     0.066 C 
HETATM    6  C   UNL     1      26.742  44.526  49.798  1.00  0.00     0.118 C 
HETATM    7  N   UNL     1      26.879  44.132  51.207  1.00  0.00    -0.365 N 
HETATM    8  N   UNL     1      28.067  40.814  50.861  1.00  0.00    -0.181 NA
HETATM    9  C   UNL     1      28.358  41.040  52.146  1.00  0.00     0.160 C 
HETATM   10  H   UNL     1      27.238  44.906  51.772  1.00  0.00     0.161 HD
ENDROOT
BRANCH   1  11
HETATM   11  C   UNL     1      28.077  42.848  53.939  1.00  0.00     0.261 C 
HETATM   12  N   UNL     1      29.286  43.492  54.126  1.00  0.00    -0.323 N 
HETATM   13  H   UNL     1      29.848  43.608  53.290  1.00  0.00     0.169 HD
HETATM   14  O   UNL     1      27.176  42.744  54.763  1.00  0.00    -0.267 OA
BRANCH  12  15
HETATM   15  C   UNL     1      29.780  44.078  55.308  1.00  0.00     0.037 A 
HETATM   16  C   UNL     1      30.827  43.547  56.065  1.00  0.00     0.066 A 
HETATM   17  C   UNL     1      31.257  44.204  57.217  1.00  0.00     0.067 A 
HETATM   18  C   UNL     1      30.661  45.389  57.634  1.00  0.00     0.036 A 
HETATM   19  C   UNL     1      29.619  45.927  56.883  1.00  0.00     0.005 A 
HETATM   20  C   UNL     1      29.184  45.276  55.724  1.00  0.00     0.029 A 
BRANCH  17  21
HETATM   21  O   UNL     1      32.287  43.648  57.918  1.00  0.00    -0.361 OA
HETATM   22  H   UNL     1      32.052  42.736  58.153  1.00  0.00     0.217 HD
ENDBRANCH  17  21
ENDBRANCH  12  15
ENDBRANCH   1  11
BRANCH   4  23
HETATM   23  C   UNL     1      26.158  40.920  48.615  1.00  0.00     0.409 C 
HETATM   24  F   UNL     1      26.956  39.951  48.112  1.00  0.00    -0.169 F 
HETATM   25  F   UNL     1      25.468  40.358  49.644  1.00  0.00    -0.169 F 
HETATM   26  F   UNL     1      25.239  41.242  47.682  1.00  0.00    -0.169 F 
ENDBRANCH   4  23
BRANCH   6  27
HETATM   27  C   UNL     1      25.931  45.804  49.701  1.00  0.00    -0.035 A 
HETATM   28  C   UNL     1      24.526  45.774  49.614  1.00  0.00     0.012 A 
HETATM   29  C   UNL     1      23.796  46.959  49.504  1.00  0.00     0.043 A 
HETATM   30  C   UNL     1      24.465  48.176  49.477  1.00  0.00     0.116 A 
HETATM   31  F   UNL     1      23.764  49.313  49.368  1.00  0.00    -0.206 F 
HETATM   32  C   UNL     1      25.850  48.232  49.559  1.00  0.00     0.043 A 
HETATM   33  C   UNL     1      26.582  47.049  49.671  1.00  0.00     0.012 A 
ENDBRANCH   6  27
TORSDOF 5
ENDMDL
MODEL 5
REMARK VINA RESULT:      -9.2      3.513      8.503
REMARK  5 active torsions:
REMARK  status: ('A' for Active; 'I' for Inactive)
REMARK    1  A    between atoms: C_3  and  O_4 
REMARK    2  A    between atoms: C_6  and  N_7 
REMARK       I    between atoms: N_7  and  C_8 
REMARK    3  A    between atoms: C_8  and  C_9 
REMARK    4  A    between atoms: C_12  and  C_13 
REMARK    5  A    between atoms: C_18  and  C_19 
ROOT
HETATM    1  C   UNL     1      26.474  45.705  53.614  1.00  0.00     0.096 C 
HETATM    2  C   UNL     1      25.879  45.345  52.419  1.00  0.00     0.138 C 
HETATM    3  N   UNL     1      25.315  46.498  51.917  1.00  0.00    -0.240 N 
HETATM    4  C   UNL     1      24.538  46.567  50.690  1.00  0.00     0.221 C 
HETATM    5  C   UNL     1      24.764  45.305  49.837  1.00  0.00     0.066 C 
HETATM    6  C   UNL     1      24.725  44.055  50.721  1.00  0.00     0.118 C 
HETATM    7  N   UNL     1      25.762  44.159  51.756  1.00  0.00    -0.365 N 
HETATM    8  N   UNL     1      25.353  47.526  52.776  1.00  0.00    -0.181 NA
HETATM    9  C   UNL     1      26.085  47.055  53.791  1.00  0.00     0.160 C 
HETATM   10  H   UNL     1      25.813  43.303  52.314  1.00  0.00     0.161 HD
ENDROOT
BRANCH   1  11
HETATM   11  C   UNL     1      27.272  44.910  54.532  1.00  0.00     0.261 C 
HETATM   12  N   UNL     1      28.447  45.531  54.912  1.00  0.00    -0.323 N 
HETATM   13  H   UNL     1      28.548  46.492  54.604  1.00  0.00     0.169 HD
HETATM   14  O   UNL     1      26.869  43.821  54.923  1.00  0.00    -0.267 OA
BRANCH  12  15
HETATM   15  C   UNL     1      29.466  45.022  55.743  1.00  0.00     0.037 A 
HETATM   16  C   UNL     1      29.833  45.588  56.965  1.00  0.00     0.066 A 
HETATM   17  C   UNL     1      30.847  45.007  57.726  1.00  0.00     0.067 A 
HETATM   18  C   UNL     1      31.508  43.864  57.290  1.00  0.00     0.036 A 
HETATM   19  C   UNL     1      31.146  43.292  56.073  1.00  0.00     0.005 A 
HETATM   20  C   UNL     1      30.127  43.866  55.306  1.00  0.00     0.029 A 
BRANCH  17  21
HETATM   21  O   UNL     1      31.164  45.595  58.915  1.00  0.00    -0.361 OA
HETATM   22  H   UNL     1      31.178  44.916  59.609  1.00  0.00     0.217 HD
ENDBRANCH  17  21
ENDBRANCH  12  15
ENDBRANCH   1  11
BRANCH   4  23
HETATM   23  C   UNL     1      24.876  47.797  49.878  1.00  0.00     0.409 C 
HETATM   24  F   UNL     1      24.046  48.832  50.142  1.00  0.00    -0.169 F 
HETATM   25  F   UNL     1      26.130  48.218  50.196  1.00  0.00    -0.169 F 
HETATM   26  F   UNL     1      24.881  47.584  48.547  1.00  0.00    -0.169 F 
ENDBRANCH   4  23
BRANCH   6  27
HETATM   27  C   UNL     1      24.937  42.790  49.910  1.00  0.00    -0.035 A 
HETATM   28  C   UNL     1      24.352  42.627  48.640  1.00  0.00     0.012 A 
HETATM   29  C   UNL     1      24.540  41.448  47.917  1.00  0.00     0.043 A 
HETATM   30  C   UNL     1      25.310  40.427  48.459  1.00  0.00     0.116 A 
HETATM   31  F   UNL     1      25.489  39.295  47.766  1.00  0.00    -0.206 F 
HETATM   32  C   UNL     1      25.897  40.563  49.711  1.00  0.00     0.043 A 
HETATM   33  C   UNL     1      25.712  41.741  50.436  1.00  0.00     0.012 A 
ENDBRANCH   6  27
TORSDOF 5
ENDMDL
MODEL 6
REMARK VINA RESULT:      -9.2      4.047      8.370
REMARK  5 active torsions:
REMARK  status: ('A' for Active; 'I' for Inactive)
REMARK    1  A    between atoms: C_3  and  O_4 
REMARK    2  A    between atoms: C_6  and  N_7 
REMARK       I    between atoms: N_7  and  C_8 
REMARK    3  A    between atoms: C_8  and  C_9 
REMARK    4  A    between atoms: C_12  and  C_13 
REMARK    5  A    between atoms: C_18  and  C_19 
ROOT
HETATM    1  C   UNL     1      24.693  46.376  49.972  1.00  0.00     0.096 C 
HETATM    2  C   UNL     1      23.517  46.816  49.394  1.00  0.00     0.138 C 
HETATM    3  N   UNL     1      23.108  45.803  48.554  1.00  0.00    -0.240 N 
HETATM    4  C   UNL     1      21.933  45.865  47.701  1.00  0.00     0.221 C 
HETATM    5  C   UNL     1      21.004  47.010  48.146  1.00  0.00     0.066 C 
HETATM    6  C   UNL     1      21.822  48.269  48.447  1.00  0.00     0.118 C 
HETATM    7  N   UNL     1      22.801  47.972  49.501  1.00  0.00    -0.365 N 
HETATM    8  N   UNL     1      24.016  44.826  48.418  1.00  0.00    -0.181 NA
HETATM    9  C   UNL     1      24.962  45.157  49.304  1.00  0.00     0.160 C 
HETATM   10  H   UNL     1      23.310  48.815  49.780  1.00  0.00     0.161 HD
ENDROOT
BRANCH   1  11
HETATM   11  C   UNL     1      25.522  47.004  50.988  1.00  0.00     0.261 C 
HETATM   12  N   UNL     1      25.517  46.325  52.193  1.00  0.00    -0.323 N 
HETATM   13  H   UNL     1      25.041  45.430  52.183  1.00  0.00     0.169 HD
HETATM   14  O   UNL     1      26.167  48.012  50.727  1.00  0.00    -0.267 OA
BRANCH  12  15
HETATM   15  C   UNL     1      26.164  46.685  53.391  1.00  0.00     0.037 A 
HETATM   16  C   UNL     1      25.768  47.749  54.205  1.00  0.00     0.066 A 
HETATM   17  C   UNL     1      26.464  48.023  55.381  1.00  0.00     0.067 A 
HETATM   18  C   UNL     1      27.556  47.255  55.768  1.00  0.00     0.036 A 
HETATM   19  C   UNL     1      27.956  46.190  54.963  1.00  0.00     0.005 A 
HETATM   20  C   UNL     1      27.261  45.905  53.783  1.00  0.00     0.029 A 
BRANCH  17  21
HETATM   21  O   UNL     1      26.033  49.070  56.144  1.00  0.00    -0.361 OA
HETATM   22  H   UNL     1      25.780  49.803  55.560  1.00  0.00     0.217 HD
ENDBRANCH  17  21
ENDBRANCH  12  15
ENDBRANCH   1  11
BRANCH   4  23
HETATM   23  C   UNL     1      21.168  44.560  47.700  1.00  0.00     0.409 C 
HETATM   24  F   UNL     1      21.590  43.717  46.731  1.00  0.00    -0.169 F 
HETATM   25  F   UNL     1      21.367  43.919  48.883  1.00  0.00    -0.169 F 
HETATM   26  F   UNL     1      19.834  44.714  47.579  1.00  0.00    -0.169 F 
ENDBRANCH   4  23
BRANCH   6  27
HETATM   27  C   UNL     1      20.936  49.421  48.882  1.00  0.00    -0.035 A 
HETATM   28  C   UNL     1      19.941  49.250  49.863  1.00  0.00     0.012 A 
HETATM   29  C   UNL     1      19.121  50.316  50.236  1.00  0.00     0.043 A 
HETATM   30  C   UNL     1      19.288  51.554  49.630  1.00  0.00     0.116 A 
HETATM   31  F   UNL     1      18.499  52.577  49.987  1.00  0.00    -0.206 F 
HETATM   32  C   UNL     1      20.262  51.749  48.659  1.00  0.00     0.043 A 
HETATM   33  C   UNL     1      21.084  50.685  48.285  1.00  0.00     0.012 A 
ENDBRANCH   6  27
TORSDOF 5
ENDMDL
MODEL 7
REMARK VINA RESULT:      -9.1      3.719      8.530
REMARK  5 active torsions:
REMARK  status: ('A' for Active; 'I' for Inactive)
REMARK    1  A    between atoms: C_3  and  O_4 
REMARK    2  A    between atoms: C_6  and  N_7 
REMARK       I    between atoms: N_7  and  C_8 
REMARK    3  A    between atoms: C_8  and  C_9 
REMARK    4  A    between atoms: C_12  and  C_13 
REMARK    5  A    between atoms: C_18  and  C_19 
ROOT
HETATM    1  C   UNL     1      27.354  43.254  52.190  1.00  0.00     0.096 C 
HETATM    2  C   UNL     1      26.934  44.570  52.228  1.00  0.00     0.138 C 
HETATM    3  N   UNL     1      27.053  44.965  53.542  1.00  0.00    -0.240 N 
HETATM    4  C   UNL     1      26.669  46.274  54.046  1.00  0.00     0.221 C 
HETATM    5  C   UNL     1      26.499  47.270  52.885  1.00  0.00     0.066 C 
HETATM    6  C   UNL     1      25.728  46.615  51.734  1.00  0.00     0.118 C 
HETATM    7  N   UNL     1      26.456  45.423  51.277  1.00  0.00    -0.365 N 
HETATM    8  N   UNL     1      27.351  43.958  54.375  1.00  0.00    -0.181 NA
HETATM    9  C   UNL     1      27.567  42.928  53.551  1.00  0.00     0.160 C 
HETATM   10  H   UNL     1      26.006  45.009  50.457  1.00  0.00     0.161 HD
ENDROOT
BRANCH   1  11
HETATM   11  C   UNL     1      27.506  42.358  51.054  1.00  0.00     0.261 C 
HETATM   12  N   UNL     1      27.589  41.026  51.417  1.00  0.00    -0.323 N 
HETATM   13  H   UNL     1      27.419  40.834  52.399  1.00  0.00     0.169 HD
HETATM   14  O   UNL     1      27.513  42.799  49.912  1.00  0.00    -0.267 OA
BRANCH  12  15
HETATM   15  C   UNL     1      27.791  39.912  50.579  1.00  0.00     0.037 A 
HETATM   16  C   UNL     1      28.990  39.202  50.496  1.00  0.00     0.066 A 
HETATM   17  C   UNL     1      29.093  38.103  49.645  1.00  0.00     0.067 A 
HETATM   18  C   UNL     1      28.017  37.693  48.867  1.00  0.00     0.036 A 
HETATM   19  C   UNL     1      26.815  38.393  48.945  1.00  0.00     0.005 A 
HETATM   20  C   UNL     1      26.702  39.495  49.800  1.00  0.00     0.029 A 
BRANCH  17  21
HETATM   21  O   UNL     1      30.285  37.440  49.606  1.00  0.00    -0.361 OA
HETATM   22  H   UNL     1      30.998  38.060  49.826  1.00  0.00     0.217 HD
ENDBRANCH  17  21
ENDBRANCH  12  15
ENDBRANCH   1  11
BRANCH   4  23
HETATM   23  C   UNL     1      27.677  46.815  55.036  1.00  0.00     0.409 C 
HETATM   24  F   UNL     1      28.940  46.781  54.555  1.00  0.00    -0.169 F 
HETATM   25  F   UNL     1      27.398  48.121  55.296  1.00  0.00    -0.169 F 
HETATM   26  F   UNL     1      27.658  46.186  56.228  1.00  0.00    -0.169 F 
ENDBRANCH   4  23
BRANCH   6  27
HETATM   27  C   UNL     1      25.534  47.572  50.574  1.00  0.00    -0.035 A 
HETATM   28  C   UNL     1      26.630  48.203  49.954  1.00  0.00     0.012 A 
HETATM   29  C   UNL     1      26.432  49.098  48.901  1.00  0.00     0.043 A 
HETATM   30  C   UNL     1      25.141  49.368  48.465  1.00  0.00     0.116 A 
HETATM   31  F   UNL     1      24.951  50.228  47.455  1.00  0.00    -0.206 F 
HETATM   32  C   UNL     1      24.043  48.759  49.060  1.00  0.00     0.043 A 
HETATM   33  C   UNL     1      24.239  47.863  50.112  1.00  0.00     0.012 A 
ENDBRANCH   6  27
TORSDOF 5
ENDMDL
MODEL 8
REMARK VINA RESULT:      -9.0      4.592      7.609
REMARK  5 active torsions:
REMARK  status: ('A' for Active; 'I' for Inactive)
REMARK    1  A    between atoms: C_3  and  O_4 
REMARK    2  A    between atoms: C_6  and  N_7 
REMARK       I    between atoms: N_7  and  C_8 
REMARK    3  A    between atoms: C_8  and  C_9 
REMARK    4  A    between atoms: C_12  and  C_13 
REMARK    5  A    between atoms: C_18  and  C_19 
ROOT
HETATM    1  C   UNL     1      27.336  42.974  51.838  1.00  0.00     0.096 C 
HETATM    2  C   UNL     1      27.642  43.951  52.767  1.00  0.00     0.138 C 
HETATM    3  N   UNL     1      26.882  45.048  52.422  1.00  0.00    -0.240 N 
HETATM    4  C   UNL     1      26.928  46.329  53.108  1.00  0.00     0.221 C 
HETATM    5  C   UNL     1      27.613  46.182  54.479  1.00  0.00     0.066 C 
HETATM    6  C   UNL     1      28.868  45.313  54.354  1.00  0.00     0.118 C 
HETATM    7  N   UNL     1      28.496  43.993  53.829  1.00  0.00    -0.365 N 
HETATM    8  N   UNL     1      26.248  44.908  51.250  1.00  0.00    -0.181 NA
HETATM    9  C   UNL     1      26.496  43.639  50.912  1.00  0.00     0.160 C 
HETATM   10  H   UNL     1      29.302  43.363  53.809  1.00  0.00     0.161 HD
ENDROOT
BRANCH   1  11
HETATM   11  C   UNL     1      27.788  41.594  51.756  1.00  0.00     0.261 C 
HETATM   12  N   UNL     1      27.481  40.989  50.551  1.00  0.00    -0.323 N 
HETATM   13  H   UNL     1      27.093  41.605  49.845  1.00  0.00     0.169 HD
HETATM   14  O   UNL     1      28.408  41.088  52.684  1.00  0.00    -0.267 OA
BRANCH  12  15
HETATM   15  C   UNL     1      27.725  39.657  50.165  1.00  0.00     0.037 A 
HETATM   16  C   UNL     1      28.921  38.978  50.411  1.00  0.00     0.066 A 
HETATM   17  C   UNL     1      29.067  37.654  50.002  1.00  0.00     0.067 A 
HETATM   18  C   UNL     1      28.039  36.985  49.346  1.00  0.00     0.036 A 
HETATM   19  C   UNL     1      26.842  37.653  49.100  1.00  0.00     0.005 A 
HETATM   20  C   UNL     1      26.685  38.981  49.511  1.00  0.00     0.029 A 
BRANCH  17  21
HETATM   21  O   UNL     1      30.252  37.034  50.271  1.00  0.00    -0.361 OA
HETATM   22  H   UNL     1      30.644  36.726  49.438  1.00  0.00     0.217 HD
ENDBRANCH  17  21
ENDBRANCH  12  15
ENDBRANCH   1  11
BRANCH   4  23
HETATM   23  C   UNL     1      25.548  46.921  53.289  1.00  0.00     0.409 C 
HETATM   24  F   UNL     1      25.026  47.375  52.128  1.00  0.00    -0.169 F 
HETATM   25  F   UNL     1      24.700  45.959  53.744  1.00  0.00    -0.169 F 
HETATM   26  F   UNL     1      25.500  47.918  54.196  1.00  0.00    -0.169 F 
ENDBRANCH   4  23
BRANCH   6  27
HETATM   27  C   UNL     1      29.573  45.154  55.687  1.00  0.00    -0.035 A 
HETATM   28  C   UNL     1      29.263  45.980  56.784  1.00  0.00     0.012 A 
HETATM   29  C   UNL     1      29.937  45.833  57.998  1.00  0.00     0.043 A 
HETATM   30  C   UNL     1      30.924  44.864  58.120  1.00  0.00     0.116 A 
HETATM   31  F   UNL     1      31.572  44.724  59.285  1.00  0.00    -0.206 F 
HETATM   32  C   UNL     1      31.250  44.036  57.053  1.00  0.00     0.043 A 
HETATM   33  C   UNL     1      30.577  44.181  55.838  1.00  0.00     0.012 A 
ENDBRANCH   6  27
TORSDOF 5
ENDMDL
MODEL 9
REMARK VINA RESULT:      -8.9      3.889      8.019
REMARK  5 active torsions:
REMARK  status: ('A' for Active; 'I' for Inactive)
REMARK    1  A    between atoms: C_3  and  O_4 
REMARK    2  A    between atoms: C_6  and  N_7 
REMARK       I    between atoms: N_7  and  C_8 
REMARK    3  A    between atoms: C_8  and  C_9 
REMARK    4  A    between atoms: C_12  and  C_13 
REMARK    5  A    between atoms: C_18  and  C_19 
ROOT
HETATM    1  C   UNL     1      28.152  41.871  52.618  1.00  0.00     0.096 C 
HETATM    2  C   UNL     1      27.468  42.227  51.471  1.00  0.00     0.138 C 
HETATM    3  N   UNL     1      27.665  41.194  50.580  1.00  0.00    -0.240 N 
HETATM    4  C   UNL     1      27.161  41.175  49.217  1.00  0.00     0.221 C 
HETATM    5  C   UNL     1      26.066  42.241  49.032  1.00  0.00     0.066 C 
HETATM    6  C   UNL     1      26.491  43.556  49.694  1.00  0.00     0.118 C 
HETATM    7  N   UNL     1      26.737  43.324  51.123  1.00  0.00    -0.365 N 
HETATM    8  N   UNL     1      28.559  40.289  51.005  1.00  0.00    -0.181 NA
HETATM    9  C   UNL     1      28.828  40.682  52.254  1.00  0.00     0.160 C 
HETATM   10  H   UNL     1      26.947  44.200  51.608  1.00  0.00     0.161 HD
ENDROOT
BRANCH   1  11
HETATM   11  C   UNL     1      28.232  42.550  53.902  1.00  0.00     0.261 C 
HETATM   12  N   UNL     1      29.442  43.187  54.108  1.00  0.00    -0.323 N 
HETATM   13  H   UNL     1      30.065  43.200  53.308  1.00  0.00     0.169 HD
HETATM   14  O   UNL     1      27.273  42.554  54.663  1.00  0.00    -0.267 OA
BRANCH  12  15
HETATM   15  C   UNL     1      29.867  43.887  55.254  1.00  0.00     0.037 A 
HETATM   16  C   UNL     1      30.894  43.457  56.097  1.00  0.00     0.066 A 
HETATM   17  C   UNL     1      31.255  44.223  57.203  1.00  0.00     0.067 A 
HETATM   18  C   UNL     1      30.607  45.419  57.493  1.00  0.00     0.036 A 
HETATM   19  C   UNL     1      29.583  45.857  56.655  1.00  0.00     0.005 A 
HETATM   20  C   UNL     1      29.218  45.096  55.540  1.00  0.00     0.029 A 
BRANCH  17  21
HETATM   21  O   UNL     1      32.269  43.763  57.992  1.00  0.00    -0.361 OA
HETATM   22  H   UNL     1      32.843  43.186  57.463  1.00  0.00     0.217 HD
ENDBRANCH  17  21
ENDBRANCH  12  15
ENDBRANCH   1  11
BRANCH   4  23
HETATM   23  C   UNL     1      26.616  39.816  48.836  1.00  0.00     0.409 C 
HETATM   24  F   UNL     1      27.564  39.011  48.306  1.00  0.00    -0.169 F 
HETATM   25  F   UNL     1      26.154  39.186  49.951  1.00  0.00    -0.169 F 
HETATM   26  F   UNL     1      25.575  39.869  47.981  1.00  0.00    -0.169 F 
ENDBRANCH   4  23
BRANCH   6  27
HETATM   27  C   UNL     1      25.438  44.634  49.524  1.00  0.00    -0.035 A 
HETATM   28  C   UNL     1      25.568  45.890  50.147  1.00  0.00     0.012 A 
HETATM   29  C   UNL     1      24.578  46.863  49.998  1.00  0.00     0.043 A 
HETATM   30  C   UNL     1      23.455  46.586  49.229  1.00  0.00     0.116 A 
HETATM   31  F   UNL     1      22.504  47.519  49.088  1.00  0.00    -0.206 F 
HETATM   32  C   UNL     1      23.302  45.354  48.605  1.00  0.00     0.043 A 
HETATM   33  C   UNL     1      24.291  44.380  48.752  1.00  0.00     0.012 A 
ENDBRANCH   6  27
TORSDOF 5
ENDMDL
MODEL 10
REMARK VINA RESULT:      -8.4      4.604      8.268
REMARK  5 active torsions:
REMARK  status: ('A' for Active; 'I' for Inactive)
REMARK    1  A    between atoms: C_3  and  O_4 
REMARK    2  A    between atoms: C_6  and  N_7 
REMARK       I    between atoms: N_7  and  C_8 
REMARK    3  A    between atoms: C_8  and  C_9 
REMARK    4  A    between atoms: C_12  and  C_13 
REMARK    5  A    between atoms: C_18  and  C_19 
ROOT
HETATM    1  C   UNL     1      23.811  44.788  49.509  1.00  0.00     0.096 C 
HETATM    2  C   UNL     1      23.021  45.692  48.823  1.00  0.00     0.138 C 
HETATM    3  N   UNL     1      22.812  45.140  47.578  1.00  0.00    -0.240 N 
HETATM    4  C   UNL     1      22.069  45.783  46.507  1.00  0.00     0.221 C 
HETATM    5  C   UNL     1      21.225  46.946  47.059  1.00  0.00     0.066 C 
HETATM    6  C   UNL     1      22.049  47.774  48.050  1.00  0.00     0.118 C 
HETATM    7  N   UNL     1      22.501  46.910  49.148  1.00  0.00    -0.365 N 
HETATM    8  N   UNL     1      23.545  44.040  47.354  1.00  0.00    -0.181 NA
HETATM    9  C   UNL     1      24.125  43.808  48.536  1.00  0.00     0.160 C 
HETATM   10  H   UNL     1      22.988  47.451  49.867  1.00  0.00     0.161 HD
ENDROOT
BRANCH   1  11
HETATM   11  C   UNL     1      24.280  44.819  50.885  1.00  0.00     0.261 C 
HETATM   12  N   UNL     1      25.114  45.889  51.153  1.00  0.00    -0.323 N 
HETATM   13  H   UNL     1      25.197  46.570  50.406  1.00  0.00     0.169 HD
HETATM   14  O   UNL     1      23.907  43.973  51.688  1.00  0.00    -0.267 OA
BRANCH  12  15
HETATM   15  C   UNL     1      25.779  46.186  52.359  1.00  0.00     0.037 A 
HETATM   16  C   UNL     1      25.467  47.275  53.176  1.00  0.00     0.066 A 
HETATM   17  C   UNL     1      26.173  47.483  54.359  1.00  0.00     0.067 A 
HETATM   18  C   UNL     1      27.193  46.623  54.751  1.00  0.00     0.036 A 
HETATM   19  C   UNL     1      27.508  45.532  53.943  1.00  0.00     0.005 A 
HETATM   20  C   UNL     1      26.802  45.313  52.756  1.00  0.00     0.029 A 
BRANCH  17  21
HETATM   21  O   UNL     1      25.826  48.558  55.125  1.00  0.00    -0.361 OA
HETATM   22  H   UNL     1      24.893  48.477  55.379  1.00  0.00     0.217 HD
ENDBRANCH  17  21
ENDBRANCH  12  15
ENDBRANCH   1  11
BRANCH   4  23
HETATM   23  C   UNL     1      21.173  44.807  45.777  1.00  0.00     0.409 C 
HETATM   24  F   UNL     1      20.206  45.429  45.066  1.00  0.00    -0.169 F 
HETATM   25  F   UNL     1      21.913  44.097  44.882  1.00  0.00    -0.169 F 
HETATM   26  F   UNL     1      20.591  43.897  46.583  1.00  0.00    -0.169 F 
ENDBRANCH   4  23
BRANCH   6  27
HETATM   27  C   UNL     1      21.250  48.936  48.609  1.00  0.00    -0.035 A 
HETATM   28  C   UNL     1      21.562  50.268  48.277  1.00  0.00     0.012 A 
HETATM   29  C   UNL     1      20.829  51.326  48.817  1.00  0.00     0.043 A 
HETATM   30  C   UNL     1      19.785  51.059  49.693  1.00  0.00     0.116 A 
HETATM   31  F   UNL     1      19.083  52.074  50.214  1.00  0.00    -0.206 F 
HETATM   32  C   UNL     1      19.458  49.754  50.038  1.00  0.00     0.043 A 
HETATM   33  C   UNL     1      20.188  48.694  49.498  1.00  0.00     0.012 A 
ENDBRANCH   6  27
TORSDOF 5
ENDMDL
