MODEL 1
REMARK VINA RESULT:      -7.3      0.000      0.000
REMARK  10 active torsions:
REMARK  status: ('A' for Active; 'I' for Inactive)
REMARK    1  A    between atoms: C_2  and  C_3 
REMARK    2  A    between atoms: C_3  and  C_4 
REMARK    3  A    between atoms: C_4  and  N_5 
REMARK    4  A    between atoms: N_5  and  C_7 
REMARK    5  A    between atoms: C_7  and  C_8 
REMARK    6  A    between atoms: C_8  and  C_9 
REMARK    7  A    between atoms: C_9  and  N_10 
REMARK       I    between atoms: N_10  and  C_11 
REMARK    8  A    between atoms: C_11  and  C_12 
REMARK    9  A    between atoms: C_12  and  O_13 
REMARK   10  A    between atoms: N_14  and  C_15 
ROOT
HETATM    1  C   UNL     1      28.003  49.392  40.992  1.00  0.00     0.256 C 
HETATM    2  N   UNL     1      27.155  48.527  40.150  1.00  0.00    -0.254 N 
HETATM    3  C   UNL     1      27.330  48.588  38.770  1.00  0.00     0.330 C 
HETATM    4  O   UNL     1      27.114  47.660  37.987  1.00  0.00    -0.246 OA
HETATM    5  N   UNL     1      27.837  49.740  38.248  1.00  0.00    -0.308 N 
HETATM    6  C   UNL     1      28.199  50.859  38.982  1.00  0.00     0.048 A 
HETATM    7  C   UNL     1      28.264  50.752  40.366  1.00  0.00     0.034 A 
HETATM    8  C   UNL     1      28.507  52.052  38.326  1.00  0.00     0.030 A 
HETATM    9  C   UNL     1      28.878  53.170  39.069  1.00  0.00     0.002 A 
HETATM   10  C   UNL     1      28.950  53.088  40.456  1.00  0.00     0.001 A 
HETATM   11  C   UNL     1      28.652  51.885  41.102  1.00  0.00     0.015 A 
HETATM   12  H   UNL     1      27.818  49.791  37.236  1.00  0.00     0.170 HD
ENDROOT
BRANCH   1  13
HETATM   13  C   UNL     1      29.400  48.678  41.266  1.00  0.00     0.279 C 
HETATM   14  N   UNL     1      30.082  49.053  42.419  1.00  0.00    -0.356 N 
HETATM   15  H   UNL     1      29.861  49.995  42.739  1.00  0.00     0.162 HD
HETATM   16  O   UNL     1      29.845  47.818  40.504  1.00  0.00    -0.268 OA
BRANCH  14  17
HETATM   17  C   UNL     1      31.417  48.554  42.670  1.00  0.00     0.124 C 
BRANCH  17  18
HETATM   18  C   UNL     1      32.479  49.419  41.996  1.00  0.00     0.047 C 
BRANCH  18  19
HETATM   19  C   UNL     1      32.204  50.905  42.215  1.00  0.00     0.236 C 
BRANCH  19  20
HETATM   20  N   UNL     1      33.405  51.782  41.903  1.00  0.00    -0.075 N 
HETATM   21  H   UNL     1      33.159  52.711  42.268  1.00  0.00     0.279 HD
HETATM   22  C   UNL     1      34.635  51.385  42.683  1.00  0.00     0.269 C 
BRANCH  20  23
HETATM   23  C   UNL     1      33.728  51.982  40.436  1.00  0.00     0.234 C 
BRANCH  23  24
HETATM   24  C   UNL     1      32.495  52.287  39.586  1.00  0.00     0.027 C 
BRANCH  24  25
HETATM   25  C   UNL     1      32.392  51.428  38.325  1.00  0.00    -0.003 C 
HETATM   26  C   UNL     1      31.574  50.169  38.573  1.00  0.00     0.005 C 
ENDBRANCH  24  25
ENDBRANCH  23  24
ENDBRANCH  20  23
ENDBRANCH  19  20
ENDBRANCH  18  19
ENDBRANCH  17  18
ENDBRANCH  14  17
ENDBRANCH   1  13
BRANCH   1  27
HETATM   27  O   UNL     1      27.341  49.643  42.232  1.00  0.00    -0.359 OA
HETATM   28  H   UNL     1      26.659  48.954  42.316  1.00  0.00     0.213 HD
ENDBRANCH   1  27
BRANCH   2  29
HETATM   29  C   UNL     1      26.359  47.464  40.726  1.00  0.00     0.042 A 
HETATM   30  C   UNL     1      26.921  46.303  41.279  1.00  0.00     0.030 A 
HETATM   31  C   UNL     1      26.120  45.294  41.829  1.00  0.00     0.002 A 
HETATM   32  C   UNL     1      24.736  45.429  41.847  1.00  0.00     0.000 A 
HETATM   33  C   UNL     1      24.155  46.573  41.317  1.00  0.00     0.002 A 
HETATM   34  C   UNL     1      24.957  47.576  40.764  1.00  0.00     0.030 A 
ENDBRANCH   2  29
TORSDOF 10
ENDMDL
MODEL 2
REMARK VINA RESULT:      -7.2     10.827     13.031
REMARK  10 active torsions:
REMARK  status: ('A' for Active; 'I' for Inactive)
REMARK    1  A    between atoms: C_2  and  C_3 
REMARK    2  A    between atoms: C_3  and  C_4 
REMARK    3  A    between atoms: C_4  and  N_5 
REMARK    4  A    between atoms: N_5  and  C_7 
REMARK    5  A    between atoms: C_7  and  C_8 
REMARK    6  A    between atoms: C_8  and  C_9 
REMARK    7  A    between atoms: C_9  and  N_10 
REMARK       I    between atoms: N_10  and  C_11 
REMARK    8  A    between atoms: C_11  and  C_12 
REMARK    9  A    between atoms: C_12  and  O_13 
REMARK   10  A    between atoms: N_14  and  C_15 
ROOT
HETATM    1  C   UNL     1      24.780  45.146  50.822  1.00  0.00     0.256 C 
HETATM    2  N   UNL     1      24.523  46.473  50.231  1.00  0.00    -0.254 N 
HETATM    3  C   UNL     1      25.456  47.480  50.460  1.00  0.00     0.330 C 
HETATM    4  O   UNL     1      25.680  48.425  49.699  1.00  0.00    -0.246 OA
HETATM    5  N   UNL     1      26.226  47.386  51.581  1.00  0.00    -0.308 N 
HETATM    6  C   UNL     1      26.158  46.361  52.512  1.00  0.00     0.048 A 
HETATM    7  C   UNL     1      25.417  45.228  52.199  1.00  0.00     0.034 A 
HETATM    8  C   UNL     1      26.843  46.476  53.723  1.00  0.00     0.030 A 
HETATM    9  C   UNL     1      26.778  45.440  54.651  1.00  0.00     0.002 A 
HETATM   10  C   UNL     1      26.041  44.295  54.361  1.00  0.00     0.001 A 
HETATM   11  C   UNL     1      25.371  44.185  53.140  1.00  0.00     0.015 A 
HETATM   12  H   UNL     1      26.789  48.204  51.777  1.00  0.00     0.170 HD
ENDROOT
BRANCH   1  13
HETATM   13  C   UNL     1      25.734  44.304  49.865  1.00  0.00     0.279 C 
HETATM   14  N   UNL     1      25.314  43.021  49.529  1.00  0.00    -0.356 N 
HETATM   15  H   UNL     1      24.696  42.598  50.219  1.00  0.00     0.162 HD
HETATM   16  O   UNL     1      26.786  44.774  49.427  1.00  0.00    -0.268 OA
BRANCH  14  17
HETATM   17  C   UNL     1      26.185  42.142  48.779  1.00  0.00     0.124 C 
BRANCH  17  18
HETATM   18  C   UNL     1      26.192  40.728  49.353  1.00  0.00     0.047 C 
BRANCH  18  19
HETATM   19  C   UNL     1      26.065  40.747  50.874  1.00  0.00     0.236 C 
BRANCH  19  20
HETATM   20  N   UNL     1      27.370  40.422  51.583  1.00  0.00    -0.075 N 
HETATM   21  H   UNL     1      27.191  39.540  52.081  1.00  0.00     0.279 HD
HETATM   22  C   UNL     1      28.486  40.091  50.623  1.00  0.00     0.269 C 
BRANCH  20  23
HETATM   23  C   UNL     1      27.827  41.411  52.636  1.00  0.00     0.234 C 
BRANCH  23  24
HETATM   24  C   UNL     1      28.564  42.614  52.051  1.00  0.00     0.027 C 
BRANCH  24  25
HETATM   25  C   UNL     1      29.815  43.008  52.837  1.00  0.00    -0.003 C 
HETATM   26  C   UNL     1      29.590  42.891  54.337  1.00  0.00     0.005 C 
ENDBRANCH  24  25
ENDBRANCH  23  24
ENDBRANCH  20  23
ENDBRANCH  19  20
ENDBRANCH  18  19
ENDBRANCH  17  18
ENDBRANCH  14  17
ENDBRANCH   1  13
BRANCH   1  27
HETATM   27  O   UNL     1      23.542  44.456  50.995  1.00  0.00    -0.359 OA
HETATM   28  H   UNL     1      23.630  43.953  51.823  1.00  0.00     0.213 HD
ENDBRANCH   1  27
BRANCH   2  29
HETATM   29  C   UNL     1      23.490  46.666  49.234  1.00  0.00     0.042 A 
HETATM   30  C   UNL     1      23.158  45.690  48.281  1.00  0.00     0.030 A 
HETATM   31  C   UNL     1      22.151  45.910  47.332  1.00  0.00     0.002 A 
HETATM   32  C   UNL     1      21.447  47.109  47.322  1.00  0.00     0.000 A 
HETATM   33  C   UNL     1      21.747  48.085  48.262  1.00  0.00     0.002 A 
HETATM   34  C   UNL     1      22.756  47.865  49.205  1.00  0.00     0.030 A 
ENDBRANCH   2  29
TORSDOF 10
ENDMDL
MODEL 3
REMARK VINA RESULT:      -7.0      2.536      6.727
REMARK  10 active torsions:
REMARK  status: ('A' for Active; 'I' for Inactive)
REMARK    1  A    between atoms: C_2  and  C_3 
REMARK    2  A    between atoms: C_3  and  C_4 
REMARK    3  A    between atoms: C_4  and  N_5 
REMARK    4  A    between atoms: N_5  and  C_7 
REMARK    5  A    between atoms: C_7  and  C_8 
REMARK    6  A    between atoms: C_8  and  C_9 
REMARK    7  A    between atoms: C_9  and  N_10 
REMARK       I    between atoms: N_10  and  C_11 
REMARK    8  A    between atoms: C_11  and  C_12 
REMARK    9  A    between atoms: C_12  and  O_13 
REMARK   10  A    between atoms: N_14  and  C_15 
ROOT
HETATM    1  C   UNL     1      33.755  51.307  40.850  1.00  0.00     0.256 C 
HETATM    2  N   UNL     1      32.858  50.309  41.464  1.00  0.00    -0.254 N 
HETATM    3  C   UNL     1      32.576  50.435  42.821  1.00  0.00     0.330 C 
HETATM    4  O   UNL     1      31.537  50.056  43.367  1.00  0.00    -0.246 OA
HETATM    5  N   UNL     1      33.489  51.082  43.600  1.00  0.00    -0.308 N 
HETATM    6  C   UNL     1      34.678  51.632  43.146  1.00  0.00     0.048 A 
HETATM    7  C   UNL     1      34.881  51.737  41.776  1.00  0.00     0.034 A 
HETATM    8  C   UNL     1      35.630  52.082  44.063  1.00  0.00     0.030 A 
HETATM    9  C   UNL     1      36.819  52.641  43.602  1.00  0.00     0.002 A 
HETATM   10  C   UNL     1      37.046  52.756  42.233  1.00  0.00     0.001 A 
HETATM   11  C   UNL     1      36.081  52.313  41.325  1.00  0.00     0.015 A 
HETATM   12  H   UNL     1      33.309  51.030  44.595  1.00  0.00     0.170 HD
ENDROOT
BRANCH   1  13
HETATM   13  C   UNL     1      32.921  52.595  40.426  1.00  0.00     0.279 C 
HETATM   14  N   UNL     1      31.793  52.892  41.185  1.00  0.00    -0.356 N 
HETATM   15  H   UNL     1      31.379  52.080  41.639  1.00  0.00     0.162 HD
HETATM   16  O   UNL     1      33.270  53.308  39.483  1.00  0.00    -0.268 OA
BRANCH  14  17
HETATM   17  C   UNL     1      30.906  53.962  40.783  1.00  0.00     0.124 C 
BRANCH  17  18
HETATM   18  C   UNL     1      29.716  53.440  39.984  1.00  0.00     0.047 C 
BRANCH  18  19
HETATM   19  C   UNL     1      28.873  52.474  40.813  1.00  0.00     0.236 C 
BRANCH  19  20
HETATM   20  N   UNL     1      27.829  51.739  39.988  1.00  0.00    -0.075 N 
HETATM   21  H   UNL     1      26.954  52.258  40.142  1.00  0.00     0.279 HD
HETATM   22  C   UNL     1      28.076  51.851  38.504  1.00  0.00     0.269 C 
BRANCH  20  23
HETATM   23  C   UNL     1      27.542  50.307  40.390  1.00  0.00     0.234 C 
BRANCH  23  24
HETATM   24  C   UNL     1      28.131  49.934  41.749  1.00  0.00     0.027 C 
BRANCH  24  25
HETATM   25  C   UNL     1      28.461  48.447  41.887  1.00  0.00    -0.003 C 
HETATM   26  C   UNL     1      27.567  47.594  41.000  1.00  0.00     0.005 C 
ENDBRANCH  24  25
ENDBRANCH  23  24
ENDBRANCH  20  23
ENDBRANCH  19  20
ENDBRANCH  18  19
ENDBRANCH  17  18
ENDBRANCH  14  17
ENDBRANCH   1  13
BRANCH   1  27
HETATM   27  O   UNL     1      34.379  50.739  39.698  1.00  0.00    -0.359 OA
HETATM   28  H   UNL     1      35.156  50.252  40.027  1.00  0.00     0.213 HD
ENDBRANCH   1  27
BRANCH   2  29
HETATM   29  C   UNL     1      32.086  49.391  40.653  1.00  0.00     0.042 A 
HETATM   30  C   UNL     1      31.231  49.816  39.624  1.00  0.00     0.030 A 
HETATM   31  C   UNL     1      30.500  48.899  38.858  1.00  0.00     0.002 A 
HETATM   32  C   UNL     1      30.615  47.535  39.098  1.00  0.00     0.000 A 
HETATM   33  C   UNL     1      31.464  47.088  40.102  1.00  0.00     0.002 A 
HETATM   34  C   UNL     1      32.189  48.005  40.868  1.00  0.00     0.030 A 
ENDBRANCH   2  29
TORSDOF 10
ENDMDL
MODEL 4
REMARK VINA RESULT:      -6.9      1.415      1.866
REMARK  10 active torsions:
REMARK  status: ('A' for Active; 'I' for Inactive)
REMARK    1  A    between atoms: C_2  and  C_3 
REMARK    2  A    between atoms: C_3  and  C_4 
REMARK    3  A    between atoms: C_4  and  N_5 
REMARK    4  A    between atoms: N_5  and  C_7 
REMARK    5  A    between atoms: C_7  and  C_8 
REMARK    6  A    between atoms: C_8  and  C_9 
REMARK    7  A    between atoms: C_9  and  N_10 
REMARK       I    between atoms: N_10  and  C_11 
REMARK    8  A    between atoms: C_11  and  C_12 
REMARK    9  A    between atoms: C_12  and  O_13 
REMARK   10  A    between atoms: N_14  and  C_15 
ROOT
HETATM    1  C   UNL     1      28.336  49.589  40.269  1.00  0.00     0.256 C 
HETATM    2  N   UNL     1      27.194  49.342  39.369  1.00  0.00    -0.254 N 
HETATM    3  C   UNL     1      27.112  50.092  38.199  1.00  0.00     0.330 C 
HETATM    4  O   UNL     1      26.577  49.717  37.153  1.00  0.00    -0.246 OA
HETATM    5  N   UNL     1      27.722  51.311  38.185  1.00  0.00    -0.308 N 
HETATM    6  C   UNL     1      28.425  51.864  39.244  1.00  0.00     0.048 A 
HETATM    7  C   UNL     1      28.730  51.055  40.333  1.00  0.00     0.034 A 
HETATM    8  C   UNL     1      28.826  53.200  39.190  1.00  0.00     0.030 A 
HETATM    9  C   UNL     1      29.539  53.748  40.254  1.00  0.00     0.002 A 
HETATM   10  C   UNL     1      29.856  52.959  41.355  1.00  0.00     0.001 A 
HETATM   11  C   UNL     1      29.461  51.619  41.393  1.00  0.00     0.015 A 
HETATM   12  H   UNL     1      27.521  51.875  37.369  1.00  0.00     0.170 HD
ENDROOT
BRANCH   1  13
HETATM   13  C   UNL     1      29.596  48.741  39.789  1.00  0.00     0.279 C 
HETATM   14  N   UNL     1      30.314  48.069  40.773  1.00  0.00    -0.356 N 
HETATM   15  H   UNL     1      30.242  48.495  41.696  1.00  0.00     0.162 HD
HETATM   16  O   UNL     1      29.908  48.668  38.599  1.00  0.00    -0.268 OA
BRANCH  14  17
HETATM   17  C   UNL     1      31.547  47.391  40.440  1.00  0.00     0.124 C 
BRANCH  17  18
HETATM   18  C   UNL     1      32.718  47.907  41.271  1.00  0.00     0.047 C 
BRANCH  18  19
HETATM   19  C   UNL     1      32.248  48.888  42.342  1.00  0.00     0.236 C 
BRANCH  19  20
HETATM   20  N   UNL     1      32.785  50.295  42.134  1.00  0.00    -0.075 N 
HETATM   21  H   UNL     1      32.150  50.724  41.448  1.00  0.00     0.279 HD
HETATM   22  C   UNL     1      32.647  51.158  43.364  1.00  0.00     0.269 C 
BRANCH  20  23
HETATM   23  C   UNL     1      34.175  50.403  41.541  1.00  0.00     0.234 C 
BRANCH  23  24
HETATM   24  C   UNL     1      34.198  51.114  40.189  1.00  0.00     0.027 C 
BRANCH  24  25
HETATM   25  C   UNL     1      32.867  51.769  39.818  1.00  0.00    -0.003 C 
HETATM   26  C   UNL     1      32.357  51.271  38.473  1.00  0.00     0.005 C 
ENDBRANCH  24  25
ENDBRANCH  23  24
ENDBRANCH  20  23
ENDBRANCH  19  20
ENDBRANCH  18  19
ENDBRANCH  17  18
ENDBRANCH  14  17
ENDBRANCH   1  13
BRANCH   1  27
HETATM   27  O   UNL     1      27.983  49.212  41.600  1.00  0.00    -0.359 OA
HETATM   28  H   UNL     1      27.983  50.035  42.120  1.00  0.00     0.213 HD
ENDBRANCH   1  27
BRANCH   2  29
HETATM   29  C   UNL     1      26.332  48.192  39.546  1.00  0.00     0.042 A 
HETATM   30  C   UNL     1      25.013  48.291  40.015  1.00  0.00     0.030 A 
HETATM   31  C   UNL     1      24.207  47.156  40.172  1.00  0.00     0.002 A 
HETATM   32  C   UNL     1      24.700  45.896  39.853  1.00  0.00     0.000 A 
HETATM   33  C   UNL     1      25.997  45.771  39.375  1.00  0.00     0.002 A 
HETATM   34  C   UNL     1      26.802  46.905  39.224  1.00  0.00     0.030 A 
ENDBRANCH   2  29
TORSDOF 10
ENDMDL
MODEL 5
REMARK VINA RESULT:      -6.8     11.579     13.814
REMARK  10 active torsions:
REMARK  status: ('A' for Active; 'I' for Inactive)
REMARK    1  A    between atoms: C_2  and  C_3 
REMARK    2  A    between atoms: C_3  and  C_4 
REMARK    3  A    between atoms: C_4  and  N_5 
REMARK    4  A    between atoms: N_5  and  C_7 
REMARK    5  A    between atoms: C_7  and  C_8 
REMARK    6  A    between atoms: C_8  and  C_9 
REMARK    7  A    between atoms: C_9  and  N_10 
REMARK       I    between atoms: N_10  and  C_11 
REMARK    8  A    between atoms: C_11  and  C_12 
REMARK    9  A    between atoms: C_12  and  O_13 
REMARK   10  A    between atoms: N_14  and  C_15 
ROOT
HETATM    1  C   UNL     1      26.171  42.591  49.526  1.00  0.00     0.256 C 
HETATM    2  N   UNL     1      24.984  43.333  49.993  1.00  0.00    -0.254 N 
HETATM    3  C   UNL     1      23.761  42.669  49.995  1.00  0.00     0.330 C 
HETATM    4  O   UNL     1      22.826  42.908  50.763  1.00  0.00    -0.246 OA
HETATM    5  N   UNL     1      23.602  41.634  49.123  1.00  0.00    -0.308 N 
HETATM    6  C   UNL     1      24.565  41.183  48.234  1.00  0.00     0.048 A 
HETATM    7  C   UNL     1      25.865  41.658  48.367  1.00  0.00     0.034 A 
HETATM    8  C   UNL     1      24.222  40.258  47.247  1.00  0.00     0.030 A 
HETATM    9  C   UNL     1      25.197  39.802  46.362  1.00  0.00     0.002 A 
HETATM   10  C   UNL     1      26.505  40.263  46.475  1.00  0.00     0.001 A 
HETATM   11  C   UNL     1      26.840  41.180  47.475  1.00  0.00     0.015 A 
HETATM   12  H   UNL     1      22.657  41.273  49.062  1.00  0.00     0.170 HD
ENDROOT
BRANCH   1  13
HETATM   13  C   UNL     1      26.781  41.738  50.724  1.00  0.00     0.279 C 
HETATM   14  N   UNL     1      27.947  42.220  51.310  1.00  0.00    -0.356 N 
HETATM   15  H   UNL     1      28.511  42.796  50.687  1.00  0.00     0.162 HD
HETATM   16  O   UNL     1      26.234  40.709  51.127  1.00  0.00    -0.268 OA
BRANCH  14  17
HETATM   17  C   UNL     1      28.638  41.434  52.309  1.00  0.00     0.124 C 
BRANCH  17  18
HETATM   18  C   UNL     1      29.553  42.298  53.173  1.00  0.00     0.047 C 
BRANCH  18  19
HETATM   19  C   UNL     1      28.791  42.911  54.345  1.00  0.00     0.236 C 
BRANCH  19  20
HETATM   20  N   UNL     1      29.197  44.349  54.627  1.00  0.00    -0.075 N 
HETATM   21  H   UNL     1      29.363  44.766  53.702  1.00  0.00     0.279 HD
HETATM   22  C   UNL     1      28.071  45.167  55.212  1.00  0.00     0.269 C 
BRANCH  20  23
HETATM   23  C   UNL     1      30.480  44.543  55.410  1.00  0.00     0.234 C 
BRANCH  23  24
HETATM   24  C   UNL     1      30.981  43.261  56.071  1.00  0.00     0.027 C 
BRANCH  24  25
HETATM   25  C   UNL     1      31.731  43.499  57.382  1.00  0.00    -0.003 C 
HETATM   26  C   UNL     1      31.169  44.696  58.135  1.00  0.00     0.005 C 
ENDBRANCH  24  25
ENDBRANCH  23  24
ENDBRANCH  20  23
ENDBRANCH  19  20
ENDBRANCH  18  19
ENDBRANCH  17  18
ENDBRANCH  14  17
ENDBRANCH   1  13
BRANCH   1  27
HETATM   27  O   UNL     1      27.150  43.514  49.047  1.00  0.00    -0.359 OA
HETATM   28  H   UNL     1      27.379  43.219  48.149  1.00  0.00     0.213 HD
ENDBRANCH   1  27
BRANCH   2  29
HETATM   29  C   UNL     1      25.111  44.605  50.673  1.00  0.00     0.042 A 
HETATM   30  C   UNL     1      24.842  45.834  50.049  1.00  0.00     0.030 A 
HETATM   31  C   UNL     1      24.974  47.046  50.738  1.00  0.00     0.002 A 
HETATM   32  C   UNL     1      25.369  47.056  52.071  1.00  0.00     0.000 A 
HETATM   33  C   UNL     1      25.629  45.854  52.715  1.00  0.00     0.002 A 
HETATM   34  C   UNL     1      25.502  44.645  52.024  1.00  0.00     0.030 A 
ENDBRANCH   2  29
TORSDOF 10
ENDMDL
MODEL 6
REMARK VINA RESULT:      -6.7      2.062      5.458
REMARK  10 active torsions:
REMARK  status: ('A' for Active; 'I' for Inactive)
REMARK    1  A    between atoms: C_2  and  C_3 
REMARK    2  A    between atoms: C_3  and  C_4 
REMARK    3  A    between atoms: C_4  and  N_5 
REMARK    4  A    between atoms: N_5  and  C_7 
REMARK    5  A    between atoms: C_7  and  C_8 
REMARK    6  A    between atoms: C_8  and  C_9 
REMARK    7  A    between atoms: C_9  and  N_10 
REMARK       I    between atoms: N_10  and  C_11 
REMARK    8  A    between atoms: C_11  and  C_12 
REMARK    9  A    between atoms: C_12  and  O_13 
REMARK   10  A    between atoms: N_14  and  C_15 
ROOT
HETATM    1  C   UNL     1      29.947  48.718  39.927  1.00  0.00     0.256 C 
HETATM    2  N   UNL     1      28.962  49.731  40.350  1.00  0.00    -0.254 N 
HETATM    3  C   UNL     1      27.984  49.347  41.263  1.00  0.00     0.330 C 
HETATM    4  O   UNL     1      27.436  50.100  42.072  1.00  0.00    -0.246 OA
HETATM    5  N   UNL     1      27.648  48.028  41.313  1.00  0.00    -0.308 N 
HETATM    6  C   UNL     1      28.208  47.031  40.528  1.00  0.00     0.048 A 
HETATM    7  C   UNL     1      29.342  47.332  39.783  1.00  0.00     0.034 A 
HETATM    8  C   UNL     1      27.642  45.756  40.515  1.00  0.00     0.030 A 
HETATM    9  C   UNL     1      28.213  44.757  39.731  1.00  0.00     0.002 A 
HETATM   10  C   UNL     1      29.349  45.033  38.975  1.00  0.00     0.001 A 
HETATM   11  C   UNL     1      29.915  46.310  39.006  1.00  0.00     0.015 A 
HETATM   12  H   UNL     1      26.842  47.817  41.889  1.00  0.00     0.170 HD
ENDROOT
BRANCH   1  13
HETATM   13  C   UNL     1      31.139  48.650  40.980  1.00  0.00     0.279 C 
HETATM   14  N   UNL     1      32.423  48.878  40.493  1.00  0.00    -0.356 N 
HETATM   15  H   UNL     1      32.532  48.653  39.506  1.00  0.00     0.162 HD
HETATM   16  O   UNL     1      30.932  48.427  42.175  1.00  0.00    -0.268 OA
BRANCH  14  17
HETATM   17  C   UNL     1      33.570  48.699  41.355  1.00  0.00     0.124 C 
BRANCH  17  18
HETATM   18  C   UNL     1      34.555  49.858  41.232  1.00  0.00     0.047 C 
BRANCH  18  19
HETATM   19  C   UNL     1      33.855  51.202  41.416  1.00  0.00     0.236 C 
BRANCH  19  20
HETATM   20  N   UNL     1      34.317  51.945  42.660  1.00  0.00    -0.075 N 
HETATM   21  H   UNL     1      34.202  52.941  42.434  1.00  0.00     0.279 HD
HETATM   22  C   UNL     1      33.407  51.720  43.843  1.00  0.00     0.269 C 
BRANCH  20  23
HETATM   23  C   UNL     1      35.772  51.770  43.046  1.00  0.00     0.234 C 
BRANCH  23  24
HETATM   24  C   UNL     1      36.712  52.695  42.277  1.00  0.00     0.027 C 
BRANCH  24  25
HETATM   25  C   UNL     1      37.337  53.791  43.141  1.00  0.00    -0.003 C 
HETATM   26  C   UNL     1      37.026  53.582  44.616  1.00  0.00     0.005 C 
ENDBRANCH  24  25
ENDBRANCH  23  24
ENDBRANCH  20  23
ENDBRANCH  19  20
ENDBRANCH  18  19
ENDBRANCH  17  18
ENDBRANCH  14  17
ENDBRANCH   1  13
BRANCH   1  27
HETATM   27  O   UNL     1      30.462  49.065  38.641  1.00  0.00    -0.359 OA
HETATM   28  H   UNL     1      30.025  48.468  38.008  1.00  0.00     0.213 HD
ENDBRANCH   1  27
BRANCH   2  29
HETATM   29  C   UNL     1      29.148  51.135  40.046  1.00  0.00     0.042 A 
HETATM   30  C   UNL     1      28.527  51.769  38.958  1.00  0.00     0.030 A 
HETATM   31  C   UNL     1      28.729  53.129  38.695  1.00  0.00     0.002 A 
HETATM   32  C   UNL     1      29.549  53.890  39.520  1.00  0.00     0.000 A 
HETATM   33  C   UNL     1      30.165  53.290  40.610  1.00  0.00     0.002 A 
HETATM   34  C   UNL     1      29.966  51.931  40.868  1.00  0.00     0.030 A 
ENDBRANCH   2  29
TORSDOF 10
ENDMDL
MODEL 7
REMARK VINA RESULT:      -6.7     12.003     14.743
REMARK  10 active torsions:
REMARK  status: ('A' for Active; 'I' for Inactive)
REMARK    1  A    between atoms: C_2  and  C_3 
REMARK    2  A    between atoms: C_3  and  C_4 
REMARK    3  A    between atoms: C_4  and  N_5 
REMARK    4  A    between atoms: N_5  and  C_7 
REMARK    5  A    between atoms: C_7  and  C_8 
REMARK    6  A    between atoms: C_8  and  C_9 
REMARK    7  A    between atoms: C_9  and  N_10 
REMARK       I    between atoms: N_10  and  C_11 
REMARK    8  A    between atoms: C_11  and  C_12 
REMARK    9  A    between atoms: C_12  and  O_13 
REMARK   10  A    between atoms: N_14  and  C_15 
ROOT
HETATM    1  C   UNL     1      27.844  43.243  52.306  1.00  0.00     0.256 C 
HETATM    2  N   UNL     1      27.646  43.728  53.685  1.00  0.00    -0.254 N 
HETATM    3  C   UNL     1      26.355  43.706  54.204  1.00  0.00     0.330 C 
HETATM    4  O   UNL     1      26.074  43.586  55.399  1.00  0.00    -0.246 OA
HETATM    5  N   UNL     1      25.318  43.760  53.322  1.00  0.00    -0.308 N 
HETATM    6  C   UNL     1      25.445  43.829  51.944  1.00  0.00     0.048 A 
HETATM    7  C   UNL     1      26.697  43.614  51.381  1.00  0.00     0.034 A 
HETATM    8  C   UNL     1      24.324  44.092  51.154  1.00  0.00     0.030 A 
HETATM    9  C   UNL     1      24.456  44.152  49.769  1.00  0.00     0.002 A 
HETATM   10  C   UNL     1      25.700  43.940  49.182  1.00  0.00     0.001 A 
HETATM   11  C   UNL     1      26.813  43.666  49.981  1.00  0.00     0.015 A 
HETATM   12  H   UNL     1      24.406  43.881  53.747  1.00  0.00     0.170 HD
ENDROOT
BRANCH   1  13
HETATM   13  C   UNL     1      28.009  41.659  52.308  1.00  0.00     0.279 C 
HETATM   14  N   UNL     1      28.938  41.122  51.422  1.00  0.00    -0.356 N 
HETATM   15  H   UNL     1      29.107  41.703  50.603  1.00  0.00     0.162 HD
HETATM   16  O   UNL     1      27.358  40.944  53.073  1.00  0.00    -0.268 OA
BRANCH  14  17
HETATM   17  C   UNL     1      29.050  39.689  51.265  1.00  0.00     0.124 C 
BRANCH  17  18
HETATM   18  C   UNL     1      28.589  39.235  49.883  1.00  0.00     0.047 C 
BRANCH  18  19
HETATM   19  C   UNL     1      29.153  37.860  49.534  1.00  0.00     0.236 C 
BRANCH  19  20
HETATM   20  N   UNL     1      28.404  37.182  48.398  1.00  0.00    -0.075 N 
HETATM   21  H   UNL     1      28.631  36.183  48.488  1.00  0.00     0.279 HD
HETATM   22  C   UNL     1      26.906  37.244  48.571  1.00  0.00     0.269 C 
BRANCH  20  23
HETATM   23  C   UNL     1      28.811  37.579  46.994  1.00  0.00     0.234 C 
BRANCH  23  24
HETATM   24  C   UNL     1      27.634  37.645  46.023  1.00  0.00     0.027 C 
BRANCH  24  25
HETATM   25  C   UNL     1      27.561  38.954  45.236  1.00  0.00    -0.003 C 
HETATM   26  C   UNL     1      27.942  40.146  46.102  1.00  0.00     0.005 C 
ENDBRANCH  24  25
ENDBRANCH  23  24
ENDBRANCH  20  23
ENDBRANCH  19  20
ENDBRANCH  18  19
ENDBRANCH  17  18
ENDBRANCH  14  17
ENDBRANCH   1  13
BRANCH   1  27
HETATM   27  O   UNL     1      29.014  43.847  51.754  1.00  0.00    -0.359 OA
HETATM   28  H   UNL     1      28.847  44.806  51.756  1.00  0.00     0.213 HD
ENDBRANCH   1  27
BRANCH   2  29
HETATM   29  C   UNL     1      28.770  43.969  54.566  1.00  0.00     0.042 A 
HETATM   30  C   UNL     1      29.727  42.987  54.869  1.00  0.00     0.030 A 
HETATM   31  C   UNL     1      30.802  43.256  55.725  1.00  0.00     0.002 A 
HETATM   32  C   UNL     1      30.951  44.518  56.290  1.00  0.00     0.000 A 
HETATM   33  C   UNL     1      30.025  45.510  55.997  1.00  0.00     0.002 A 
HETATM   34  C   UNL     1      28.949  45.238  55.147  1.00  0.00     0.030 A 
ENDBRANCH   2  29
TORSDOF 10
ENDMDL
MODEL 8
REMARK VINA RESULT:      -6.7     11.009     13.535
REMARK  10 active torsions:
REMARK  status: ('A' for Active; 'I' for Inactive)
REMARK    1  A    between atoms: C_2  and  C_3 
REMARK    2  A    between atoms: C_3  and  C_4 
REMARK    3  A    between atoms: C_4  and  N_5 
REMARK    4  A    between atoms: N_5  and  C_7 
REMARK    5  A    between atoms: C_7  and  C_8 
REMARK    6  A    between atoms: C_8  and  C_9 
REMARK    7  A    between atoms: C_9  and  N_10 
REMARK       I    between atoms: N_10  and  C_11 
REMARK    8  A    between atoms: C_11  and  C_12 
REMARK    9  A    between atoms: C_12  and  O_13 
REMARK   10  A    between atoms: N_14  and  C_15 
ROOT
HETATM    1  C   UNL     1      24.577  44.497  50.516  1.00  0.00     0.256 C 
HETATM    2  N   UNL     1      25.907  44.507  51.153  1.00  0.00    -0.254 N 
HETATM    3  C   UNL     1      26.975  43.969  50.441  1.00  0.00     0.330 C 
HETATM    4  O   UNL     1      28.152  44.317  50.559  1.00  0.00    -0.246 OA
HETATM    5  N   UNL     1      26.694  43.029  49.496  1.00  0.00    -0.308 N 
HETATM    6  C   UNL     1      25.426  42.566  49.181  1.00  0.00     0.048 A 
HETATM    7  C   UNL     1      24.326  43.243  49.695  1.00  0.00     0.034 A 
HETATM    8  C   UNL     1      25.277  41.456  48.349  1.00  0.00     0.030 A 
HETATM    9  C   UNL     1      24.000  41.000  48.030  1.00  0.00     0.002 A 
HETATM   10  C   UNL     1      22.883  41.661  48.533  1.00  0.00     0.001 A 
HETATM   11  C   UNL     1      23.044  42.780  49.355  1.00  0.00     0.015 A 
HETATM   12  H   UNL     1      27.506  42.569  49.102  1.00  0.00     0.170 HD
ENDROOT
BRANCH   1  13
HETATM   13  C   UNL     1      24.420  45.768  49.571  1.00  0.00     0.279 C 
HETATM   14  N   UNL     1      23.154  46.340  49.490  1.00  0.00    -0.356 N 
HETATM   15  H   UNL     1      22.396  45.687  49.683  1.00  0.00     0.162 HD
HETATM   16  O   UNL     1      25.380  46.236  48.955  1.00  0.00    -0.268 OA
BRANCH  14  17
HETATM   17  C   UNL     1      22.897  47.410  48.551  1.00  0.00     0.124 C 
BRANCH  17  18
HETATM   18  C   UNL     1      22.017  48.497  49.160  1.00  0.00     0.047 C 
BRANCH  18  19
HETATM   19  C   UNL     1      20.535  48.173  48.987  1.00  0.00     0.236 C 
BRANCH  19  20
HETATM   20  N   UNL     1      19.624  49.301  49.444  1.00  0.00    -0.075 N 
HETATM   21  H   UNL     1      19.003  49.483  48.645  1.00  0.00     0.279 HD
HETATM   22  C   UNL     1      18.693  48.882  50.556  1.00  0.00     0.269 C 
BRANCH  20  23
HETATM   23  C   UNL     1      20.297  50.621  49.760  1.00  0.00     0.234 C 
BRANCH  23  24
HETATM   24  C   UNL     1      20.243  51.615  48.602  1.00  0.00     0.027 C 
BRANCH  24  25
HETATM   25  C   UNL     1      18.860  52.232  48.388  1.00  0.00    -0.003 C 
HETATM   26  C   UNL     1      18.142  52.461  49.709  1.00  0.00     0.005 C 
ENDBRANCH  24  25
ENDBRANCH  23  24
ENDBRANCH  20  23
ENDBRANCH  19  20
ENDBRANCH  18  19
ENDBRANCH  17  18
ENDBRANCH  14  17
ENDBRANCH   1  13
BRANCH   1  27
HETATM   27  O   UNL     1      23.567  44.522  51.526  1.00  0.00    -0.359 OA
HETATM   28  H   UNL     1      23.797  45.260  52.116  1.00  0.00     0.213 HD
ENDBRANCH   1  27
BRANCH   2  29
HETATM   29  C   UNL     1      26.161  45.278  52.353  1.00  0.00     0.042 A 
HETATM   30  C   UNL     1      26.068  46.678  52.395  1.00  0.00     0.030 A 
HETATM   31  C   UNL     1      26.319  47.391  53.574  1.00  0.00     0.002 A 
HETATM   32  C   UNL     1      26.660  46.718  54.742  1.00  0.00     0.000 A 
HETATM   33  C   UNL     1      26.747  45.332  54.731  1.00  0.00     0.002 A 
HETATM   34  C   UNL     1      26.501  44.623  53.551  1.00  0.00     0.030 A 
ENDBRANCH   2  29
TORSDOF 10
ENDMDL
MODEL 9
REMARK VINA RESULT:      -6.7      3.377      8.121
REMARK  10 active torsions:
REMARK  status: ('A' for Active; 'I' for Inactive)
REMARK    1  A    between atoms: C_2  and  C_3 
REMARK    2  A    between atoms: C_3  and  C_4 
REMARK    3  A    between atoms: C_4  and  N_5 
REMARK    4  A    between atoms: N_5  and  C_7 
REMARK    5  A    between atoms: C_7  and  C_8 
REMARK    6  A    between atoms: C_8  and  C_9 
REMARK    7  A    between atoms: C_9  and  N_10 
REMARK       I    between atoms: N_10  and  C_11 
REMARK    8  A    between atoms: C_11  and  C_12 
REMARK    9  A    between atoms: C_12  and  O_13 
REMARK   10  A    between atoms: N_14  and  C_15 
ROOT
HETATM    1  C   UNL     1      33.661  51.468  42.296  1.00  0.00     0.256 C 
HETATM    2  N   UNL     1      35.110  51.337  42.051  1.00  0.00    -0.254 N 
HETATM    3  C   UNL     1      35.529  50.406  41.105  1.00  0.00     0.330 C 
HETATM    4  O   UNL     1      36.559  50.494  40.433  1.00  0.00    -0.246 OA
HETATM    5  N   UNL     1      34.710  49.345  40.856  1.00  0.00    -0.308 N 
HETATM    6  C   UNL     1      33.487  49.120  41.467  1.00  0.00     0.048 A 
HETATM    7  C   UNL     1      32.929  50.138  42.232  1.00  0.00     0.034 A 
HETATM    8  C   UNL     1      32.835  47.898  41.290  1.00  0.00     0.030 A 
HETATM    9  C   UNL     1      31.602  47.681  41.900  1.00  0.00     0.002 A 
HETATM   10  C   UNL     1      31.023  48.686  42.671  1.00  0.00     0.001 A 
HETATM   11  C   UNL     1      31.679  49.909  42.831  1.00  0.00     0.015 A 
HETATM   12  H   UNL     1      35.115  48.627  40.268  1.00  0.00     0.170 HD
ENDROOT
BRANCH   1  13
HETATM   13  C   UNL     1      33.020  52.458  41.226  1.00  0.00     0.279 C 
HETATM   14  N   UNL     1      31.772  52.991  41.531  1.00  0.00    -0.356 N 
HETATM   15  H   UNL     1      31.220  52.409  42.159  1.00  0.00     0.162 HD
HETATM   16  O   UNL     1      33.611  52.754  40.186  1.00  0.00    -0.268 OA
BRANCH  14  17
HETATM   17  C   UNL     1      31.062  53.787  40.554  1.00  0.00     0.124 C 
BRANCH  17  18
HETATM   18  C   UNL     1      29.631  53.293  40.355  1.00  0.00     0.047 C 
BRANCH  18  19
HETATM   19  C   UNL     1      29.247  52.266  41.416  1.00  0.00     0.236 C 
BRANCH  19  20
HETATM   20  N   UNL     1      28.932  50.898  40.830  1.00  0.00    -0.075 N 
HETATM   21  H   UNL     1      29.743  50.312  41.070  1.00  0.00     0.279 HD
HETATM   22  C   UNL     1      27.767  50.227  41.514  1.00  0.00     0.269 C 
BRANCH  20  23
HETATM   23  C   UNL     1      28.798  50.828  39.323  1.00  0.00     0.234 C 
BRANCH  23  24
HETATM   24  C   UNL     1      29.747  49.817  38.681  1.00  0.00     0.027 C 
BRANCH  24  25
HETATM   25  C   UNL     1      31.225  50.172  38.849  1.00  0.00    -0.003 C 
HETATM   26  C   UNL     1      31.663  51.225  37.843  1.00  0.00     0.005 C 
ENDBRANCH  24  25
ENDBRANCH  23  24
ENDBRANCH  20  23
ENDBRANCH  19  20
ENDBRANCH  18  19
ENDBRANCH  17  18
ENDBRANCH  14  17
ENDBRANCH   1  13
BRANCH   1  27
HETATM   27  O   UNL     1      33.447  51.979  43.612  1.00  0.00    -0.359 OA
HETATM   28  H   UNL     1      32.813  51.373  44.034  1.00  0.00     0.213 HD
ENDBRANCH   1  27
BRANCH   2  29
HETATM   29  C   UNL     1      36.052  52.308  42.568  1.00  0.00     0.042 A 
HETATM   30  C   UNL     1      36.661  53.283  41.762  1.00  0.00     0.030 A 
HETATM   31  C   UNL     1      37.566  54.209  42.296  1.00  0.00     0.002 A 
HETATM   32  C   UNL     1      37.876  54.186  43.651  1.00  0.00     0.000 A 
HETATM   33  C   UNL     1      37.278  53.239  44.472  1.00  0.00     0.002 A 
HETATM   34  C   UNL     1      36.378  52.313  43.936  1.00  0.00     0.030 A 
ENDBRANCH   2  29
TORSDOF 10
ENDMDL
MODEL 10
REMARK VINA RESULT:      -6.6     10.102     12.804
REMARK  10 active torsions:
REMARK  status: ('A' for Active; 'I' for Inactive)
REMARK    1  A    between atoms: C_2  and  C_3 
REMARK    2  A    between atoms: C_3  and  C_4 
REMARK    3  A    between atoms: C_4  and  N_5 
REMARK    4  A    between atoms: N_5  and  C_7 
REMARK    5  A    between atoms: C_7  and  C_8 
REMARK    6  A    between atoms: C_8  and  C_9 
REMARK    7  A    between atoms: C_9  and  N_10 
REMARK       I    between atoms: N_10  and  C_11 
REMARK    8  A    between atoms: C_11  and  C_12 
REMARK    9  A    between atoms: C_12  and  O_13 
REMARK   10  A    between atoms: N_14  and  C_15 
ROOT
HETATM    1  C   UNL     1      26.522  42.853  50.157  1.00  0.00     0.256 C 
HETATM    2  N   UNL     1      26.682  41.484  49.631  1.00  0.00    -0.254 N 
HETATM    3  C   UNL     1      26.613  40.428  50.535  1.00  0.00     0.330 C 
HETATM    4  O   UNL     1      26.233  39.286  50.263  1.00  0.00    -0.246 OA
HETATM    5  N   UNL     1      26.931  40.686  51.835  1.00  0.00    -0.308 N 
HETATM    6  C   UNL     1      27.313  41.922  52.333  1.00  0.00     0.048 A 
HETATM    7  C   UNL     1      27.163  43.040  51.521  1.00  0.00     0.034 A 
HETATM    8  C   UNL     1      27.816  42.023  53.631  1.00  0.00     0.030 A 
HETATM    9  C   UNL     1      28.191  43.268  54.129  1.00  0.00     0.002 A 
HETATM   10  C   UNL     1      28.051  44.403  53.335  1.00  0.00     0.001 A 
HETATM   11  C   UNL     1      27.535  44.291  52.042  1.00  0.00     0.015 A 
HETATM   12  H   UNL     1      27.000  39.865  52.424  1.00  0.00     0.170 HD
ENDROOT
BRANCH   1  13
HETATM   13  C   UNL     1      24.975  43.214  50.265  1.00  0.00     0.279 C 
HETATM   14  N   UNL     1      24.483  44.153  49.363  1.00  0.00    -0.356 N 
HETATM   15  H   UNL     1      25.189  44.804  49.024  1.00  0.00     0.162 HD
HETATM   16  O   UNL     1      24.243  42.672  51.095  1.00  0.00    -0.268 OA
BRANCH  14  17
HETATM   17  C   UNL     1      23.125  44.636  49.483  1.00  0.00     0.124 C 
BRANCH  17  18
HETATM   18  C   UNL     1      22.987  46.066  48.968  1.00  0.00     0.047 C 
BRANCH  18  19
HETATM   19  C   UNL     1      24.070  46.972  49.550  1.00  0.00     0.236 C 
BRANCH  19  20
HETATM   20  N   UNL     1      23.749  48.450  49.401  1.00  0.00    -0.075 N 
HETATM   21  H   UNL     1      23.679  48.806  50.363  1.00  0.00     0.279 HD
HETATM   22  C   UNL     1      24.886  49.234  48.792  1.00  0.00     0.269 C 
BRANCH  20  23
HETATM   23  C   UNL     1      22.431  48.788  48.733  1.00  0.00     0.234 C 
BRANCH  23  24
HETATM   24  C   UNL     1      22.514  50.013  47.825  1.00  0.00     0.027 C 
BRANCH  24  25
HETATM   25  C   UNL     1      21.934  51.281  48.452  1.00  0.00    -0.003 C 
HETATM   26  C   UNL     1      20.504  51.064  48.927  1.00  0.00     0.005 C 
ENDBRANCH  24  25
ENDBRANCH  23  24
ENDBRANCH  20  23
ENDBRANCH  19  20
ENDBRANCH  18  19
ENDBRANCH  17  18
ENDBRANCH  14  17
ENDBRANCH   1  13
BRANCH   1  27
HETATM   27  O   UNL     1      27.170  43.777  49.281  1.00  0.00    -0.359 OA
HETATM   28  H   UNL     1      26.553  44.521  49.172  1.00  0.00     0.213 HD
ENDBRANCH   1  27
BRANCH   2  29
HETATM   29  C   UNL     1      26.645  41.215  48.209  1.00  0.00     0.042 A 
HETATM   30  C   UNL     1      25.453  41.178  47.469  1.00  0.00     0.030 A 
HETATM   31  C   UNL     1      25.456  40.915  46.094  1.00  0.00     0.002 A 
HETATM   32  C   UNL     1      26.654  40.695  45.424  1.00  0.00     0.000 A 
HETATM   33  C   UNL     1      27.849  40.739  46.129  1.00  0.00     0.002 A 
HETATM   34  C   UNL     1      27.843  40.996  47.504  1.00  0.00     0.030 A 
ENDBRANCH   2  29
TORSDOF 10
ENDMDL
