MODEL 1
REMARK VINA RESULT:     -10.4      0.000      0.000
REMARK  6 active torsions:
REMARK  status: ('A' for Active; 'I' for Inactive)
REMARK    1  A    between atoms: C_2  and  N_3 
REMARK       I    between atoms: N_3  and  C_4 
REMARK    2  A    between atoms: C_4  and  C_6 
REMARK    3  A    between atoms: C_10  and  C_11 
REMARK    4  A    between atoms: C_11  and  N_12 
REMARK       I    between atoms: N_12  and  C_13 
REMARK    5  A    between atoms: C_13  and  C_15 
REMARK    6  A    between atoms: C_18  and  C_22 
ROOT
HETATM    1  N   UNL     1      26.079  45.677  51.718  1.00  0.00    -0.353 N 
HETATM    2  C   UNL     1      26.113  46.389  52.896  1.00  0.00     0.251 C 
HETATM    3  O   UNL     1      25.345  47.308  53.154  1.00  0.00    -0.268 OA
HETATM    4  H   UNL     1      26.785  44.985  51.514  1.00  0.00     0.163 HD
ENDROOT
BRANCH   1   5
HETATM    5  C   UNL     1      25.114  45.967  50.680  1.00  0.00     0.161 C 
BRANCH   5   6
HETATM    6  C   UNL     1      25.452  47.247  49.958  1.00  0.00    -0.040 A 
HETATM    7  C   UNL     1      26.789  47.589  49.709  1.00  0.00     0.009 A 
HETATM    8  C   UNL     1      27.106  48.747  48.999  1.00  0.00     0.002 A 
HETATM    9  C   UNL     1      26.091  49.581  48.525  1.00  0.00     0.017 A 
HETATM   10  C   UNL     1      24.750  49.262  48.774  1.00  0.00     0.032 A 
HETATM   11  C   UNL     1      24.439  48.092  49.484  1.00  0.00     0.026 A 
BRANCH  10  12
HETATM   12  C   UNL     1      23.623  50.098  48.268  1.00  0.00     0.251 C 
HETATM   13  N   UNL     1      22.579  50.331  49.141  1.00  0.00    -0.357 N 
HETATM   14  H   UNL     1      22.520  49.803  50.000  1.00  0.00     0.162 HD
HETATM   15  O   UNL     1      23.644  50.524  47.118  1.00  0.00    -0.268 OA
BRANCH  13  16
HETATM   16  C   UNL     1      21.420  51.103  48.744  1.00  0.00     0.118 C 
HETATM   17  C   UNL     1      20.365  51.136  49.835  1.00  0.00     0.026 C 
ENDBRANCH  13  16
ENDBRANCH  10  12
ENDBRANCH   5   6
ENDBRANCH   1   5
BRANCH   2  18
HETATM   18  C   UNL     1      27.173  46.016  53.874  1.00  0.00     0.032 A 
HETATM   19  C   UNL     1      27.485  46.928  54.884  1.00  0.00     0.018 A 
HETATM   20  C   UNL     1      28.465  46.620  55.830  1.00  0.00     0.014 A 
HETATM   21  C   UNL     1      29.145  45.392  55.787  1.00  0.00    -0.017 A 
HETATM   22  C   UNL     1      28.837  44.464  54.770  1.00  0.00    -0.050 A 
HETATM   23  C   UNL     1      29.519  43.125  54.664  1.00  0.00     0.049 C 
HETATM   24  C   UNL     1      27.836  44.783  53.829  1.00  0.00     0.024 A 
BRANCH  21  25
HETATM   25  C   UNL     1      30.136  45.118  56.812  1.00  0.00     0.011 A 
HETATM   26  C   UNL     1      31.176  44.165  56.872  1.00  0.00     0.152 A 
HETATM   27  N   UNL     1      31.872  44.235  58.010  1.00  0.00    -0.187 NA
HETATM   28  N   UNL     1      31.266  45.224  58.689  1.00  0.00    -0.289 N 
HETATM   29  H   UNL     1      31.622  45.463  59.610  1.00  0.00     0.188 HD
HETATM   30  C   UNL     1      30.219  45.783  58.017  1.00  0.00     0.123 A 
ENDBRANCH  21  25
ENDBRANCH   2  18
TORSDOF 6
ENDMDL
MODEL 2
REMARK VINA RESULT:      -9.2      1.794      2.783
REMARK  6 active torsions:
REMARK  status: ('A' for Active; 'I' for Inactive)
REMARK    1  A    between atoms: C_2  and  N_3 
REMARK       I    between atoms: N_3  and  C_4 
REMARK    2  A    between atoms: C_4  and  C_6 
REMARK    3  A    between atoms: C_10  and  C_11 
REMARK    4  A    between atoms: C_11  and  N_12 
REMARK       I    between atoms: N_12  and  C_13 
REMARK    5  A    between atoms: C_13  and  C_15 
REMARK    6  A    between atoms: C_18  and  C_22 
ROOT
HETATM    1  N   UNL     1      24.807  46.654  50.834  1.00  0.00    -0.353 N 
HETATM    2  C   UNL     1      24.860  45.591  51.707  1.00  0.00     0.251 C 
HETATM    3  O   UNL     1      24.154  44.594  51.603  1.00  0.00    -0.268 OA
HETATM    4  H   UNL     1      25.347  47.488  51.006  1.00  0.00     0.163 HD
ENDROOT
BRANCH   1   5
HETATM    5  C   UNL     1      23.898  46.673  49.709  1.00  0.00     0.161 C 
BRANCH   5   6
HETATM    6  C   UNL     1      23.650  48.080  49.227  1.00  0.00    -0.040 A 
HETATM    7  C   UNL     1      24.726  48.920  48.907  1.00  0.00     0.009 A 
HETATM    8  C   UNL     1      24.502  50.206  48.415  1.00  0.00     0.002 A 
HETATM    9  C   UNL     1      23.198  50.671  48.233  1.00  0.00     0.017 A 
HETATM   10  C   UNL     1      22.111  49.851  48.557  1.00  0.00     0.032 A 
HETATM   11  C   UNL     1      22.344  48.557  49.046  1.00  0.00     0.026 A 
BRANCH  10  12
HETATM   12  C   UNL     1      20.697  50.283  48.356  1.00  0.00     0.251 C 
HETATM   13  N   UNL     1      19.893  50.324  49.478  1.00  0.00    -0.357 N 
HETATM   14  H   UNL     1      20.215  49.906  50.339  1.00  0.00     0.162 HD
HETATM   15  O   UNL     1      20.294  50.558  47.231  1.00  0.00    -0.268 OA
BRANCH  13  16
HETATM   16  C   UNL     1      18.496  50.699  49.393  1.00  0.00     0.118 C 
HETATM   17  C   UNL     1      18.293  52.180  49.658  1.00  0.00     0.026 C 
ENDBRANCH  13  16
ENDBRANCH  10  12
ENDBRANCH   5   6
ENDBRANCH   1   5
BRANCH   2  18
HETATM   18  C   UNL     1      25.816  45.703  52.843  1.00  0.00     0.032 A 
HETATM   19  C   UNL     1      26.565  44.575  53.186  1.00  0.00     0.018 A 
HETATM   20  C   UNL     1      27.481  44.634  54.238  1.00  0.00     0.014 A 
HETATM   21  C   UNL     1      27.669  45.823  54.962  1.00  0.00    -0.017 A 
HETATM   22  C   UNL     1      26.917  46.968  54.624  1.00  0.00    -0.050 A 
HETATM   23  C   UNL     1      27.070  48.278  55.350  1.00  0.00     0.049 C 
HETATM   24  C   UNL     1      26.005  46.898  53.550  1.00  0.00     0.024 A 
BRANCH  21  25
HETATM   25  C   UNL     1      28.653  45.830  56.029  1.00  0.00     0.011 A 
HETATM   26  C   UNL     1      28.540  46.151  57.400  1.00  0.00     0.152 A 
HETATM   27  N   UNL     1      29.700  46.036  58.052  1.00  0.00    -0.187 NA
HETATM   28  N   UNL     1      30.564  45.658  57.094  1.00  0.00    -0.289 N 
HETATM   29  H   UNL     1      31.534  45.511  57.353  1.00  0.00     0.188 HD
HETATM   30  C   UNL     1      29.987  45.524  55.865  1.00  0.00     0.123 A 
ENDBRANCH  21  25
ENDBRANCH   2  18
TORSDOF 6
ENDMDL
MODEL 3
REMARK VINA RESULT:      -9.1      2.497     10.607
REMARK  6 active torsions:
REMARK  status: ('A' for Active; 'I' for Inactive)
REMARK    1  A    between atoms: C_2  and  N_3 
REMARK       I    between atoms: N_3  and  C_4 
REMARK    2  A    between atoms: C_4  and  C_6 
REMARK    3  A    between atoms: C_10  and  C_11 
REMARK    4  A    between atoms: C_11  and  N_12 
REMARK       I    between atoms: N_12  and  C_13 
REMARK    5  A    between atoms: C_13  and  C_15 
REMARK    6  A    between atoms: C_18  and  C_22 
ROOT
HETATM    1  N   UNL     1      24.031  46.813  50.090  1.00  0.00    -0.353 N 
HETATM    2  C   UNL     1      24.157  48.021  49.442  1.00  0.00     0.251 C 
HETATM    3  O   UNL     1      25.211  48.429  48.969  1.00  0.00    -0.268 OA
HETATM    4  H   UNL     1      23.163  46.556  50.536  1.00  0.00     0.163 HD
ENDROOT
BRANCH   1   5
HETATM    5  C   UNL     1      25.155  45.919  50.262  1.00  0.00     0.161 C 
BRANCH   5   6
HETATM    6  C   UNL     1      25.732  46.024  51.651  1.00  0.00    -0.040 A 
HETATM    7  C   UNL     1      25.457  47.142  52.451  1.00  0.00     0.009 A 
HETATM    8  C   UNL     1      25.947  47.223  53.754  1.00  0.00     0.002 A 
HETATM    9  C   UNL     1      26.720  46.185  54.279  1.00  0.00     0.017 A 
HETATM   10  C   UNL     1      27.015  45.065  53.493  1.00  0.00     0.032 A 
HETATM   11  C   UNL     1      26.513  44.988  52.184  1.00  0.00     0.026 A 
BRANCH  10  12
HETATM   12  C   UNL     1      27.810  43.913  54.009  1.00  0.00     0.251 C 
HETATM   13  N   UNL     1      29.122  44.166  54.354  1.00  0.00    -0.357 N 
HETATM   14  H   UNL     1      29.547  45.043  54.090  1.00  0.00     0.162 HD
HETATM   15  O   UNL     1      27.297  42.802  54.089  1.00  0.00    -0.268 OA
BRANCH  13  16
HETATM   16  C   UNL     1      29.993  43.114  54.837  1.00  0.00     0.118 C 
HETATM   17  C   UNL     1      30.908  43.604  55.945  1.00  0.00     0.026 C 
ENDBRANCH  13  16
ENDBRANCH  10  12
ENDBRANCH   5   6
ENDBRANCH   1   5
BRANCH   2  18
HETATM   18  C   UNL     1      22.934  48.866  49.356  1.00  0.00     0.032 A 
HETATM   19  C   UNL     1      23.074  50.245  49.524  1.00  0.00     0.018 A 
HETATM   20  C   UNL     1      21.958  51.080  49.442  1.00  0.00     0.014 A 
HETATM   21  C   UNL     1      20.682  50.552  49.184  1.00  0.00    -0.017 A 
HETATM   22  C   UNL     1      20.530  49.160  49.013  1.00  0.00    -0.050 A 
HETATM   23  C   UNL     1      19.196  48.522  48.727  1.00  0.00     0.049 C 
HETATM   24  C   UNL     1      21.668  48.330  49.085  1.00  0.00     0.024 A 
BRANCH  21  25
HETATM   25  C   UNL     1      19.564  51.472  49.087  1.00  0.00     0.011 A 
HETATM   26  C   UNL     1      18.525  51.776  49.994  1.00  0.00     0.152 A 
HETATM   27  N   UNL     1      17.675  52.689  49.514  1.00  0.00    -0.187 NA
HETATM   28  N   UNL     1      18.160  52.957  48.290  1.00  0.00    -0.289 N 
HETATM   29  H   UNL     1      17.666  53.634  47.715  1.00  0.00     0.188 HD
HETATM   30  C   UNL     1      19.288  52.253  47.985  1.00  0.00     0.123 A 
ENDBRANCH  21  25
ENDBRANCH   2  18
TORSDOF 6
ENDMDL
MODEL 4
REMARK VINA RESULT:      -9.1      1.981      2.731
REMARK  6 active torsions:
REMARK  status: ('A' for Active; 'I' for Inactive)
REMARK    1  A    between atoms: C_2  and  N_3 
REMARK       I    between atoms: N_3  and  C_4 
REMARK    2  A    between atoms: C_4  and  C_6 
REMARK    3  A    between atoms: C_10  and  C_11 
REMARK    4  A    between atoms: C_11  and  N_12 
REMARK       I    between atoms: N_12  and  C_13 
REMARK    5  A    between atoms: C_13  and  C_15 
REMARK    6  A    between atoms: C_18  and  C_22 
ROOT
HETATM    1  N   UNL     1      24.675  46.922  50.551  1.00  0.00    -0.353 N 
HETATM    2  C   UNL     1      24.847  45.723  51.205  1.00  0.00     0.251 C 
HETATM    3  O   UNL     1      24.228  44.703  50.925  1.00  0.00    -0.268 OA
HETATM    4  H   UNL     1      25.145  47.755  50.870  1.00  0.00     0.163 HD
ENDROOT
BRANCH   1   5
HETATM    5  C   UNL     1      23.734  47.068  49.462  1.00  0.00     0.161 C 
BRANCH   5   6
HETATM    6  C   UNL     1      23.490  48.520  49.138  1.00  0.00    -0.040 A 
HETATM    7  C   UNL     1      24.490  49.286  48.519  1.00  0.00     0.009 A 
HETATM    8  C   UNL     1      24.254  50.616  48.172  1.00  0.00     0.002 A 
HETATM    9  C   UNL     1      23.014  51.201  48.436  1.00  0.00     0.017 A 
HETATM   10  C   UNL     1      22.007  50.457  49.063  1.00  0.00     0.032 A 
HETATM   11  C   UNL     1      22.250  49.117  49.404  1.00  0.00     0.026 A 
BRANCH  10  12
HETATM   12  C   UNL     1      20.654  51.019  49.344  1.00  0.00     0.251 C 
HETATM   13  N   UNL     1      20.115  51.852  48.384  1.00  0.00    -0.357 N 
HETATM   14  H   UNL     1      20.698  52.191  47.633  1.00  0.00     0.162 HD
HETATM   15  O   UNL     1      20.086  50.752  50.397  1.00  0.00    -0.268 OA
BRANCH  13  16
HETATM   16  C   UNL     1      18.821  52.477  48.566  1.00  0.00     0.118 C 
HETATM   17  C   UNL     1      17.812  51.994  47.540  1.00  0.00     0.026 C 
ENDBRANCH  13  16
ENDBRANCH  10  12
ENDBRANCH   5   6
ENDBRANCH   1   5
BRANCH   2  18
HETATM   18  C   UNL     1      25.824  45.708  52.329  1.00  0.00     0.032 A 
HETATM   19  C   UNL     1      26.072  46.906  53.002  1.00  0.00     0.018 A 
HETATM   20  C   UNL     1      26.973  46.940  54.068  1.00  0.00     0.014 A 
HETATM   21  C   UNL     1      27.637  45.775  54.486  1.00  0.00    -0.017 A 
HETATM   22  C   UNL     1      27.393  44.559  53.813  1.00  0.00    -0.050 A 
HETATM   23  C   UNL     1      28.062  43.269  54.209  1.00  0.00     0.049 C 
HETATM   24  C   UNL     1      26.471  44.537  52.746  1.00  0.00     0.024 A 
BRANCH  21  25
HETATM   25  C   UNL     1      28.543  45.868  55.616  1.00  0.00     0.011 A 
HETATM   26  C   UNL     1      29.916  45.557  55.738  1.00  0.00     0.152 A 
HETATM   27  N   UNL     1      30.385  45.781  56.969  1.00  0.00    -0.187 NA
HETATM   28  N   UNL     1      29.307  46.219  57.642  1.00  0.00    -0.289 N 
HETATM   29  H   UNL     1      29.417  46.453  58.624  1.00  0.00     0.188 HD
HETATM   30  C   UNL     1      28.179  46.286  56.878  1.00  0.00     0.123 A 
ENDBRANCH  21  25
ENDBRANCH   2  18
TORSDOF 6
ENDMDL
MODEL 5
REMARK VINA RESULT:      -9.0      3.653      6.212
REMARK  6 active torsions:
REMARK  status: ('A' for Active; 'I' for Inactive)
REMARK    1  A    between atoms: C_2  and  N_3 
REMARK       I    between atoms: N_3  and  C_4 
REMARK    2  A    between atoms: C_4  and  C_6 
REMARK    3  A    between atoms: C_10  and  C_11 
REMARK    4  A    between atoms: C_11  and  N_12 
REMARK       I    between atoms: N_12  and  C_13 
REMARK    5  A    between atoms: C_13  and  C_15 
REMARK    6  A    between atoms: C_18  and  C_22 
ROOT
HETATM    1  N   UNL     1      25.481  44.895  52.420  1.00  0.00    -0.353 N 
HETATM    2  C   UNL     1      26.204  45.980  52.862  1.00  0.00     0.251 C 
HETATM    3  O   UNL     1      26.029  47.123  52.454  1.00  0.00    -0.268 OA
HETATM    4  H   UNL     1      25.717  43.962  52.722  1.00  0.00     0.163 HD
ENDROOT
BRANCH   1   5
HETATM    5  C   UNL     1      24.441  45.027  51.423  1.00  0.00     0.161 C 
BRANCH   5   6
HETATM    6  C   UNL     1      24.326  43.780  50.583  1.00  0.00    -0.040 A 
HETATM    7  C   UNL     1      23.335  43.681  49.595  1.00  0.00     0.009 A 
HETATM    8  C   UNL     1      23.254  42.550  48.780  1.00  0.00     0.002 A 
HETATM    9  C   UNL     1      24.163  41.503  48.940  1.00  0.00     0.017 A 
HETATM   10  C   UNL     1      25.152  41.579  49.929  1.00  0.00     0.032 A 
HETATM   11  C   UNL     1      25.232  42.722  50.740  1.00  0.00     0.026 A 
BRANCH  10  12
HETATM   12  C   UNL     1      26.169  40.505  50.126  1.00  0.00     0.251 C 
HETATM   13  N   UNL     1      26.039  39.373  49.346  1.00  0.00    -0.357 N 
HETATM   14  H   UNL     1      25.193  39.228  48.815  1.00  0.00     0.162 HD
HETATM   15  O   UNL     1      27.052  40.644  50.966  1.00  0.00    -0.268 OA
BRANCH  13  16
HETATM   16  C   UNL     1      26.952  38.257  49.477  1.00  0.00     0.118 C 
HETATM   17  C   UNL     1      27.900  38.162  48.295  1.00  0.00     0.026 C 
ENDBRANCH  13  16
ENDBRANCH  10  12
ENDBRANCH   5   6
ENDBRANCH   1   5
BRANCH   2  18
HETATM   18  C   UNL     1      27.269  45.712  53.868  1.00  0.00     0.032 A 
HETATM   19  C   UNL     1      27.416  46.611  54.927  1.00  0.00     0.018 A 
HETATM   20  C   UNL     1      28.393  46.397  55.900  1.00  0.00     0.014 A 
HETATM   21  C   UNL     1      29.238  45.276  55.836  1.00  0.00    -0.017 A 
HETATM   22  C   UNL     1      29.098  44.362  54.771  1.00  0.00    -0.050 A 
HETATM   23  C   UNL     1      29.961  43.135  54.641  1.00  0.00     0.049 C 
HETATM   24  C   UNL     1      28.097  44.584  53.802  1.00  0.00     0.024 A 
BRANCH  21  25
HETATM   25  C   UNL     1      30.219  45.094  56.890  1.00  0.00     0.011 A 
HETATM   26  C   UNL     1      31.204  44.100  57.086  1.00  0.00     0.152 A 
HETATM   27  N   UNL     1      31.911  44.292  58.203  1.00  0.00    -0.187 NA
HETATM   28  N   UNL     1      31.368  45.400  58.734  1.00  0.00    -0.289 N 
HETATM   29  H   UNL     1      31.743  45.746  59.612  1.00  0.00     0.188 HD
HETATM   30  C   UNL     1      30.349  45.917  57.989  1.00  0.00     0.123 A 
ENDBRANCH  21  25
ENDBRANCH   2  18
TORSDOF 6
ENDMDL
MODEL 6
REMARK VINA RESULT:      -9.0      2.709      8.864
REMARK  6 active torsions:
REMARK  status: ('A' for Active; 'I' for Inactive)
REMARK    1  A    between atoms: C_2  and  N_3 
REMARK       I    between atoms: N_3  and  C_4 
REMARK    2  A    between atoms: C_4  and  C_6 
REMARK    3  A    between atoms: C_10  and  C_11 
REMARK    4  A    between atoms: C_11  and  N_12 
REMARK       I    between atoms: N_12  and  C_13 
REMARK    5  A    between atoms: C_13  and  C_15 
REMARK    6  A    between atoms: C_18  and  C_22 
ROOT
HETATM    1  N   UNL     1      27.491  44.236  51.138  1.00  0.00    -0.353 N 
HETATM    2  C   UNL     1      26.143  44.305  50.865  1.00  0.00     0.251 C 
HETATM    3  O   UNL     1      25.371  43.366  51.022  1.00  0.00    -0.268 OA
HETATM    4  H   UNL     1      28.101  45.008  50.915  1.00  0.00     0.163 HD
ENDROOT
BRANCH   1   5
HETATM    5  C   UNL     1      28.106  43.028  51.641  1.00  0.00     0.161 C 
BRANCH   5   6
HETATM    6  C   UNL     1      28.867  43.289  52.916  1.00  0.00    -0.040 A 
HETATM    7  C   UNL     1      30.014  42.543  53.223  1.00  0.00     0.009 A 
HETATM    8  C   UNL     1      30.751  42.813  54.377  1.00  0.00     0.002 A 
HETATM    9  C   UNL     1      30.352  43.835  55.241  1.00  0.00     0.017 A 
HETATM   10  C   UNL     1      29.203  44.583  54.958  1.00  0.00     0.032 A 
HETATM   11  C   UNL     1      28.471  44.310  53.792  1.00  0.00     0.026 A 
BRANCH  10  12
HETATM   12  C   UNL     1      28.746  45.705  55.828  1.00  0.00     0.251 C 
HETATM   13  N   UNL     1      27.816  46.572  55.290  1.00  0.00    -0.357 N 
HETATM   14  H   UNL     1      27.613  46.535  54.301  1.00  0.00     0.162 HD
HETATM   15  O   UNL     1      29.210  45.836  56.956  1.00  0.00    -0.268 OA
BRANCH  13  16
HETATM   16  C   UNL     1      27.326  47.714  56.035  1.00  0.00     0.118 C 
HETATM   17  C   UNL     1      26.250  48.465  55.272  1.00  0.00     0.026 C 
ENDBRANCH  13  16
ENDBRANCH  10  12
ENDBRANCH   5   6
ENDBRANCH   1   5
BRANCH   2  18
HETATM   18  C   UNL     1      25.634  45.595  50.323  1.00  0.00     0.032 A 
HETATM   19  C   UNL     1      24.260  45.722  50.108  1.00  0.00     0.018 A 
HETATM   20  C   UNL     1      23.734  46.915  49.610  1.00  0.00     0.014 A 
HETATM   21  C   UNL     1      24.571  48.006  49.324  1.00  0.00    -0.017 A 
HETATM   22  C   UNL     1      25.961  47.889  49.538  1.00  0.00    -0.050 A 
HETATM   23  C   UNL     1      26.919  49.017  49.262  1.00  0.00     0.049 C 
HETATM   24  C   UNL     1      26.477  46.682  50.054  1.00  0.00     0.024 A 
BRANCH  21  25
HETATM   25  C   UNL     1      23.963  49.229  48.832  1.00  0.00     0.011 A 
HETATM   26  C   UNL     1      24.268  50.037  47.714  1.00  0.00     0.152 A 
HETATM   27  N   UNL     1      23.462  51.098  47.612  1.00  0.00    -0.187 NA
HETATM   28  N   UNL     1      22.651  50.980  48.677  1.00  0.00    -0.289 N 
HETATM   29  H   UNL     1      21.940  51.691  48.820  1.00  0.00     0.188 HD
HETATM   30  C   UNL     1      22.911  49.880  49.440  1.00  0.00     0.123 A 
ENDBRANCH  21  25
ENDBRANCH   2  18
TORSDOF 6
ENDMDL
MODEL 7
REMARK VINA RESULT:      -8.9      2.516      9.435
REMARK  6 active torsions:
REMARK  status: ('A' for Active; 'I' for Inactive)
REMARK    1  A    between atoms: C_2  and  N_3 
REMARK       I    between atoms: N_3  and  C_4 
REMARK    2  A    between atoms: C_4  and  C_6 
REMARK    3  A    between atoms: C_10  and  C_11 
REMARK    4  A    between atoms: C_11  and  N_12 
REMARK       I    between atoms: N_12  and  C_13 
REMARK    5  A    between atoms: C_13  and  C_15 
REMARK    6  A    between atoms: C_18  and  C_22 
ROOT
HETATM    1  N   UNL     1      26.146  43.667  51.008  1.00  0.00    -0.353 N 
HETATM    2  C   UNL     1      24.805  43.974  51.064  1.00  0.00     0.251 C 
HETATM    3  O   UNL     1      23.960  43.230  51.549  1.00  0.00    -0.268 OA
HETATM    4  H   UNL     1      26.793  44.272  50.526  1.00  0.00     0.163 HD
ENDROOT
BRANCH   1   5
HETATM    5  C   UNL     1      26.666  42.421  51.529  1.00  0.00     0.161 C 
BRANCH   5   6
HETATM    6  C   UNL     1      27.843  42.656  52.441  1.00  0.00    -0.040 A 
HETATM    7  C   UNL     1      29.042  41.954  52.246  1.00  0.00     0.009 A 
HETATM    8  C   UNL     1      30.151  42.202  53.055  1.00  0.00     0.002 A 
HETATM    9  C   UNL     1      30.080  43.157  54.071  1.00  0.00     0.017 A 
HETATM   10  C   UNL     1      28.888  43.861  54.288  1.00  0.00     0.032 A 
HETATM   11  C   UNL     1      27.779  43.610  53.466  1.00  0.00     0.026 A 
BRANCH  10  12
HETATM   12  C   UNL     1      28.762  44.913  55.338  1.00  0.00     0.251 C 
HETATM   13  N   UNL     1      29.844  45.090  56.177  1.00  0.00    -0.357 N 
HETATM   14  H   UNL     1      30.591  44.410  56.178  1.00  0.00     0.162 HD
HETATM   15  O   UNL     1      27.723  45.557  55.438  1.00  0.00    -0.268 OA
BRANCH  13  16
HETATM   16  C   UNL     1      29.818  46.062  57.250  1.00  0.00     0.118 C 
HETATM   17  C   UNL     1      30.510  45.544  58.497  1.00  0.00     0.026 C 
ENDBRANCH  13  16
ENDBRANCH  10  12
ENDBRANCH   5   6
ENDBRANCH   1   5
BRANCH   2  18
HETATM   18  C   UNL     1      24.390  45.274  50.468  1.00  0.00     0.032 A 
HETATM   19  C   UNL     1      24.945  46.444  50.990  1.00  0.00     0.018 A 
HETATM   20  C   UNL     1      24.594  47.686  50.458  1.00  0.00     0.014 A 
HETATM   21  C   UNL     1      23.686  47.780  49.390  1.00  0.00    -0.017 A 
HETATM   22  C   UNL     1      23.119  46.604  48.856  1.00  0.00    -0.050 A 
HETATM   23  C   UNL     1      22.145  46.626  47.707  1.00  0.00     0.049 C 
HETATM   24  C   UNL     1      23.493  45.355  49.394  1.00  0.00     0.024 A 
BRANCH  21  25
HETATM   25  C   UNL     1      23.378  49.097  48.864  1.00  0.00     0.011 A 
HETATM   26  C   UNL     1      24.032  49.890  47.894  1.00  0.00     0.152 A 
HETATM   27  N   UNL     1      23.424  51.063  47.695  1.00  0.00    -0.187 NA
HETATM   28  N   UNL     1      22.389  51.030  48.551  1.00  0.00    -0.289 N 
HETATM   29  H   UNL     1      21.770  51.834  48.587  1.00  0.00     0.188 HD
HETATM   30  C   UNL     1      22.318  49.877  49.276  1.00  0.00     0.123 A 
ENDBRANCH  21  25
ENDBRANCH   2  18
TORSDOF 6
ENDMDL
MODEL 8
REMARK VINA RESULT:      -8.9      2.694     11.019
REMARK  6 active torsions:
REMARK  status: ('A' for Active; 'I' for Inactive)
REMARK    1  A    between atoms: C_2  and  N_3 
REMARK       I    between atoms: N_3  and  C_4 
REMARK    2  A    between atoms: C_4  and  C_6 
REMARK    3  A    between atoms: C_10  and  C_11 
REMARK    4  A    between atoms: C_11  and  N_12 
REMARK       I    between atoms: N_12  and  C_13 
REMARK    5  A    between atoms: C_13  and  C_15 
REMARK    6  A    between atoms: C_18  and  C_22 
ROOT
HETATM    1  N   UNL     1      23.445  48.414  49.695  1.00  0.00    -0.353 N 
HETATM    2  C   UNL     1      23.031  49.225  48.662  1.00  0.00     0.251 C 
HETATM    3  O   UNL     1      23.735  49.508  47.700  1.00  0.00    -0.268 OA
HETATM    4  H   UNL     1      22.861  48.277  50.506  1.00  0.00     0.163 HD
ENDROOT
BRANCH   1   5
HETATM    5  C   UNL     1      24.765  47.824  49.719  1.00  0.00     0.161 C 
BRANCH   5   6
HETATM    6  C   UNL     1      24.857  46.726  50.748  1.00  0.00    -0.040 A 
HETATM    7  C   UNL     1      24.368  45.443  50.461  1.00  0.00     0.009 A 
HETATM    8  C   UNL     1      24.493  44.409  51.390  1.00  0.00     0.002 A 
HETATM    9  C   UNL     1      25.112  44.643  52.620  1.00  0.00     0.017 A 
HETATM   10  C   UNL     1      25.596  45.920  52.930  1.00  0.00     0.032 A 
HETATM   11  C   UNL     1      25.471  46.953  51.988  1.00  0.00     0.026 A 
BRANCH  10  12
HETATM   12  C   UNL     1      26.291  46.221  54.215  1.00  0.00     0.251 C 
HETATM   13  N   UNL     1      27.321  45.376  54.579  1.00  0.00    -0.357 N 
HETATM   14  H   UNL     1      27.454  44.508  54.081  1.00  0.00     0.162 HD
HETATM   15  O   UNL     1      25.926  47.168  54.902  1.00  0.00    -0.268 OA
BRANCH  13  16
HETATM   16  C   UNL     1      28.044  45.557  55.821  1.00  0.00     0.118 C 
HETATM   17  C   UNL     1      29.413  46.171  55.591  1.00  0.00     0.026 C 
ENDBRANCH  13  16
ENDBRANCH  10  12
ENDBRANCH   5   6
ENDBRANCH   1   5
BRANCH   2  18
HETATM   18  C   UNL     1      21.660  49.796  48.766  1.00  0.00     0.032 A 
HETATM   19  C   UNL     1      21.478  51.138  48.422  1.00  0.00     0.018 A 
HETATM   20  C   UNL     1      20.209  51.716  48.494  1.00  0.00     0.014 A 
HETATM   21  C   UNL     1      19.098  50.962  48.907  1.00  0.00    -0.017 A 
HETATM   22  C   UNL     1      19.271  49.606  49.257  1.00  0.00    -0.050 A 
HETATM   23  C   UNL     1      18.126  48.734  49.701  1.00  0.00     0.049 C 
HETATM   24  C   UNL     1      20.556  49.032  49.167  1.00  0.00     0.024 A 
BRANCH  21  25
HETATM   25  C   UNL     1      17.800  51.612  48.939  1.00  0.00     0.011 A 
HETATM   26  C   UNL     1      16.743  51.629  48.003  1.00  0.00     0.152 A 
HETATM   27  N   UNL     1      15.705  52.363  48.414  1.00  0.00    -0.187 NA
HETATM   28  N   UNL     1      16.104  52.832  49.608  1.00  0.00    -0.289 N 
HETATM   29  H   UNL     1      15.471  53.435  50.124  1.00  0.00     0.188 HD
HETATM   30  C   UNL     1      17.352  52.414  49.967  1.00  0.00     0.123 A 
ENDBRANCH  21  25
ENDBRANCH   2  18
TORSDOF 6
ENDMDL
MODEL 9
REMARK VINA RESULT:      -8.7      8.911     13.378
REMARK  6 active torsions:
REMARK  status: ('A' for Active; 'I' for Inactive)
REMARK    1  A    between atoms: C_2  and  N_3 
REMARK       I    between atoms: N_3  and  C_4 
REMARK    2  A    between atoms: C_4  and  C_6 
REMARK    3  A    between atoms: C_10  and  C_11 
REMARK    4  A    between atoms: C_11  and  N_12 
REMARK       I    between atoms: N_12  and  C_13 
REMARK    5  A    between atoms: C_13  and  C_15 
REMARK    6  A    between atoms: C_18  and  C_22 
ROOT
HETATM    1  N   UNL     1      16.004  53.271  50.599  1.00  0.00    -0.353 N 
HETATM    2  C   UNL     1      16.145  52.859  49.293  1.00  0.00     0.251 C 
HETATM    3  O   UNL     1      15.266  52.978  48.447  1.00  0.00    -0.268 OA
HETATM    4  H   UNL     1      16.722  53.076  51.281  1.00  0.00     0.163 HD
ENDROOT
BRANCH   1   5
HETATM    5  C   UNL     1      14.786  53.888  51.077  1.00  0.00     0.161 C 
BRANCH   5   6
HETATM    6  C   UNL     1      14.995  55.350  51.381  1.00  0.00    -0.040 A 
HETATM    7  C   UNL     1      15.223  56.265  50.343  1.00  0.00     0.009 A 
HETATM    8  C   UNL     1      15.368  57.626  50.613  1.00  0.00     0.002 A 
HETATM    9  C   UNL     1      15.285  58.094  51.926  1.00  0.00     0.017 A 
HETATM   10  C   UNL     1      15.069  57.195  52.978  1.00  0.00     0.032 A 
HETATM   11  C   UNL     1      14.918  55.828  52.697  1.00  0.00     0.026 A 
BRANCH  10  12
HETATM   12  C   UNL     1      14.942  57.639  54.396  1.00  0.00     0.251 C 
HETATM   13  N   UNL     1      13.835  57.196  55.091  1.00  0.00    -0.357 N 
HETATM   14  H   UNL     1      13.078  56.752  54.592  1.00  0.00     0.162 HD
HETATM   15  O   UNL     1      15.788  58.381  54.884  1.00  0.00    -0.268 OA
BRANCH  13  16
HETATM   16  C   UNL     1      13.596  57.591  56.464  1.00  0.00     0.118 C 
HETATM   17  C   UNL     1      12.562  58.699  56.560  1.00  0.00     0.026 C 
ENDBRANCH  13  16
ENDBRANCH  10  12
ENDBRANCH   5   6
ENDBRANCH   1   5
BRANCH   2  18
HETATM   18  C   UNL     1      17.435  52.210  48.931  1.00  0.00     0.032 A 
HETATM   19  C   UNL     1      18.449  52.181  49.890  1.00  0.00     0.018 A 
HETATM   20  C   UNL     1      19.673  51.576  49.601  1.00  0.00     0.014 A 
HETATM   21  C   UNL     1      19.904  50.983  48.348  1.00  0.00    -0.017 A 
HETATM   22  C   UNL     1      18.886  51.007  47.371  1.00  0.00    -0.050 A 
HETATM   23  C   UNL     1      19.058  50.386  46.010  1.00  0.00     0.049 C 
HETATM   24  C   UNL     1      17.650  51.610  47.683  1.00  0.00     0.024 A 
BRANCH  21  25
HETATM   25  C   UNL     1      21.188  50.348  48.114  1.00  0.00     0.011 A 
HETATM   26  C   UNL     1      22.393  50.852  47.577  1.00  0.00     0.152 A 
HETATM   27  N   UNL     1      23.357  49.928  47.522  1.00  0.00    -0.187 NA
HETATM   28  N   UNL     1      22.763  48.824  48.008  1.00  0.00    -0.289 N 
HETATM   29  H   UNL     1      23.308  47.969  48.060  1.00  0.00     0.188 HD
HETATM   30  C   UNL     1      21.464  49.022  48.373  1.00  0.00     0.123 A 
ENDBRANCH  21  25
ENDBRANCH   2  18
TORSDOF 6
ENDMDL
MODEL 10
REMARK VINA RESULT:      -8.6      4.311      9.118
REMARK  6 active torsions:
REMARK  status: ('A' for Active; 'I' for Inactive)
REMARK    1  A    between atoms: C_2  and  N_3 
REMARK       I    between atoms: N_3  and  C_4 
REMARK    2  A    between atoms: C_4  and  C_6 
REMARK    3  A    between atoms: C_10  and  C_11 
REMARK    4  A    between atoms: C_11  and  N_12 
REMARK       I    between atoms: N_12  and  C_13 
REMARK    5  A    between atoms: C_13  and  C_15 
REMARK    6  A    between atoms: C_18  and  C_22 
ROOT
HETATM    1  N   UNL     1      28.375  41.954  52.555  1.00  0.00    -0.353 N 
HETATM    2  C   UNL     1      28.155  40.980  51.607  1.00  0.00     0.251 C 
HETATM    3  O   UNL     1      28.874  39.998  51.465  1.00  0.00    -0.268 OA
HETATM    4  H   UNL     1      27.805  42.786  52.580  1.00  0.00     0.163 HD
ENDROOT
BRANCH   1   5
HETATM    5  C   UNL     1      29.491  41.887  53.472  1.00  0.00     0.161 C 
BRANCH   5   6
HETATM    6  C   UNL     1      29.560  43.116  54.343  1.00  0.00    -0.040 A 
HETATM    7  C   UNL     1      30.550  43.231  55.330  1.00  0.00     0.009 A 
HETATM    8  C   UNL     1      30.650  44.386  56.107  1.00  0.00     0.002 A 
HETATM    9  C   UNL     1      29.762  45.445  55.907  1.00  0.00     0.017 A 
HETATM   10  C   UNL     1      28.760  45.345  54.934  1.00  0.00     0.032 A 
HETATM   11  C   UNL     1      28.670  44.182  54.153  1.00  0.00     0.026 A 
BRANCH  10  12
HETATM   12  C   UNL     1      27.802  46.455  54.655  1.00  0.00     0.251 C 
HETATM   13  N   UNL     1      26.743  46.168  53.818  1.00  0.00    -0.357 N 
HETATM   14  H   UNL     1      26.741  45.305  53.293  1.00  0.00     0.162 HD
HETATM   15  O   UNL     1      27.990  47.563  55.145  1.00  0.00    -0.268 OA
BRANCH  13  16
HETATM   16  C   UNL     1      25.771  47.178  53.456  1.00  0.00     0.118 C 
HETATM   17  C   UNL     1      25.355  47.064  52.000  1.00  0.00     0.026 C 
ENDBRANCH  13  16
ENDBRANCH  10  12
ENDBRANCH   5   6
ENDBRANCH   1   5
BRANCH   2  18
HETATM   18  C   UNL     1      26.989  41.177  50.702  1.00  0.00     0.032 A 
HETATM   19  C   UNL     1      26.877  40.347  49.584  1.00  0.00     0.018 A 
HETATM   20  C   UNL     1      25.796  40.487  48.711  1.00  0.00     0.014 A 
HETATM   21  C   UNL     1      24.805  41.455  48.943  1.00  0.00    -0.017 A 
HETATM   22  C   UNL     1      24.909  42.298  50.069  1.00  0.00    -0.050 A 
HETATM   23  C   UNL     1      23.882  43.353  50.386  1.00  0.00     0.049 C 
HETATM   24  C   UNL     1      25.999  42.137  50.950  1.00  0.00     0.024 A 
BRANCH  21  25
HETATM   25  C   UNL     1      23.693  41.537  48.014  1.00  0.00     0.011 A 
HETATM   26  C   UNL     1      22.457  40.853  47.976  1.00  0.00     0.152 A 
HETATM   27  N   UNL     1      21.701  41.216  46.935  1.00  0.00    -0.187 NA
HETATM   28  N   UNL     1      22.460  42.121  46.295  1.00  0.00    -0.289 N 
HETATM   29  H   UNL     1      22.092  42.545  45.449  1.00  0.00     0.188 HD
HETATM   30  C   UNL     1      23.664  42.347  46.898  1.00  0.00     0.123 A 
ENDBRANCH  21  25
ENDBRANCH   2  18
TORSDOF 6
ENDMDL
