MODEL 1
REMARK VINA RESULT:      -9.1      0.000      0.000
REMARK  8 active torsions:
REMARK  status: ('A' for Active; 'I' for Inactive)
REMARK    1  A    between atoms: C_2  and  O_3 
REMARK    2  A    between atoms: O_3  and  C_4 
REMARK    3  A    between atoms: C_5  and  O_6 
REMARK    4  A    between atoms: O_6  and  C_7 
REMARK    5  A    between atoms: C_7  and  C_8 
REMARK       I    between atoms: C_8  and  N_9 
REMARK    6  A    between atoms: C_13  and  C_14 
REMARK    7  A    between atoms: C_21  and  C_22 
REMARK       I    between atoms: C_22  and  N_23 
REMARK    8  A    between atoms: N_23  and  C_24 
ROOT
HETATM    1  C   UNL     1      25.084  42.751  50.677  1.00  0.00     0.160 C 
HETATM    2  N   UNL     1      23.940  42.821  49.789  1.00  0.00    -0.330 N 
HETATM    3  C   UNL     1      23.052  43.845  49.792  1.00  0.00     0.321 C 
HETATM    4  O   UNL     1      21.951  43.746  49.263  1.00  0.00    -0.247 OA
HETATM    5  N   UNL     1      23.473  44.995  50.386  1.00  0.00    -0.312 N 
HETATM    6  C   UNL     1      24.721  45.194  50.936  1.00  0.00     0.024 C 
HETATM    7  C   UNL     1      25.000  46.602  51.390  1.00  0.00     0.069 C 
HETATM    8  C   UNL     1      25.547  44.133  51.059  1.00  0.00     0.059 C 
HETATM    9  H   UNL     1      23.592  41.972  49.364  1.00  0.00     0.165 HD
HETATM   10  H   UNL     1      22.826  45.771  50.303  1.00  0.00     0.170 HD
ENDROOT
BRANCH   1  11
HETATM   11  C   UNL     1      26.082  41.765  50.089  1.00  0.00    -0.028 A 
HETATM   12  C   UNL     1      26.230  40.512  50.712  1.00  0.00     0.012 A 
HETATM   13  C   UNL     1      27.029  39.511  50.151  1.00  0.00     0.040 A 
HETATM   14  C   UNL     1      27.719  39.745  48.961  1.00  0.00     0.102 A 
HETATM   15  C   UNL     1      27.619  41.005  48.355  1.00  0.00     0.102 A 
HETATM   16  C   UNL     1      26.777  41.991  48.893  1.00  0.00     0.049 A 
BRANCH  14  17
HETATM   17  O   UNL     1      28.410  38.771  48.291  1.00  0.00    -0.339 OA
BRANCH  17  18
HETATM   18  C   UNL     1      28.735  37.597  49.032  1.00  0.00     0.278 C 
BRANCH  18  19
HETATM   19  C   UNL     1      30.024  37.826  49.814  1.00  0.00     0.239 C 
HETATM   20  N   UNL     1      30.992  38.537  49.163  1.00  0.00    -0.368 N 
HETATM   21  H   UNL     1      30.758  39.051  48.321  1.00  0.00     0.159 HD
HETATM   22  H   UNL     1      31.840  38.765  49.663  1.00  0.00     0.159 HD
HETATM   23  O   UNL     1      30.224  37.363  50.933  1.00  0.00    -0.271 OA
ENDBRANCH  18  19
ENDBRANCH  17  18
ENDBRANCH  14  17
BRANCH  15  24
HETATM   24  O   UNL     1      28.239  41.334  47.174  1.00  0.00    -0.349 OA
BRANCH  24  25
HETATM   25  C   UNL     1      27.476  41.053  45.993  1.00  0.00     0.171 C 
HETATM   26  C   UNL     1      28.365  40.692  44.817  1.00  0.00     0.034 C 
ENDBRANCH  24  25
ENDBRANCH  15  24
ENDBRANCH   1  11
BRANCH   8  27
HETATM   27  C   UNL     1      26.913  44.344  51.618  1.00  0.00     0.256 C 
HETATM   28  N   UNL     1      27.022  43.986  52.942  1.00  0.00    -0.323 N 
HETATM   29  H   UNL     1      26.149  43.784  53.409  1.00  0.00     0.169 HD
HETATM   30  O   UNL     1      27.764  44.858  50.906  1.00  0.00    -0.267 OA
BRANCH  28  31
HETATM   31  C   UNL     1      28.143  44.024  53.812  1.00  0.00     0.041 A 
HETATM   32  C   UNL     1      29.232  43.134  53.862  1.00  0.00    -0.035 A 
HETATM   33  C   UNL     1      29.396  41.899  53.026  1.00  0.00     0.050 C 
HETATM   34  C   UNL     1      30.279  43.388  54.780  1.00  0.00     0.009 A 
HETATM   35  C   UNL     1      30.234  44.462  55.665  1.00  0.00     0.001 A 
HETATM   36  C   UNL     1      29.138  45.308  55.653  1.00  0.00     0.002 A 
HETATM   37  C   UNL     1      28.106  45.088  54.739  1.00  0.00     0.030 A 
ENDBRANCH  28  31
ENDBRANCH   8  27
TORSDOF 8
ENDMDL
MODEL 2
REMARK VINA RESULT:      -9.1      2.996      7.059
REMARK  8 active torsions:
REMARK  status: ('A' for Active; 'I' for Inactive)
REMARK    1  A    between atoms: C_2  and  O_3 
REMARK    2  A    between atoms: O_3  and  C_4 
REMARK    3  A    between atoms: C_5  and  O_6 
REMARK    4  A    between atoms: O_6  and  C_7 
REMARK    5  A    between atoms: C_7  and  C_8 
REMARK       I    between atoms: C_8  and  N_9 
REMARK    6  A    between atoms: C_13  and  C_14 
REMARK    7  A    between atoms: C_21  and  C_22 
REMARK       I    between atoms: C_22  and  N_23 
REMARK    8  A    between atoms: N_23  and  C_24 
ROOT
HETATM    1  C   UNL     1      26.982  43.672  49.856  1.00  0.00     0.160 C 
HETATM    2  N   UNL     1      26.812  42.709  48.785  1.00  0.00    -0.330 N 
HETATM    3  C   UNL     1      27.251  41.428  48.854  1.00  0.00     0.321 C 
HETATM    4  O   UNL     1      27.370  40.732  47.853  1.00  0.00    -0.247 OA
HETATM    5  N   UNL     1      27.515  40.957  50.104  1.00  0.00    -0.312 N 
HETATM    6  C   UNL     1      27.336  41.663  51.273  1.00  0.00     0.024 C 
HETATM    7  C   UNL     1      27.548  40.871  52.535  1.00  0.00     0.069 C 
HETATM    8  C   UNL     1      27.039  42.978  51.192  1.00  0.00     0.059 C 
HETATM    9  H   UNL     1      26.648  43.041  47.845  1.00  0.00     0.165 HD
HETATM   10  H   UNL     1      27.761  39.974  50.137  1.00  0.00     0.170 HD
ENDROOT
BRANCH   1  11
HETATM   11  C   UNL     1      25.986  44.801  49.642  1.00  0.00    -0.028 A 
HETATM   12  C   UNL     1      24.649  44.469  49.358  1.00  0.00     0.012 A 
HETATM   13  C   UNL     1      23.656  45.451  49.281  1.00  0.00     0.040 A 
HETATM   14  C   UNL     1      23.980  46.796  49.464  1.00  0.00     0.102 A 
HETATM   15  C   UNL     1      25.317  47.146  49.700  1.00  0.00     0.102 A 
HETATM   16  C   UNL     1      26.303  46.154  49.828  1.00  0.00     0.049 A 
BRANCH  14  17
HETATM   17  O   UNL     1      23.041  47.791  49.532  1.00  0.00    -0.339 OA
BRANCH  17  18
HETATM   18  C   UNL     1      22.626  48.359  48.293  1.00  0.00     0.278 C 
BRANCH  18  19
HETATM   19  C   UNL     1      23.181  49.774  48.166  1.00  0.00     0.239 C 
HETATM   20  N   UNL     1      23.297  50.469  49.336  1.00  0.00    -0.368 N 
HETATM   21  H   UNL     1      23.228  49.980  50.222  1.00  0.00     0.159 HD
HETATM   22  H   UNL     1      23.716  51.389  49.310  1.00  0.00     0.159 HD
HETATM   23  O   UNL     1      23.458  50.294  47.090  1.00  0.00    -0.271 OA
ENDBRANCH  18  19
ENDBRANCH  17  18
ENDBRANCH  14  17
BRANCH  15  24
HETATM   24  O   UNL     1      25.741  48.435  49.915  1.00  0.00    -0.349 OA
BRANCH  24  25
HETATM   25  C   UNL     1      26.977  48.778  49.273  1.00  0.00     0.171 C 
HETATM   26  C   UNL     1      26.844  50.028  48.423  1.00  0.00     0.034 C 
ENDBRANCH  24  25
ENDBRANCH  15  24
ENDBRANCH   1  11
BRANCH   8  27
HETATM   27  C   UNL     1      26.806  43.743  52.451  1.00  0.00     0.256 C 
HETATM   28  N   UNL     1      27.946  44.328  52.953  1.00  0.00    -0.323 N 
HETATM   29  H   UNL     1      28.809  44.041  52.512  1.00  0.00     0.169 HD
HETATM   30  O   UNL     1      25.688  43.730  52.946  1.00  0.00    -0.267 OA
BRANCH  28  31
HETATM   31  C   UNL     1      28.130  45.135  54.105  1.00  0.00     0.041 A 
HETATM   32  C   UNL     1      27.485  46.343  54.430  1.00  0.00    -0.035 A 
HETATM   33  C   UNL     1      26.495  47.069  53.567  1.00  0.00     0.050 C 
HETATM   34  C   UNL     1      27.781  46.963  55.666  1.00  0.00     0.009 A 
HETATM   35  C   UNL     1      28.728  46.439  56.543  1.00  0.00     0.001 A 
HETATM   36  C   UNL     1      29.402  45.279  56.201  1.00  0.00     0.002 A 
HETATM   37  C   UNL     1      29.106  44.638  54.996  1.00  0.00     0.030 A 
ENDBRANCH  28  31
ENDBRANCH   8  27
TORSDOF 8
ENDMDL
MODEL 3
REMARK VINA RESULT:      -9.0      0.331      1.274
REMARK  8 active torsions:
REMARK  status: ('A' for Active; 'I' for Inactive)
REMARK    1  A    between atoms: C_2  and  O_3 
REMARK    2  A    between atoms: O_3  and  C_4 
REMARK    3  A    between atoms: C_5  and  O_6 
REMARK    4  A    between atoms: O_6  and  C_7 
REMARK    5  A    between atoms: C_7  and  C_8 
REMARK       I    between atoms: C_8  and  N_9 
REMARK    6  A    between atoms: C_13  and  C_14 
REMARK    7  A    between atoms: C_21  and  C_22 
REMARK       I    between atoms: C_22  and  N_23 
REMARK    8  A    between atoms: N_23  and  C_24 
ROOT
HETATM    1  C   UNL     1      25.103  42.744  50.702  1.00  0.00     0.160 C 
HETATM    2  N   UNL     1      23.961  42.816  49.811  1.00  0.00    -0.330 N 
HETATM    3  C   UNL     1      23.073  43.841  49.814  1.00  0.00     0.321 C 
HETATM    4  O   UNL     1      21.974  43.743  49.282  1.00  0.00    -0.247 OA
HETATM    5  N   UNL     1      23.493  44.989  50.412  1.00  0.00    -0.312 N 
HETATM    6  C   UNL     1      24.739  45.187  50.966  1.00  0.00     0.024 C 
HETATM    7  C   UNL     1      25.017  46.593  51.424  1.00  0.00     0.069 C 
HETATM    8  C   UNL     1      25.564  44.125  51.089  1.00  0.00     0.059 C 
HETATM    9  H   UNL     1      23.614  41.969  49.384  1.00  0.00     0.165 HD
HETATM   10  H   UNL     1      22.846  45.766  50.329  1.00  0.00     0.170 HD
ENDROOT
BRANCH   1  11
HETATM   11  C   UNL     1      26.101  41.759  50.115  1.00  0.00    -0.028 A 
HETATM   12  C   UNL     1      26.248  40.505  50.736  1.00  0.00     0.012 A 
HETATM   13  C   UNL     1      27.048  39.505  50.175  1.00  0.00     0.040 A 
HETATM   14  C   UNL     1      27.742  39.742  48.987  1.00  0.00     0.102 A 
HETATM   15  C   UNL     1      27.644  41.003  48.383  1.00  0.00     0.102 A 
HETATM   16  C   UNL     1      26.800  41.988  48.922  1.00  0.00     0.049 A 
BRANCH  14  17
HETATM   17  O   UNL     1      28.435  38.769  48.317  1.00  0.00    -0.339 OA
BRANCH  17  18
HETATM   18  C   UNL     1      28.769  37.599  49.060  1.00  0.00     0.278 C 
BRANCH  18  19
HETATM   19  C   UNL     1      30.050  37.844  49.851  1.00  0.00     0.239 C 
HETATM   20  N   UNL     1      31.028  38.534  49.192  1.00  0.00    -0.368 N 
HETATM   21  H   UNL     1      30.805  39.027  48.334  1.00  0.00     0.159 HD
HETATM   22  H   UNL     1      31.871  38.772  49.696  1.00  0.00     0.159 HD
HETATM   23  O   UNL     1      30.235  37.410  50.984  1.00  0.00    -0.271 OA
ENDBRANCH  18  19
ENDBRANCH  17  18
ENDBRANCH  14  17
BRANCH  15  24
HETATM   24  O   UNL     1      28.266  41.335  47.205  1.00  0.00    -0.349 OA
BRANCH  24  25
HETATM   25  C   UNL     1      27.492  41.090  46.023  1.00  0.00     0.171 C 
HETATM   26  C   UNL     1      28.355  40.610  44.870  1.00  0.00     0.034 C 
ENDBRANCH  24  25
ENDBRANCH  15  24
ENDBRANCH   1  11
BRANCH   8  27
HETATM   27  C   UNL     1      26.929  44.335  51.652  1.00  0.00     0.256 C 
HETATM   28  N   UNL     1      26.989  44.158  53.016  1.00  0.00    -0.323 N 
HETATM   29  H   UNL     1      26.097  44.071  53.481  1.00  0.00     0.169 HD
HETATM   30  O   UNL     1      27.823  44.697  50.901  1.00  0.00    -0.267 OA
BRANCH  28  31
HETATM   31  C   UNL     1      28.092  44.253  53.904  1.00  0.00     0.041 A 
HETATM   32  C   UNL     1      28.424  45.315  54.765  1.00  0.00    -0.035 A 
HETATM   33  C   UNL     1      27.691  46.621  54.870  1.00  0.00     0.050 C 
HETATM   34  C   UNL     1      29.548  45.181  55.613  1.00  0.00     0.009 A 
HETATM   35  C   UNL     1      30.362  44.051  55.580  1.00  0.00     0.001 A 
HETATM   36  C   UNL     1      30.067  43.027  54.695  1.00  0.00     0.002 A 
HETATM   37  C   UNL     1      28.948  43.130  53.868  1.00  0.00     0.030 A 
ENDBRANCH  28  31
ENDBRANCH   8  27
TORSDOF 8
ENDMDL
MODEL 4
REMARK VINA RESULT:      -8.8      1.973      2.386
REMARK  8 active torsions:
REMARK  status: ('A' for Active; 'I' for Inactive)
REMARK    1  A    between atoms: C_2  and  O_3 
REMARK    2  A    between atoms: O_3  and  C_4 
REMARK    3  A    between atoms: C_5  and  O_6 
REMARK    4  A    between atoms: O_6  and  C_7 
REMARK    5  A    between atoms: C_7  and  C_8 
REMARK       I    between atoms: C_8  and  N_9 
REMARK    6  A    between atoms: C_13  and  C_14 
REMARK    7  A    between atoms: C_21  and  C_22 
REMARK       I    between atoms: C_22  and  N_23 
REMARK    8  A    between atoms: N_23  and  C_24 
ROOT
HETATM    1  C   UNL     1      25.623  44.409  51.856  1.00  0.00     0.160 C 
HETATM    2  N   UNL     1      25.304  45.198  50.682  1.00  0.00    -0.330 N 
HETATM    3  C   UNL     1      24.869  46.480  50.739  1.00  0.00     0.321 C 
HETATM    4  O   UNL     1      24.326  47.020  49.782  1.00  0.00    -0.247 OA
HETATM    5  N   UNL     1      25.105  47.137  51.907  1.00  0.00    -0.312 N 
HETATM    6  C   UNL     1      25.771  46.612  52.993  1.00  0.00     0.024 C 
HETATM    7  C   UNL     1      26.045  47.588  54.106  1.00  0.00     0.069 C 
HETATM    8  C   UNL     1      26.073  45.296  52.988  1.00  0.00     0.059 C 
HETATM    9  H   UNL     1      25.093  44.726  49.813  1.00  0.00     0.165 HD
HETATM   10  H   UNL     1      24.846  48.118  51.897  1.00  0.00     0.170 HD
ENDROOT
BRANCH   1  11
HETATM   11  C   UNL     1      26.503  43.247  51.423  1.00  0.00    -0.028 A 
HETATM   12  C   UNL     1      26.914  42.319  52.397  1.00  0.00     0.012 A 
HETATM   13  C   UNL     1      27.611  41.158  52.048  1.00  0.00     0.040 A 
HETATM   14  C   UNL     1      27.935  40.905  50.714  1.00  0.00     0.102 A 
HETATM   15  C   UNL     1      27.573  41.845  49.738  1.00  0.00     0.102 A 
HETATM   16  C   UNL     1      26.830  42.984  50.085  1.00  0.00     0.049 A 
BRANCH  14  17
HETATM   17  O   UNL     1      28.497  39.731  50.288  1.00  0.00    -0.339 OA
BRANCH  17  18
HETATM   18  C   UNL     1      29.248  38.999  51.253  1.00  0.00     0.278 C 
BRANCH  18  19
HETATM   19  C   UNL     1      29.766  37.708  50.628  1.00  0.00     0.239 C 
HETATM   20  N   UNL     1      29.218  36.555  51.113  1.00  0.00    -0.368 N 
HETATM   21  H   UNL     1      28.377  36.596  51.678  1.00  0.00     0.159 HD
HETATM   22  H   UNL     1      29.486  35.678  50.687  1.00  0.00     0.159 HD
HETATM   23  O   UNL     1      30.656  37.679  49.783  1.00  0.00    -0.271 OA
ENDBRANCH  18  19
ENDBRANCH  17  18
ENDBRANCH  14  17
BRANCH  15  24
HETATM   24  O   UNL     1      27.824  41.685  48.397  1.00  0.00    -0.349 OA
BRANCH  24  25
HETATM   25  C   UNL     1      26.752  41.095  47.649  1.00  0.00     0.171 C 
HETATM   26  C   UNL     1      27.198  40.671  46.261  1.00  0.00     0.034 C 
ENDBRANCH  24  25
ENDBRANCH  15  24
ENDBRANCH   1  11
BRANCH   8  27
HETATM   27  C   UNL     1      26.827  44.725  54.141  1.00  0.00     0.256 C 
HETATM   28  N   UNL     1      28.159  45.071  54.147  1.00  0.00    -0.323 N 
HETATM   29  H   UNL     1      28.493  45.521  53.307  1.00  0.00     0.169 HD
HETATM   30  O   UNL     1      26.242  43.976  54.910  1.00  0.00    -0.267 OA
BRANCH  28  31
HETATM   31  C   UNL     1      29.186  44.743  55.070  1.00  0.00     0.041 A 
HETATM   32  C   UNL     1      30.129  43.702  54.984  1.00  0.00    -0.035 A 
HETATM   33  C   UNL     1      30.194  42.664  53.902  1.00  0.00     0.050 C 
HETATM   34  C   UNL     1      31.109  43.584  55.997  1.00  0.00     0.009 A 
HETATM   35  C   UNL     1      31.133  44.436  57.098  1.00  0.00     0.001 A 
HETATM   36  C   UNL     1      30.174  45.429  57.211  1.00  0.00     0.002 A 
HETATM   37  C   UNL     1      29.213  45.576  56.209  1.00  0.00     0.030 A 
ENDBRANCH  28  31
ENDBRANCH   8  27
TORSDOF 8
ENDMDL
MODEL 5
REMARK VINA RESULT:      -8.6      2.718      7.365
REMARK  8 active torsions:
REMARK  status: ('A' for Active; 'I' for Inactive)
REMARK    1  A    between atoms: C_2  and  O_3 
REMARK    2  A    between atoms: O_3  and  C_4 
REMARK    3  A    between atoms: C_5  and  O_6 
REMARK    4  A    between atoms: O_6  and  C_7 
REMARK    5  A    between atoms: C_7  and  C_8 
REMARK       I    between atoms: C_8  and  N_9 
REMARK    6  A    between atoms: C_13  and  C_14 
REMARK    7  A    between atoms: C_21  and  C_22 
REMARK       I    between atoms: C_22  and  N_23 
REMARK    8  A    between atoms: N_23  and  C_24 
ROOT
HETATM    1  C   UNL     1      27.632  40.935  51.838  1.00  0.00     0.160 C 
HETATM    2  N   UNL     1      28.773  40.121  51.468  1.00  0.00    -0.330 N 
HETATM    3  C   UNL     1      28.811  39.349  50.354  1.00  0.00     0.321 C 
HETATM    4  O   UNL     1      29.638  38.455  50.217  1.00  0.00    -0.247 OA
HETATM    5  N   UNL     1      27.901  39.653  49.389  1.00  0.00    -0.312 N 
HETATM    6  C   UNL     1      26.992  40.687  49.452  1.00  0.00     0.024 C 
HETATM    7  C   UNL     1      26.201  40.916  48.193  1.00  0.00     0.069 C 
HETATM    8  C   UNL     1      26.860  41.359  50.616  1.00  0.00     0.059 C 
HETATM    9  H   UNL     1      29.443  39.857  52.178  1.00  0.00     0.165 HD
HETATM   10  H   UNL     1      28.003  39.118  48.534  1.00  0.00     0.170 HD
ENDROOT
BRANCH   1  11
HETATM   11  C   UNL     1      28.103  41.990  52.827  1.00  0.00    -0.028 A 
HETATM   12  C   UNL     1      29.477  42.286  52.887  1.00  0.00     0.012 A 
HETATM   13  C   UNL     1      29.961  43.334  53.676  1.00  0.00     0.040 A 
HETATM   14  C   UNL     1      29.085  44.101  54.445  1.00  0.00     0.102 A 
HETATM   15  C   UNL     1      27.718  43.787  54.432  1.00  0.00     0.102 A 
HETATM   16  C   UNL     1      27.228  42.767  53.600  1.00  0.00     0.049 A 
BRANCH  14  17
HETATM   17  O   UNL     1      29.473  45.219  55.134  1.00  0.00    -0.339 OA
BRANCH  17  18
HETATM   18  C   UNL     1      30.425  45.025  56.176  1.00  0.00     0.278 C 
BRANCH  18  19
HETATM   19  C   UNL     1      29.940  45.715  57.447  1.00  0.00     0.239 C 
HETATM   20  N   UNL     1      30.827  45.729  58.486  1.00  0.00    -0.368 N 
HETATM   21  H   UNL     1      31.801  45.495  58.321  1.00  0.00     0.159 HD
HETATM   22  H   UNL     1      30.575  46.227  59.328  1.00  0.00     0.159 HD
HETATM   23  O   UNL     1      28.813  46.184  57.571  1.00  0.00    -0.271 OA
ENDBRANCH  18  19
ENDBRANCH  17  18
ENDBRANCH  14  17
BRANCH  15  24
HETATM   24  O   UNL     1      26.768  44.488  55.133  1.00  0.00    -0.349 OA
BRANCH  24  25
HETATM   25  C   UNL     1      25.934  45.338  54.334  1.00  0.00     0.171 C 
HETATM   26  C   UNL     1      26.318  46.800  54.473  1.00  0.00     0.034 C 
ENDBRANCH  24  25
ENDBRANCH  15  24
ENDBRANCH   1  11
BRANCH   8  27
HETATM   27  C   UNL     1      25.908  42.504  50.683  1.00  0.00     0.256 C 
HETATM   28  N   UNL     1      26.430  43.678  50.191  1.00  0.00    -0.323 N 
HETATM   29  H   UNL     1      27.422  43.663  50.001  1.00  0.00     0.169 HD
HETATM   30  O   UNL     1      24.817  42.328  51.208  1.00  0.00    -0.267 OA
BRANCH  28  31
HETATM   31  C   UNL     1      25.841  44.963  50.071  1.00  0.00     0.041 A 
HETATM   32  C   UNL     1      24.697  45.328  49.338  1.00  0.00    -0.035 A 
HETATM   33  C   UNL     1      23.889  44.418  48.460  1.00  0.00     0.050 C 
HETATM   34  C   UNL     1      24.247  46.668  49.399  1.00  0.00     0.009 A 
HETATM   35  C   UNL     1      24.932  47.641  50.121  1.00  0.00     0.001 A 
HETATM   36  C   UNL     1      26.088  47.295  50.801  1.00  0.00     0.002 A 
HETATM   37  C   UNL     1      26.535  45.973  50.773  1.00  0.00     0.030 A 
ENDBRANCH  28  31
ENDBRANCH   8  27
TORSDOF 8
ENDMDL
MODEL 6
REMARK VINA RESULT:      -8.1      2.602      8.184
REMARK  8 active torsions:
REMARK  status: ('A' for Active; 'I' for Inactive)
REMARK    1  A    between atoms: C_2  and  O_3 
REMARK    2  A    between atoms: O_3  and  C_4 
REMARK    3  A    between atoms: C_5  and  O_6 
REMARK    4  A    between atoms: O_6  and  C_7 
REMARK    5  A    between atoms: C_7  and  C_8 
REMARK       I    between atoms: C_8  and  N_9 
REMARK    6  A    between atoms: C_13  and  C_14 
REMARK    7  A    between atoms: C_21  and  C_22 
REMARK       I    between atoms: C_22  and  N_23 
REMARK    8  A    between atoms: N_23  and  C_24 
ROOT
HETATM    1  C   UNL     1      27.316  41.802  51.689  1.00  0.00     0.160 C 
HETATM    2  N   UNL     1      28.359  40.867  52.065  1.00  0.00    -0.330 N 
HETATM    3  C   UNL     1      28.808  39.882  51.250  1.00  0.00     0.321 C 
HETATM    4  O   UNL     1      29.456  38.934  51.680  1.00  0.00    -0.247 OA
HETATM    5  N   UNL     1      28.527  40.029  49.926  1.00  0.00    -0.312 N 
HETATM    6  C   UNL     1      27.865  41.102  49.370  1.00  0.00     0.024 C 
HETATM    7  C   UNL     1      27.816  41.110  47.866  1.00  0.00     0.069 C 
HETATM    8  C   UNL     1      27.296  42.006  50.196  1.00  0.00     0.059 C 
HETATM    9  H   UNL     1      28.560  40.719  53.044  1.00  0.00     0.165 HD
HETATM   10  H   UNL     1      28.944  39.325  49.328  1.00  0.00     0.170 HD
ENDROOT
BRANCH   1  11
HETATM   11  C   UNL     1      27.409  43.011  52.607  1.00  0.00    -0.028 A 
HETATM   12  C   UNL     1      26.269  43.820  52.765  1.00  0.00     0.012 A 
HETATM   13  C   UNL     1      26.242  44.867  53.692  1.00  0.00     0.040 A 
HETATM   14  C   UNL     1      27.366  45.146  54.471  1.00  0.00     0.102 A 
HETATM   15  C   UNL     1      28.526  44.379  54.290  1.00  0.00     0.102 A 
HETATM   16  C   UNL     1      28.532  43.296  53.395  1.00  0.00     0.049 A 
BRANCH  14  17
HETATM   17  O   UNL     1      27.366  46.067  55.485  1.00  0.00    -0.339 OA
BRANCH  17  18
HETATM   18  C   UNL     1      27.641  47.416  55.119  1.00  0.00     0.278 C 
BRANCH  18  19
HETATM   19  C   UNL     1      26.348  48.225  55.132  1.00  0.00     0.239 C 
HETATM   20  N   UNL     1      26.157  49.016  56.229  1.00  0.00    -0.368 N 
HETATM   21  H   UNL     1      26.933  49.204  56.855  1.00  0.00     0.159 HD
HETATM   22  H   UNL     1      25.345  49.616  56.255  1.00  0.00     0.159 HD
HETATM   23  O   UNL     1      25.493  48.143  54.255  1.00  0.00    -0.271 OA
ENDBRANCH  18  19
ENDBRANCH  17  18
ENDBRANCH  14  17
BRANCH  15  24
HETATM   24  O   UNL     1      29.678  44.555  55.017  1.00  0.00    -0.349 OA
BRANCH  24  25
HETATM   25  C   UNL     1      30.491  43.381  55.152  1.00  0.00     0.171 C 
HETATM   26  C   UNL     1      31.260  43.374  56.460  1.00  0.00     0.034 C 
ENDBRANCH  24  25
ENDBRANCH  15  24
ENDBRANCH   1  11
BRANCH   8  27
HETATM   27  C   UNL     1      26.610  43.191  49.605  1.00  0.00     0.256 C 
HETATM   28  N   UNL     1      25.277  42.974  49.340  1.00  0.00    -0.323 N 
HETATM   29  H   UNL     1      24.971  42.015  49.421  1.00  0.00     0.169 HD
HETATM   30  O   UNL     1      27.274  44.187  49.354  1.00  0.00    -0.267 OA
BRANCH  28  31
HETATM   31  C   UNL     1      24.297  43.846  48.798  1.00  0.00     0.041 A 
HETATM   32  C   UNL     1      23.879  45.095  49.293  1.00  0.00    -0.035 A 
HETATM   33  C   UNL     1      24.354  45.740  50.563  1.00  0.00     0.050 C 
HETATM   34  C   UNL     1      22.917  45.831  48.562  1.00  0.00     0.009 A 
HETATM   35  C   UNL     1      22.339  45.331  47.399  1.00  0.00     0.001 A 
HETATM   36  C   UNL     1      22.711  44.079  46.939  1.00  0.00     0.002 A 
HETATM   37  C   UNL     1      23.676  43.347  47.633  1.00  0.00     0.030 A 
ENDBRANCH  28  31
ENDBRANCH   8  27
TORSDOF 8
ENDMDL
MODEL 7
REMARK VINA RESULT:      -8.0      2.207      7.649
REMARK  8 active torsions:
REMARK  status: ('A' for Active; 'I' for Inactive)
REMARK    1  A    between atoms: C_2  and  O_3 
REMARK    2  A    between atoms: O_3  and  C_4 
REMARK    3  A    between atoms: C_5  and  O_6 
REMARK    4  A    between atoms: O_6  and  C_7 
REMARK    5  A    between atoms: C_7  and  C_8 
REMARK       I    between atoms: C_8  and  N_9 
REMARK    6  A    between atoms: C_13  and  C_14 
REMARK    7  A    between atoms: C_21  and  C_22 
REMARK       I    between atoms: C_22  and  N_23 
REMARK    8  A    between atoms: N_23  and  C_24 
ROOT
HETATM    1  C   UNL     1      28.064  40.191  51.261  1.00  0.00     0.160 C 
HETATM    2  N   UNL     1      29.213  39.328  51.457  1.00  0.00    -0.330 N 
HETATM    3  C   UNL     1      29.595  38.379  50.568  1.00  0.00     0.321 C 
HETATM    4  O   UNL     1      30.364  37.476  50.879  1.00  0.00    -0.247 OA
HETATM    5  N   UNL     1      29.103  38.513  49.306  1.00  0.00    -0.312 N 
HETATM    6  C   UNL     1      28.293  39.541  48.875  1.00  0.00     0.024 C 
HETATM    7  C   UNL     1      28.011  39.552  47.397  1.00  0.00     0.069 C 
HETATM    8  C   UNL     1      27.799  40.400  49.793  1.00  0.00     0.059 C 
HETATM    9  H   UNL     1      29.572  39.190  52.392  1.00  0.00     0.165 HD
HETATM   10  H   UNL     1      29.468  37.841  48.640  1.00  0.00     0.170 HD
ENDROOT
BRANCH   1  11
HETATM   11  C   UNL     1      28.217  41.399  52.172  1.00  0.00    -0.028 A 
HETATM   12  C   UNL     1      29.436  41.575  52.852  1.00  0.00     0.012 A 
HETATM   13  C   UNL     1      29.692  42.728  53.599  1.00  0.00     0.040 A 
HETATM   14  C   UNL     1      28.724  43.729  53.705  1.00  0.00     0.102 A 
HETATM   15  C   UNL     1      27.486  43.546  53.072  1.00  0.00     0.102 A 
HETATM   16  C   UNL     1      27.251  42.410  52.281  1.00  0.00     0.049 A 
BRANCH  14  17
HETATM   17  O   UNL     1      28.957  44.936  54.308  1.00  0.00    -0.339 OA
BRANCH  17  18
HETATM   18  C   UNL     1      29.586  44.897  55.586  1.00  0.00     0.278 C 
BRANCH  18  19
HETATM   19  C   UNL     1      28.988  45.975  56.485  1.00  0.00     0.239 C 
HETATM   20  N   UNL     1      29.551  46.089  57.725  1.00  0.00    -0.368 N 
HETATM   21  H   UNL     1      30.439  45.639  57.918  1.00  0.00     0.159 HD
HETATM   22  H   UNL     1      29.229  46.829  58.333  1.00  0.00     0.159 HD
HETATM   23  O   UNL     1      28.028  46.666  56.160  1.00  0.00    -0.271 OA
ENDBRANCH  18  19
ENDBRANCH  17  18
ENDBRANCH  14  17
BRANCH  15  24
HETATM   24  O   UNL     1      26.474  44.474  53.094  1.00  0.00    -0.349 OA
BRANCH  24  25
HETATM   25  C   UNL     1      26.399  45.312  51.933  1.00  0.00     0.171 C 
HETATM   26  C   UNL     1      25.294  46.346  52.053  1.00  0.00     0.034 C 
ENDBRANCH  24  25
ENDBRANCH  15  24
ENDBRANCH   1  11
BRANCH   8  27
HETATM   27  C   UNL     1      26.953  41.538  49.332  1.00  0.00     0.256 C 
HETATM   28  N   UNL     1      25.603  41.302  49.462  1.00  0.00    -0.323 N 
HETATM   29  H   UNL     1      25.351  40.351  49.693  1.00  0.00     0.169 HD
HETATM   30  O   UNL     1      27.501  42.513  48.837  1.00  0.00    -0.267 OA
BRANCH  28  31
HETATM   31  C   UNL     1      24.494  42.131  49.152  1.00  0.00     0.041 A 
HETATM   32  C   UNL     1      23.816  42.251  47.925  1.00  0.00    -0.035 A 
HETATM   33  C   UNL     1      24.184  41.554  46.648  1.00  0.00     0.050 C 
HETATM   34  C   UNL     1      22.692  43.105  47.847  1.00  0.00     0.009 A 
HETATM   35  C   UNL     1      22.271  43.866  48.935  1.00  0.00     0.001 A 
HETATM   36  C   UNL     1      22.969  43.790  50.128  1.00  0.00     0.002 A 
HETATM   37  C   UNL     1      24.067  42.934  50.232  1.00  0.00     0.030 A 
ENDBRANCH  28  31
ENDBRANCH   8  27
TORSDOF 8
ENDMDL
MODEL 8
REMARK VINA RESULT:      -8.0      3.119      6.870
REMARK  8 active torsions:
REMARK  status: ('A' for Active; 'I' for Inactive)
REMARK    1  A    between atoms: C_2  and  O_3 
REMARK    2  A    between atoms: O_3  and  C_4 
REMARK    3  A    between atoms: C_5  and  O_6 
REMARK    4  A    between atoms: O_6  and  C_7 
REMARK    5  A    between atoms: C_7  and  C_8 
REMARK       I    between atoms: C_8  and  N_9 
REMARK    6  A    between atoms: C_13  and  C_14 
REMARK    7  A    between atoms: C_21  and  C_22 
REMARK       I    between atoms: C_22  and  N_23 
REMARK    8  A    between atoms: N_23  and  C_24 
ROOT
HETATM    1  C   UNL     1      25.295  46.382  50.419  1.00  0.00     0.160 C 
HETATM    2  N   UNL     1      24.656  47.682  50.496  1.00  0.00    -0.330 N 
HETATM    3  C   UNL     1      23.628  48.058  49.696  1.00  0.00     0.321 C 
HETATM    4  O   UNL     1      23.309  49.234  49.568  1.00  0.00    -0.247 OA
HETATM    5  N   UNL     1      22.956  47.049  49.078  1.00  0.00    -0.312 N 
HETATM    6  C   UNL     1      23.220  45.706  49.235  1.00  0.00     0.024 C 
HETATM    7  C   UNL     1      22.236  44.781  48.569  1.00  0.00     0.069 C 
HETATM    8  C   UNL     1      24.329  45.342  49.914  1.00  0.00     0.059 C 
HETATM    9  H   UNL     1      25.153  48.451  50.922  1.00  0.00     0.165 HD
HETATM   10  H   UNL     1      22.141  47.348  48.553  1.00  0.00     0.170 HD
ENDROOT
BRANCH   1  11
HETATM   11  C   UNL     1      26.038  46.140  51.724  1.00  0.00    -0.028 A 
HETATM   12  C   UNL     1      25.755  46.976  52.820  1.00  0.00     0.012 A 
HETATM   13  C   UNL     1      26.302  46.729  54.083  1.00  0.00     0.040 A 
HETATM   14  C   UNL     1      27.165  45.650  54.278  1.00  0.00     0.102 A 
HETATM   15  C   UNL     1      27.494  44.837  53.184  1.00  0.00     0.102 A 
HETATM   16  C   UNL     1      26.904  45.057  51.929  1.00  0.00     0.049 A 
BRANCH  14  17
HETATM   17  O   UNL     1      27.629  45.274  55.511  1.00  0.00    -0.339 OA
BRANCH  17  18
HETATM   18  C   UNL     1      28.449  46.217  56.196  1.00  0.00     0.278 C 
BRANCH  18  19
HETATM   19  C   UNL     1      29.782  45.570  56.557  1.00  0.00     0.239 C 
HETATM   20  N   UNL     1      30.278  45.888  57.790  1.00  0.00    -0.368 N 
HETATM   21  H   UNL     1      29.677  46.337  58.474  1.00  0.00     0.159 HD
HETATM   22  H   UNL     1      31.128  45.436  58.098  1.00  0.00     0.159 HD
HETATM   23  O   UNL     1      30.414  44.853  55.787  1.00  0.00    -0.271 OA
ENDBRANCH  18  19
ENDBRANCH  17  18
ENDBRANCH  14  17
BRANCH  15  24
HETATM   24  O   UNL     1      28.315  43.739  53.269  1.00  0.00    -0.349 OA
BRANCH  24  25
HETATM   25  C   UNL     1      27.633  42.479  53.323  1.00  0.00     0.171 C 
HETATM   26  C   UNL     1      28.600  41.310  53.263  1.00  0.00     0.034 C 
ENDBRANCH  24  25
ENDBRANCH  15  24
ENDBRANCH   1  11
BRANCH   8  27
HETATM   27  C   UNL     1      24.603  43.891  50.122  1.00  0.00     0.256 C 
HETATM   28  N   UNL     1      25.463  43.360  49.189  1.00  0.00    -0.323 N 
HETATM   29  H   UNL     1      25.670  43.957  48.401  1.00  0.00     0.169 HD
HETATM   30  O   UNL     1      24.016  43.307  51.021  1.00  0.00    -0.267 OA
BRANCH  28  31
HETATM   31  C   UNL     1      25.971  42.041  49.058  1.00  0.00     0.041 A 
HETATM   32  C   UNL     1      25.344  40.924  48.475  1.00  0.00    -0.035 A 
HETATM   33  C   UNL     1      23.951  40.890  47.920  1.00  0.00     0.050 C 
HETATM   34  C   UNL     1      26.057  39.704  48.400  1.00  0.00     0.009 A 
HETATM   35  C   UNL     1      27.336  39.567  48.932  1.00  0.00     0.001 A 
HETATM   36  C   UNL     1      27.934  40.651  49.553  1.00  0.00     0.002 A 
HETATM   37  C   UNL     1      27.257  41.870  49.615  1.00  0.00     0.030 A 
ENDBRANCH  28  31
ENDBRANCH   8  27
TORSDOF 8
ENDMDL
MODEL 9
REMARK VINA RESULT:      -7.7      2.147      3.286
REMARK  8 active torsions:
REMARK  status: ('A' for Active; 'I' for Inactive)
REMARK    1  A    between atoms: C_2  and  O_3 
REMARK    2  A    between atoms: O_3  and  C_4 
REMARK    3  A    between atoms: C_5  and  O_6 
REMARK    4  A    between atoms: O_6  and  C_7 
REMARK    5  A    between atoms: C_7  and  C_8 
REMARK       I    between atoms: C_8  and  N_9 
REMARK    6  A    between atoms: C_13  and  C_14 
REMARK    7  A    between atoms: C_21  and  C_22 
REMARK       I    between atoms: C_22  and  N_23 
REMARK    8  A    between atoms: N_23  and  C_24 
ROOT
HETATM    1  C   UNL     1      24.210  44.856  50.066  1.00  0.00     0.160 C 
HETATM    2  N   UNL     1      23.224  45.546  49.258  1.00  0.00    -0.330 N 
HETATM    3  C   UNL     1      23.116  46.896  49.202  1.00  0.00     0.321 C 
HETATM    4  O   UNL     1      22.110  47.445  48.767  1.00  0.00    -0.247 OA
HETATM    5  N   UNL     1      24.203  47.598  49.624  1.00  0.00    -0.312 N 
HETATM    6  C   UNL     1      25.387  47.043  50.058  1.00  0.00     0.024 C 
HETATM    7  C   UNL     1      26.494  48.028  50.321  1.00  0.00     0.069 C 
HETATM    8  C   UNL     1      25.440  45.707  50.248  1.00  0.00     0.059 C 
HETATM    9  H   UNL     1      22.393  45.051  48.963  1.00  0.00     0.165 HD
HETATM   10  H   UNL     1      24.131  48.601  49.495  1.00  0.00     0.170 HD
ENDROOT
BRANCH   1  11
HETATM   11  C   UNL     1      24.354  43.440  49.532  1.00  0.00    -0.028 A 
HETATM   12  C   UNL     1      23.923  43.172  48.219  1.00  0.00     0.012 A 
HETATM   13  C   UNL     1      24.146  41.929  47.620  1.00  0.00     0.040 A 
HETATM   14  C   UNL     1      24.787  40.910  48.327  1.00  0.00     0.102 A 
HETATM   15  C   UNL     1      25.179  41.147  49.652  1.00  0.00     0.102 A 
HETATM   16  C   UNL     1      25.000  42.412  50.234  1.00  0.00     0.049 A 
BRANCH  14  17
HETATM   17  O   UNL     1      25.153  39.719  47.759  1.00  0.00    -0.339 OA
BRANCH  17  18
HETATM   18  C   UNL     1      26.534  39.561  47.446  1.00  0.00     0.278 C 
BRANCH  18  19
HETATM   19  C   UNL     1      26.985  38.150  47.810  1.00  0.00     0.239 C 
HETATM   20  N   UNL     1      26.366  37.595  48.894  1.00  0.00    -0.368 N 
HETATM   21  H   UNL     1      25.522  38.019  49.265  1.00  0.00     0.159 HD
HETATM   22  H   UNL     1      26.588  36.639  49.137  1.00  0.00     0.159 HD
HETATM   23  O   UNL     1      27.880  37.555  47.219  1.00  0.00    -0.271 OA
ENDBRANCH  18  19
ENDBRANCH  17  18
ENDBRANCH  14  17
BRANCH  15  24
HETATM   24  O   UNL     1      25.834  40.224  50.430  1.00  0.00    -0.349 OA
BRANCH  24  25
HETATM   25  C   UNL     1      26.962  40.735  51.152  1.00  0.00     0.171 C 
HETATM   26  C   UNL     1      28.272  40.178  50.624  1.00  0.00     0.034 C 
ENDBRANCH  24  25
ENDBRANCH  15  24
ENDBRANCH   1  11
BRANCH   8  27
HETATM   27  C   UNL     1      26.727  45.091  50.681  1.00  0.00     0.256 C 
HETATM   28  N   UNL     1      26.846  44.979  52.048  1.00  0.00    -0.323 N 
HETATM   29  H   UNL     1      26.140  45.463  52.584  1.00  0.00     0.169 HD
HETATM   30  O   UNL     1      27.559  44.813  49.829  1.00  0.00    -0.267 OA
BRANCH  28  31
HETATM   31  C   UNL     1      27.898  44.443  52.835  1.00  0.00     0.041 A 
HETATM   32  C   UNL     1      28.224  44.746  54.170  1.00  0.00    -0.035 A 
HETATM   33  C   UNL     1      27.544  45.773  55.028  1.00  0.00     0.050 C 
HETATM   34  C   UNL     1      29.289  44.050  54.787  1.00  0.00     0.009 A 
HETATM   35  C   UNL     1      30.053  43.114  54.095  1.00  0.00     0.001 A 
HETATM   36  C   UNL     1      29.767  42.853  52.765  1.00  0.00     0.002 A 
HETATM   37  C   UNL     1      28.704  43.512  52.145  1.00  0.00     0.030 A 
ENDBRANCH  28  31
ENDBRANCH   8  27
TORSDOF 8
ENDMDL
MODEL 10
REMARK VINA RESULT:      -7.6      2.041      2.800
REMARK  8 active torsions:
REMARK  status: ('A' for Active; 'I' for Inactive)
REMARK    1  A    between atoms: C_2  and  O_3 
REMARK    2  A    between atoms: O_3  and  C_4 
REMARK    3  A    between atoms: C_5  and  O_6 
REMARK    4  A    between atoms: O_6  and  C_7 
REMARK    5  A    between atoms: C_7  and  C_8 
REMARK       I    between atoms: C_8  and  N_9 
REMARK    6  A    between atoms: C_13  and  C_14 
REMARK    7  A    between atoms: C_21  and  C_22 
REMARK       I    between atoms: C_22  and  N_23 
REMARK    8  A    between atoms: N_23  and  C_24 
ROOT
HETATM    1  C   UNL     1      24.313  44.677  50.223  1.00  0.00     0.160 C 
HETATM    2  N   UNL     1      23.991  45.651  49.197  1.00  0.00    -0.330 N 
HETATM    3  C   UNL     1      23.783  46.965  49.453  1.00  0.00     0.321 C 
HETATM    4  O   UNL     1      23.227  47.700  48.645  1.00  0.00    -0.247 OA
HETATM    5  N   UNL     1      24.259  47.422  50.644  1.00  0.00    -0.312 N 
HETATM    6  C   UNL     1      24.952  46.666  51.565  1.00  0.00     0.024 C 
HETATM    7  C   UNL     1      25.511  47.437  52.730  1.00  0.00     0.069 C 
HETATM    8  C   UNL     1      25.032  45.332  51.373  1.00  0.00     0.059 C 
HETATM    9  H   UNL     1      23.606  45.333  48.319  1.00  0.00     0.165 HD
HETATM   10  H   UNL     1      24.165  48.423  50.777  1.00  0.00     0.170 HD
ENDROOT
BRANCH   1  11
HETATM   11  C   UNL     1      24.932  43.464  49.548  1.00  0.00    -0.028 A 
HETATM   12  C   UNL     1      26.332  43.325  49.574  1.00  0.00     0.012 A 
HETATM   13  C   UNL     1      26.958  42.172  49.091  1.00  0.00     0.040 A 
HETATM   14  C   UNL     1      26.200  41.134  48.547  1.00  0.00     0.102 A 
HETATM   15  C   UNL     1      24.807  41.279  48.470  1.00  0.00     0.102 A 
HETATM   16  C   UNL     1      24.178  42.415  49.002  1.00  0.00     0.049 A 
BRANCH  14  17
HETATM   17  O   UNL     1      26.735  39.928  48.178  1.00  0.00    -0.339 OA
BRANCH  17  18
HETATM   18  C   UNL     1      26.894  38.960  49.212  1.00  0.00     0.278 C 
BRANCH  18  19
HETATM   19  C   UNL     1      28.378  38.696  49.442  1.00  0.00     0.239 C 
HETATM   20  N   UNL     1      28.670  37.759  50.393  1.00  0.00    -0.368 N 
HETATM   21  H   UNL     1      27.940  37.144  50.735  1.00  0.00     0.159 HD
HETATM   22  H   UNL     1      29.638  37.506  50.538  1.00  0.00     0.159 HD
HETATM   23  O   UNL     1      29.269  39.312  48.865  1.00  0.00    -0.271 OA
ENDBRANCH  18  19
ENDBRANCH  17  18
ENDBRANCH  14  17
BRANCH  15  24
HETATM   24  O   UNL     1      23.967  40.312  47.974  1.00  0.00    -0.349 OA
BRANCH  24  25
HETATM   25  C   UNL     1      23.247  40.688  46.792  1.00  0.00     0.171 C 
HETATM   26  C   UNL     1      24.181  40.985  45.632  1.00  0.00     0.034 C 
ENDBRANCH  24  25
ENDBRANCH  15  24
ENDBRANCH   1  11
BRANCH   8  27
HETATM   27  C   UNL     1      25.811  44.510  52.343  1.00  0.00     0.256 C 
HETATM   28  N   UNL     1      27.158  44.791  52.337  1.00  0.00    -0.323 N 
HETATM   29  H   UNL     1      27.473  45.386  51.583  1.00  0.00     0.169 HD
HETATM   30  O   UNL     1      25.226  43.648  52.982  1.00  0.00    -0.267 OA
BRANCH  28  31
HETATM   31  C   UNL     1      28.212  44.242  53.112  1.00  0.00     0.041 A 
HETATM   32  C   UNL     1      28.558  44.542  54.443  1.00  0.00    -0.035 A 
HETATM   33  C   UNL     1      27.903  45.580  55.307  1.00  0.00     0.050 C 
HETATM   34  C   UNL     1      29.621  43.833  55.048  1.00  0.00     0.009 A 
HETATM   35  C   UNL     1      30.364  42.885  54.349  1.00  0.00     0.001 A 
HETATM   36  C   UNL     1      30.059  42.626  53.023  1.00  0.00     0.002 A 
HETATM   37  C   UNL     1      28.998  43.299  52.415  1.00  0.00     0.030 A 
ENDBRANCH  28  31
ENDBRANCH   8  27
TORSDOF 8
ENDMDL
