MODEL 1
REMARK VINA RESULT:      -9.5      0.000      0.000
REMARK  6 active torsions:
REMARK  status: ('A' for Active; 'I' for Inactive)
REMARK    1  A    between atoms: O_2  and  C_3 
REMARK    2  A    between atoms: C_6  and  C_7 
REMARK    3  A    between atoms: C_7  and  C_8 
REMARK       I    between atoms: C_8  and  N_9 
REMARK    4  A    between atoms: N_9  and  C_10 
REMARK    5  A    between atoms: C_10  and  C_11 
REMARK       I    between atoms: C_11  and  N_12 
REMARK    6  A    between atoms: N_12  and  N_13 
ROOT
HETATM    1  C   UNL     1      25.468  47.058  50.937  1.00  0.00     0.255 C 
HETATM    2  N   UNL     1      25.410  46.033  51.862  1.00  0.00    -0.245 N 
HETATM    3  O   UNL     1      26.343  47.924  50.900  1.00  0.00    -0.270 OA
HETATM    4  H   UNL     1      24.589  45.427  51.881  1.00  0.00     0.192 HD
ENDROOT
BRANCH   1   5
HETATM    5  C   UNL     1      24.290  47.097  49.954  1.00  0.00     0.227 C 
BRANCH   5   6
HETATM    6  N   UNL     1      23.947  48.386  49.361  1.00  0.00    -0.352 N 
HETATM    7  C   UNL     1      22.993  48.469  48.369  1.00  0.00     0.222 C 
HETATM    8  O   UNL     1      22.572  47.476  47.783  1.00  0.00    -0.273 OA
HETATM    9  H   UNL     1      24.094  49.208  49.934  1.00  0.00     0.162 HD
BRANCH   7  10
HETATM   10  C   UNL     1      22.509  49.876  48.062  1.00  0.00     0.141 C 
BRANCH  10  11
HETATM   11  C   UNL     1      21.186  50.225  48.707  1.00  0.00    -0.049 A 
HETATM   12  C   UNL     1      20.443  49.286  49.434  1.00  0.00     0.010 A 
HETATM   13  C   UNL     1      19.202  49.620  49.990  1.00  0.00     0.037 A 
HETATM   14  C   UNL     1      18.672  50.896  49.809  1.00  0.00     0.068 A 
HETATM   15  C   UNL     1      19.393  51.828  49.063  1.00  0.00     0.037 A 
HETATM   16  C   UNL     1      20.636  51.500  48.514  1.00  0.00     0.010 A 
BRANCH  14  17
HETATM   17  O   UNL     1      17.474  51.346  50.291  1.00  0.00    -0.356 OA
HETATM   18  C   UNL     1      16.953  52.533  49.704  1.00  0.00     0.210 C 
ENDBRANCH  14  17
ENDBRANCH  10  11
ENDBRANCH   7  10
ENDBRANCH   5   6
ENDBRANCH   1   5
BRANCH   2  19
HETATM   19  N   UNL     1      26.333  45.949  52.864  1.00  0.00    -0.166 NA
HETATM   20  C   UNL     1      27.189  44.984  52.780  1.00  0.00     0.157 A 
HETATM   21  C   UNL     1      27.352  43.933  51.674  1.00  0.00     0.277 A 
HETATM   22  C   UNL     1      28.225  44.691  53.765  1.00  0.00     0.028 A 
HETATM   23  O   UNL     1      26.681  43.869  50.666  1.00  0.00    -0.266 OA
HETATM   24  N   UNL     1      28.405  43.138  52.076  1.00  0.00    -0.321 N 
HETATM   25  C   UNL     1      28.919  43.576  53.294  1.00  0.00     0.048 A 
HETATM   26  H   UNL     1      28.742  42.353  51.537  1.00  0.00     0.169 HD
HETATM   27  C   UNL     1      29.969  43.036  54.003  1.00  0.00     0.032 A 
HETATM   28  C   UNL     1      30.308  43.650  55.217  1.00  0.00     0.021 A 
HETATM   29  C   UNL     1      29.595  44.776  55.683  1.00  0.00     0.012 A 
HETATM   30 BR   UNL     1      30.090  45.565  57.329  1.00  0.00    -0.051 Br
HETATM   31  C   UNL     1      28.534  45.315  54.956  1.00  0.00     0.035 A 
ENDBRANCH   2  19
TORSDOF 6
ENDMDL
MODEL 2
REMARK VINA RESULT:      -9.4      2.418      2.805
REMARK  6 active torsions:
REMARK  status: ('A' for Active; 'I' for Inactive)
REMARK    1  A    between atoms: O_2  and  C_3 
REMARK    2  A    between atoms: C_6  and  C_7 
REMARK    3  A    between atoms: C_7  and  C_8 
REMARK       I    between atoms: C_8  and  N_9 
REMARK    4  A    between atoms: N_9  and  C_10 
REMARK    5  A    between atoms: C_10  and  C_11 
REMARK       I    between atoms: C_11  and  N_12 
REMARK    6  A    between atoms: N_12  and  N_13 
ROOT
HETATM    1  C   UNL     1      26.834  48.125  49.233  1.00  0.00     0.255 C 
HETATM    2  N   UNL     1      26.034  47.287  49.987  1.00  0.00    -0.245 N 
HETATM    3  O   UNL     1      27.963  47.844  48.829  1.00  0.00    -0.270 OA
HETATM    4  H   UNL     1      25.158  47.647  50.368  1.00  0.00     0.192 HD
ENDROOT
BRANCH   1   5
HETATM    5  C   UNL     1      26.235  49.514  48.971  1.00  0.00     0.227 C 
BRANCH   5   6
HETATM    6  N   UNL     1      25.047  49.588  48.126  1.00  0.00    -0.352 N 
HETATM    7  C   UNL     1      23.787  49.571  48.687  1.00  0.00     0.222 C 
HETATM    8  O   UNL     1      23.597  49.260  49.859  1.00  0.00    -0.273 OA
HETATM    9  H   UNL     1      25.150  50.047  47.229  1.00  0.00     0.162 HD
BRANCH   7  10
HETATM   10  C   UNL     1      22.662  49.966  47.745  1.00  0.00     0.141 C 
BRANCH  10  11
HETATM   11  C   UNL     1      21.329  50.167  48.430  1.00  0.00    -0.049 A 
HETATM   12  C   UNL     1      20.413  49.119  48.596  1.00  0.00     0.010 A 
HETATM   13  C   UNL     1      19.168  49.335  49.198  1.00  0.00     0.037 A 
HETATM   14  C   UNL     1      18.807  50.612  49.625  1.00  0.00     0.068 A 
HETATM   15  C   UNL     1      19.702  51.666  49.438  1.00  0.00     0.037 A 
HETATM   16  C   UNL     1      20.949  51.451  48.844  1.00  0.00     0.010 A 
BRANCH  14  17
HETATM   17  O   UNL     1      17.624  50.958  50.218  1.00  0.00    -0.356 OA
HETATM   18  C   UNL     1      17.033  52.182  49.799  1.00  0.00     0.210 C 
ENDBRANCH  14  17
ENDBRANCH  10  11
ENDBRANCH   7  10
ENDBRANCH   5   6
ENDBRANCH   1   5
BRANCH   2  19
HETATM   19  N   UNL     1      26.491  46.066  50.388  1.00  0.00    -0.166 NA
HETATM   20  C   UNL     1      26.385  45.795  51.648  1.00  0.00     0.157 A 
HETATM   21  C   UNL     1      25.764  46.642  52.766  1.00  0.00     0.277 A 
HETATM   22  C   UNL     1      26.852  44.570  52.286  1.00  0.00     0.028 A 
HETATM   23  O   UNL     1      25.244  47.727  52.616  1.00  0.00    -0.266 OA
HETATM   24  N   UNL     1      25.915  45.897  53.917  1.00  0.00    -0.321 N 
HETATM   25  C   UNL     1      26.548  44.687  53.643  1.00  0.00     0.048 A 
HETATM   26  H   UNL     1      25.596  46.208  54.823  1.00  0.00     0.169 HD
HETATM   27  C   UNL     1      26.866  43.687  54.536  1.00  0.00     0.032 A 
HETATM   28  C   UNL     1      27.510  42.551  54.025  1.00  0.00     0.021 A 
HETATM   29  C   UNL     1      27.814  42.447  52.650  1.00  0.00     0.012 A 
HETATM   30 BR   UNL     1      28.687  40.895  52.013  1.00  0.00    -0.051 Br
HETATM   31  C   UNL     1      27.486  43.466  51.756  1.00  0.00     0.035 A 
ENDBRANCH   2  19
TORSDOF 6
ENDMDL
MODEL 3
REMARK VINA RESULT:      -9.3      1.501      2.409
REMARK  6 active torsions:
REMARK  status: ('A' for Active; 'I' for Inactive)
REMARK    1  A    between atoms: O_2  and  C_3 
REMARK    2  A    between atoms: C_6  and  C_7 
REMARK    3  A    between atoms: C_7  and  C_8 
REMARK       I    between atoms: C_8  and  N_9 
REMARK    4  A    between atoms: N_9  and  C_10 
REMARK    5  A    between atoms: C_10  and  C_11 
REMARK       I    between atoms: C_11  and  N_12 
REMARK    6  A    between atoms: N_12  and  N_13 
ROOT
HETATM    1  C   UNL     1      25.050  46.268  50.205  1.00  0.00     0.255 C 
HETATM    2  N   UNL     1      24.837  45.690  51.442  1.00  0.00    -0.245 N 
HETATM    3  O   UNL     1      26.138  46.314  49.628  1.00  0.00    -0.270 OA
HETATM    4  H   UNL     1      23.925  45.796  51.888  1.00  0.00     0.192 HD
ENDROOT
BRANCH   1   5
HETATM    5  C   UNL     1      23.813  46.935  49.590  1.00  0.00     0.227 C 
BRANCH   5   6
HETATM    6  N   UNL     1      23.651  48.372  49.792  1.00  0.00    -0.352 N 
HETATM    7  C   UNL     1      23.039  49.149  48.831  1.00  0.00     0.222 C 
HETATM    8  O   UNL     1      22.823  48.736  47.695  1.00  0.00    -0.273 OA
HETATM    9  H   UNL     1      23.610  48.699  50.749  1.00  0.00     0.162 HD
BRANCH   7  10
HETATM   10  C   UNL     1      22.654  50.546  49.287  1.00  0.00     0.141 C 
BRANCH  10  11
HETATM   11  C   UNL     1      21.162  50.791  49.328  1.00  0.00    -0.049 A 
HETATM   12  C   UNL     1      20.544  51.755  48.521  1.00  0.00     0.010 A 
HETATM   13  C   UNL     1      19.167  51.993  48.603  1.00  0.00     0.037 A 
HETATM   14  C   UNL     1      18.386  51.283  49.513  1.00  0.00     0.068 A 
HETATM   15  C   UNL     1      18.998  50.341  50.340  1.00  0.00     0.037 A 
HETATM   16  C   UNL     1      20.371  50.096  50.254  1.00  0.00     0.010 A 
BRANCH  14  17
HETATM   17  O   UNL     1      17.038  51.423  49.698  1.00  0.00    -0.356 OA
HETATM   18  C   UNL     1      16.556  52.742  49.927  1.00  0.00     0.210 C 
ENDBRANCH  14  17
ENDBRANCH  10  11
ENDBRANCH   7  10
ENDBRANCH   5   6
ENDBRANCH   1   5
BRANCH   2  19
HETATM   19  N   UNL     1      25.876  45.161  52.150  1.00  0.00    -0.166 NA
HETATM   20  C   UNL     1      26.356  45.892  53.103  1.00  0.00     0.157 A 
HETATM   21  C   UNL     1      25.887  47.268  53.591  1.00  0.00     0.277 A 
HETATM   22  C   UNL     1      27.491  45.534  53.946  1.00  0.00     0.028 A 
HETATM   23  O   UNL     1      24.943  47.885  53.145  1.00  0.00    -0.266 OA
HETATM   24  N   UNL     1      26.741  47.603  54.621  1.00  0.00    -0.321 N 
HETATM   25  C   UNL     1      27.678  46.594  54.834  1.00  0.00     0.048 A 
HETATM   26  H   UNL     1      26.672  48.467  55.139  1.00  0.00     0.169 HD
HETATM   27  C   UNL     1      28.686  46.571  55.773  1.00  0.00     0.032 A 
HETATM   28  C   UNL     1      29.515  45.442  55.797  1.00  0.00     0.021 A 
HETATM   29  C   UNL     1      29.316  44.377  54.892  1.00  0.00     0.012 A 
HETATM   30 BR   UNL     1      30.466  42.876  54.964  1.00  0.00    -0.051 Br
HETATM   31  C   UNL     1      28.292  44.411  53.946  1.00  0.00     0.035 A 
ENDBRANCH   2  19
TORSDOF 6
ENDMDL
MODEL 4
REMARK VINA RESULT:      -9.1      3.980     10.363
REMARK  6 active torsions:
REMARK  status: ('A' for Active; 'I' for Inactive)
REMARK    1  A    between atoms: O_2  and  C_3 
REMARK    2  A    between atoms: C_6  and  C_7 
REMARK    3  A    between atoms: C_7  and  C_8 
REMARK       I    between atoms: C_8  and  N_9 
REMARK    4  A    between atoms: N_9  and  C_10 
REMARK    5  A    between atoms: C_10  and  C_11 
REMARK       I    between atoms: C_11  and  N_12 
REMARK    6  A    between atoms: N_12  and  N_13 
ROOT
HETATM    1  C   UNL     1      23.863  43.824  50.494  1.00  0.00     0.255 C 
HETATM    2  N   UNL     1      24.309  45.005  49.931  1.00  0.00    -0.245 N 
HETATM    3  O   UNL     1      22.689  43.452  50.509  1.00  0.00    -0.270 OA
HETATM    4  H   UNL     1      25.284  45.280  50.061  1.00  0.00     0.192 HD
ENDROOT
BRANCH   1   5
HETATM    5  C   UNL     1      24.954  42.996  51.186  1.00  0.00     0.227 C 
BRANCH   5   6
HETATM    6  N   UNL     1      25.581  43.564  52.376  1.00  0.00    -0.352 N 
HETATM    7  C   UNL     1      26.711  44.347  52.265  1.00  0.00     0.222 C 
HETATM    8  O   UNL     1      27.365  44.407  51.228  1.00  0.00    -0.273 OA
HETATM    9  H   UNL     1      24.984  43.720  53.179  1.00  0.00     0.162 HD
BRANCH   7  10
HETATM   10  C   UNL     1      27.076  45.124  53.518  1.00  0.00     0.141 C 
BRANCH  10  11
HETATM   11  C   UNL     1      28.308  44.605  54.226  1.00  0.00    -0.049 A 
HETATM   12  C   UNL     1      28.837  43.333  53.963  1.00  0.00     0.010 A 
HETATM   13  C   UNL     1      29.954  42.857  54.658  1.00  0.00     0.037 A 
HETATM   14  C   UNL     1      30.552  43.638  55.646  1.00  0.00     0.068 A 
HETATM   15  C   UNL     1      30.015  44.893  55.934  1.00  0.00     0.037 A 
HETATM   16  C   UNL     1      28.903  45.374  55.236  1.00  0.00     0.010 A 
BRANCH  14  17
HETATM   17  O   UNL     1      31.638  43.290  56.400  1.00  0.00    -0.356 OA
HETATM   18  C   UNL     1      31.781  43.941  57.657  1.00  0.00     0.210 C 
ENDBRANCH  14  17
ENDBRANCH  10  11
ENDBRANCH   7  10
ENDBRANCH   5   6
ENDBRANCH   1   5
BRANCH   2  19
HETATM   19  N   UNL     1      23.428  45.890  49.383  1.00  0.00    -0.166 NA
HETATM   20  C   UNL     1      23.854  47.098  49.211  1.00  0.00     0.157 A 
HETATM   21  C   UNL     1      25.246  47.677  49.493  1.00  0.00     0.277 A 
HETATM   22  C   UNL     1      23.060  48.203  48.684  1.00  0.00     0.028 A 
HETATM   23  O   UNL     1      26.193  47.050  49.917  1.00  0.00    -0.266 OA
HETATM   24  N   UNL     1      25.167  49.009  49.141  1.00  0.00    -0.321 N 
HETATM   25  C   UNL     1      23.895  49.321  48.668  1.00  0.00     0.048 A 
HETATM   26  H   UNL     1      25.944  49.649  49.221  1.00  0.00     0.169 HD
HETATM   27  C   UNL     1      23.442  50.545  48.225  1.00  0.00     0.032 A 
HETATM   28  C   UNL     1      22.110  50.619  47.795  1.00  0.00     0.021 A 
HETATM   29  C   UNL     1      21.276  49.481  47.820  1.00  0.00     0.012 A 
HETATM   30 BR   UNL     1      19.485  49.636  47.232  1.00  0.00    -0.051 Br
HETATM   31  C   UNL     1      21.745  48.247  48.270  1.00  0.00     0.035 A 
ENDBRANCH   2  19
TORSDOF 6
ENDMDL
MODEL 5
REMARK VINA RESULT:      -9.0      2.153      2.564
REMARK  6 active torsions:
REMARK  status: ('A' for Active; 'I' for Inactive)
REMARK    1  A    between atoms: O_2  and  C_3 
REMARK    2  A    between atoms: C_6  and  C_7 
REMARK    3  A    between atoms: C_7  and  C_8 
REMARK       I    between atoms: C_8  and  N_9 
REMARK    4  A    between atoms: N_9  and  C_10 
REMARK    5  A    between atoms: C_10  and  C_11 
REMARK       I    between atoms: C_11  and  N_12 
REMARK    6  A    between atoms: N_12  and  N_13 
ROOT
HETATM    1  C   UNL     1      24.535  47.960  49.953  1.00  0.00     0.255 C 
HETATM    2  N   UNL     1      24.291  47.187  51.072  1.00  0.00    -0.245 N 
HETATM    3  O   UNL     1      25.633  48.428  49.648  1.00  0.00    -0.270 OA
HETATM    4  H   UNL     1      23.329  46.935  51.301  1.00  0.00     0.192 HD
ENDROOT
BRANCH   1   5
HETATM    5  C   UNL     1      23.292  48.271  49.108  1.00  0.00     0.227 C 
BRANCH   5   6
HETATM    6  N   UNL     1      22.202  48.998  49.753  1.00  0.00    -0.352 N 
HETATM    7  C   UNL     1      22.195  50.376  49.773  1.00  0.00     0.222 C 
HETATM    8  O   UNL     1      23.184  51.040  49.476  1.00  0.00    -0.273 OA
HETATM    9  H   UNL     1      21.307  48.527  49.808  1.00  0.00     0.162 HD
BRANCH   7  10
HETATM   10  C   UNL     1      20.875  51.004  50.187  1.00  0.00     0.141 C 
BRANCH  10  11
HETATM   11  C   UNL     1      19.910  51.219  49.042  1.00  0.00    -0.049 A 
HETATM   12  C   UNL     1      20.059  50.564  47.812  1.00  0.00     0.010 A 
HETATM   13  C   UNL     1      19.177  50.808  46.752  1.00  0.00     0.037 A 
HETATM   14  C   UNL     1      18.142  51.730  46.898  1.00  0.00     0.068 A 
HETATM   15  C   UNL     1      18.004  52.407  48.110  1.00  0.00     0.037 A 
HETATM   16  C   UNL     1      18.879  52.159  49.172  1.00  0.00     0.010 A 
BRANCH  14  17
HETATM   17  O   UNL     1      17.221  52.064  45.944  1.00  0.00    -0.356 OA
HETATM   18  C   UNL     1      17.358  51.438  44.674  1.00  0.00     0.210 C 
ENDBRANCH  14  17
ENDBRANCH  10  11
ENDBRANCH   7  10
ENDBRANCH   5   6
ENDBRANCH   1   5
BRANCH   2  19
HETATM   19  N   UNL     1      25.286  46.931  51.970  1.00  0.00    -0.166 NA
HETATM   20  C   UNL     1      25.547  45.686  52.202  1.00  0.00     0.157 A 
HETATM   21  C   UNL     1      24.925  44.437  51.566  1.00  0.00     0.277 A 
HETATM   22  C   UNL     1      26.537  45.199  53.155  1.00  0.00     0.028 A 
HETATM   23  O   UNL     1      24.075  44.440  50.701  1.00  0.00    -0.266 OA
HETATM   24  N   UNL     1      25.554  43.366  52.169  1.00  0.00    -0.321 N 
HETATM   25  C   UNL     1      26.496  43.805  53.096  1.00  0.00     0.048 A 
HETATM   26  H   UNL     1      25.343  42.404  51.946  1.00  0.00     0.169 HD
HETATM   27  C   UNL     1      27.315  43.031  53.888  1.00  0.00     0.032 A 
HETATM   28  C   UNL     1      28.189  43.700  54.755  1.00  0.00     0.021 A 
HETATM   29  C   UNL     1      28.219  45.111  54.807  1.00  0.00     0.012 A 
HETATM   30 BR   UNL     1      29.414  45.966  55.999  1.00  0.00    -0.051 Br
HETATM   31  C   UNL     1      27.384  45.884  54.000  1.00  0.00     0.035 A 
ENDBRANCH   2  19
TORSDOF 6
ENDMDL
MODEL 6
REMARK VINA RESULT:      -9.0      1.100      1.494
REMARK  6 active torsions:
REMARK  status: ('A' for Active; 'I' for Inactive)
REMARK    1  A    between atoms: O_2  and  C_3 
REMARK    2  A    between atoms: C_6  and  C_7 
REMARK    3  A    between atoms: C_7  and  C_8 
REMARK       I    between atoms: C_8  and  N_9 
REMARK    4  A    between atoms: N_9  and  C_10 
REMARK    5  A    between atoms: C_10  and  C_11 
REMARK       I    between atoms: C_11  and  N_12 
REMARK    6  A    between atoms: N_12  and  N_13 
ROOT
HETATM    1  C   UNL     1      25.413  46.360  51.795  1.00  0.00     0.255 C 
HETATM    2  N   UNL     1      26.154  45.281  52.236  1.00  0.00    -0.245 N 
HETATM    3  O   UNL     1      25.473  47.496  52.269  1.00  0.00    -0.270 OA
HETATM    4  H   UNL     1      25.957  44.355  51.854  1.00  0.00     0.192 HD
ENDROOT
BRANCH   1   5
HETATM    5  C   UNL     1      24.417  46.035  50.673  1.00  0.00     0.227 C 
BRANCH   5   6
HETATM    6  N   UNL     1      24.131  47.084  49.699  1.00  0.00    -0.352 N 
HETATM    7  C   UNL     1      23.027  46.996  48.878  1.00  0.00     0.222 C 
HETATM    8  O   UNL     1      22.385  45.957  48.756  1.00  0.00    -0.273 OA
HETATM    9  H   UNL     1      24.483  48.012  49.907  1.00  0.00     0.162 HD
BRANCH   7  10
HETATM   10  C   UNL     1      22.671  48.276  48.143  1.00  0.00     0.141 C 
BRANCH  10  11
HETATM   11  C   UNL     1      21.459  48.989  48.700  1.00  0.00    -0.049 A 
HETATM   12  C   UNL     1      21.475  50.357  49.003  1.00  0.00     0.010 A 
HETATM   13  C   UNL     1      20.354  50.988  49.555  1.00  0.00     0.037 A 
HETATM   14  C   UNL     1      19.202  50.255  49.834  1.00  0.00     0.068 A 
HETATM   15  C   UNL     1      19.188  48.887  49.562  1.00  0.00     0.037 A 
HETATM   16  C   UNL     1      20.303  48.256  49.003  1.00  0.00     0.010 A 
BRANCH  14  17
HETATM   17  O   UNL     1      18.047  50.747  50.378  1.00  0.00    -0.356 OA
HETATM   18  C   UNL     1      17.626  52.031  49.934  1.00  0.00     0.210 C 
ENDBRANCH  14  17
ENDBRANCH  10  11
ENDBRANCH   7  10
ENDBRANCH   5   6
ENDBRANCH   1   5
BRANCH   2  19
HETATM   19  N   UNL     1      26.994  45.404  53.304  1.00  0.00    -0.166 NA
HETATM   20  C   UNL     1      27.938  44.526  53.400  1.00  0.00     0.157 A 
HETATM   21  C   UNL     1      28.286  43.377  52.445  1.00  0.00     0.277 A 
HETATM   22  C   UNL     1      28.911  44.453  54.485  1.00  0.00     0.028 A 
HETATM   23  O   UNL     1      27.710  43.131  51.407  1.00  0.00    -0.266 OA
HETATM   24  N   UNL     1      29.370  42.742  53.015  1.00  0.00    -0.321 N 
HETATM   25  C   UNL     1      29.740  43.366  54.204  1.00  0.00     0.048 A 
HETATM   26  H   UNL     1      29.820  41.938  52.602  1.00  0.00     0.169 HD
HETATM   27  C   UNL     1      30.772  43.018  55.048  1.00  0.00     0.032 A 
HETATM   28  C   UNL     1      30.952  43.799  56.198  1.00  0.00     0.021 A 
HETATM   29  C   UNL     1      30.104  44.894  56.471  1.00  0.00     0.012 A 
HETATM   30 BR   UNL     1      30.388  45.913  58.039  1.00  0.00    -0.051 Br
HETATM   31  C   UNL     1      29.063  45.237  55.609  1.00  0.00     0.035 A 
ENDBRANCH   2  19
TORSDOF 6
ENDMDL
MODEL 7
REMARK VINA RESULT:      -8.9      4.404      5.870
REMARK  6 active torsions:
REMARK  status: ('A' for Active; 'I' for Inactive)
REMARK    1  A    between atoms: O_2  and  C_3 
REMARK    2  A    between atoms: C_6  and  C_7 
REMARK    3  A    between atoms: C_7  and  C_8 
REMARK       I    between atoms: C_8  and  N_9 
REMARK    4  A    between atoms: N_9  and  C_10 
REMARK    5  A    between atoms: C_10  and  C_11 
REMARK       I    between atoms: C_11  and  N_12 
REMARK    6  A    between atoms: N_12  and  N_13 
ROOT
HETATM    1  C   UNL     1      27.142  41.111  51.163  1.00  0.00     0.255 C 
HETATM    2  N   UNL     1      26.907  41.191  52.522  1.00  0.00    -0.245 N 
HETATM    3  O   UNL     1      28.213  41.385  50.618  1.00  0.00    -0.270 OA
HETATM    4  H   UNL     1      25.958  41.048  52.871  1.00  0.00     0.192 HD
ENDROOT
BRANCH   1   5
HETATM    5  C   UNL     1      25.921  40.706  50.326  1.00  0.00     0.227 C 
BRANCH   5   6
HETATM    6  N   UNL     1      25.362  41.704  49.419  1.00  0.00    -0.352 N 
HETATM    7  C   UNL     1      24.317  42.508  49.822  1.00  0.00     0.222 C 
HETATM    8  O   UNL     1      23.665  42.274  50.835  1.00  0.00    -0.273 OA
HETATM    9  H   UNL     1      25.977  42.066  48.701  1.00  0.00     0.162 HD
BRANCH   7  10
HETATM   10  C   UNL     1      24.039  43.697  48.918  1.00  0.00     0.141 C 
BRANCH  10  11
HETATM   11  C   UNL     1      24.783  44.954  49.310  1.00  0.00    -0.049 A 
HETATM   12  C   UNL     1      24.129  46.181  49.488  1.00  0.00     0.010 A 
HETATM   13  C   UNL     1      24.843  47.340  49.812  1.00  0.00     0.037 A 
HETATM   14  C   UNL     1      26.230  47.298  49.943  1.00  0.00     0.068 A 
HETATM   15  C   UNL     1      26.892  46.086  49.740  1.00  0.00     0.037 A 
HETATM   16  C   UNL     1      26.180  44.925  49.424  1.00  0.00     0.010 A 
BRANCH  14  17
HETATM   17  O   UNL     1      27.043  48.354  50.248  1.00  0.00    -0.356 OA
HETATM   18  C   UNL     1      27.657  49.026  49.155  1.00  0.00     0.210 C 
ENDBRANCH  14  17
ENDBRANCH  10  11
ENDBRANCH   7  10
ENDBRANCH   5   6
ENDBRANCH   1   5
BRANCH   2  19
HETATM   19  N   UNL     1      27.873  41.648  53.369  1.00  0.00    -0.166 NA
HETATM   20  C   UNL     1      27.795  42.891  53.717  1.00  0.00     0.157 A 
HETATM   21  C   UNL     1      26.728  43.929  53.348  1.00  0.00     0.277 A 
HETATM   22  C   UNL     1      28.749  43.585  54.574  1.00  0.00     0.028 A 
HETATM   23  O   UNL     1      25.750  43.715  52.663  1.00  0.00    -0.266 OA
HETATM   24  N   UNL     1      27.119  45.095  53.973  1.00  0.00    -0.321 N 
HETATM   25  C   UNL     1      28.297  44.900  54.690  1.00  0.00     0.048 A 
HETATM   26  H   UNL     1      26.600  45.959  53.907  1.00  0.00     0.169 HD
HETATM   27  C   UNL     1      28.986  45.830  55.439  1.00  0.00     0.032 A 
HETATM   28  C   UNL     1      30.158  45.401  56.075  1.00  0.00     0.021 A 
HETATM   29  C   UNL     1      30.606  44.068  55.947  1.00  0.00     0.012 A 
HETATM   30 BR   UNL     1      32.197  43.540  56.823  1.00  0.00    -0.051 Br
HETATM   31  C   UNL     1      29.900  43.135  55.187  1.00  0.00     0.035 A 
ENDBRANCH   2  19
TORSDOF 6
ENDMDL
MODEL 8
REMARK VINA RESULT:      -8.8      4.271     11.132
REMARK  6 active torsions:
REMARK  status: ('A' for Active; 'I' for Inactive)
REMARK    1  A    between atoms: O_2  and  C_3 
REMARK    2  A    between atoms: C_6  and  C_7 
REMARK    3  A    between atoms: C_7  and  C_8 
REMARK       I    between atoms: C_8  and  N_9 
REMARK    4  A    between atoms: N_9  and  C_10 
REMARK    5  A    between atoms: C_10  and  C_11 
REMARK       I    between atoms: C_11  and  N_12 
REMARK    6  A    between atoms: N_12  and  N_13 
ROOT
HETATM    1  C   UNL     1      22.764  48.472  48.723  1.00  0.00     0.255 C 
HETATM    2  N   UNL     1      21.661  48.571  49.550  1.00  0.00    -0.245 N 
HETATM    3  O   UNL     1      22.723  48.483  47.491  1.00  0.00    -0.270 OA
HETATM    4  H   UNL     1      21.782  48.443  50.555  1.00  0.00     0.192 HD
ENDROOT
BRANCH   1   5
HETATM    5  C   UNL     1      24.097  48.274  49.457  1.00  0.00     0.227 C 
BRANCH   5   6
HETATM    6  N   UNL     1      24.180  47.181  50.422  1.00  0.00    -0.352 N 
HETATM    7  C   UNL     1      25.329  46.984  51.159  1.00  0.00     0.222 C 
HETATM    8  O   UNL     1      26.387  47.542  50.883  1.00  0.00    -0.273 OA
HETATM    9  H   UNL     1      23.309  46.856  50.824  1.00  0.00     0.162 HD
BRANCH   7  10
HETATM   10  C   UNL     1      25.181  46.030  52.332  1.00  0.00     0.141 C 
BRANCH  10  11
HETATM   11  C   UNL     1      26.341  46.064  53.302  1.00  0.00    -0.049 A 
HETATM   12  C   UNL     1      27.218  44.981  53.451  1.00  0.00     0.010 A 
HETATM   13  C   UNL     1      28.261  45.019  54.383  1.00  0.00     0.037 A 
HETATM   14  C   UNL     1      28.433  46.134  55.201  1.00  0.00     0.068 A 
HETATM   15  C   UNL     1      27.547  47.206  55.079  1.00  0.00     0.037 A 
HETATM   16  C   UNL     1      26.509  47.174  54.143  1.00  0.00     0.010 A 
BRANCH  14  17
HETATM   17  O   UNL     1      29.402  46.295  56.152  1.00  0.00    -0.356 OA
HETATM   18  C   UNL     1      30.323  45.223  56.315  1.00  0.00     0.210 C 
ENDBRANCH  14  17
ENDBRANCH  10  11
ENDBRANCH   7  10
ENDBRANCH   5   6
ENDBRANCH   1   5
BRANCH   2  19
HETATM   19  N   UNL     1      20.404  48.636  49.025  1.00  0.00    -0.166 NA
HETATM   20  C   UNL     1      19.718  49.697  49.300  1.00  0.00     0.157 A 
HETATM   21  C   UNL     1      20.140  50.935  50.102  1.00  0.00     0.277 A 
HETATM   22  C   UNL     1      18.344  49.943  48.878  1.00  0.00     0.028 A 
HETATM   23  O   UNL     1      21.233  51.110  50.597  1.00  0.00    -0.266 OA
HETATM   24  N   UNL     1      19.038  51.766  50.101  1.00  0.00    -0.321 N 
HETATM   25  C   UNL     1      17.988  51.193  49.387  1.00  0.00     0.048 A 
HETATM   26  H   UNL     1      19.023  52.665  50.559  1.00  0.00     0.169 HD
HETATM   27  C   UNL     1      16.735  51.723  49.169  1.00  0.00     0.032 A 
HETATM   28  C   UNL     1      15.835  50.956  48.417  1.00  0.00     0.021 A 
HETATM   29  C   UNL     1      16.207  49.692  47.910  1.00  0.00     0.012 A 
HETATM   30 BR   UNL     1      14.953  48.695  46.905  1.00  0.00    -0.051 Br
HETATM   31  C   UNL     1      17.479  49.165  48.138  1.00  0.00     0.035 A 
ENDBRANCH   2  19
TORSDOF 6
ENDMDL
MODEL 9
REMARK VINA RESULT:      -8.8      4.167     10.051
REMARK  6 active torsions:
REMARK  status: ('A' for Active; 'I' for Inactive)
REMARK    1  A    between atoms: O_2  and  C_3 
REMARK    2  A    between atoms: C_6  and  C_7 
REMARK    3  A    between atoms: C_7  and  C_8 
REMARK       I    between atoms: C_8  and  N_9 
REMARK    4  A    between atoms: N_9  and  C_10 
REMARK    5  A    between atoms: C_10  and  C_11 
REMARK       I    between atoms: C_11  and  N_12 
REMARK    6  A    between atoms: N_12  and  N_13 
ROOT
HETATM    1  C   UNL     1      24.892  42.885  50.626  1.00  0.00     0.255 C 
HETATM    2  N   UNL     1      25.026  43.617  49.462  1.00  0.00    -0.245 N 
HETATM    3  O   UNL     1      23.926  42.948  51.389  1.00  0.00    -0.270 OA
HETATM    4  H   UNL     1      25.909  43.579  48.951  1.00  0.00     0.192 HD
ENDROOT
BRANCH   1   5
HETATM    5  C   UNL     1      26.097  41.997  50.964  1.00  0.00     0.227 C 
BRANCH   5   6
HETATM    6  N   UNL     1      27.306  42.655  51.449  1.00  0.00    -0.352 N 
HETATM    7  C   UNL     1      28.069  42.076  52.441  1.00  0.00     0.222 C 
HETATM    8  O   UNL     1      27.660  41.134  53.114  1.00  0.00    -0.273 OA
HETATM    9  H   UNL     1      27.777  43.280  50.806  1.00  0.00     0.162 HD
BRANCH   7  10
HETATM   10  C   UNL     1      29.445  42.691  52.632  1.00  0.00     0.141 C 
BRANCH  10  11
HETATM   11  C   UNL     1      29.560  43.572  53.856  1.00  0.00    -0.049 A 
HETATM   12  C   UNL     1      30.574  43.395  54.807  1.00  0.00     0.010 A 
HETATM   13  C   UNL     1      30.639  44.197  55.952  1.00  0.00     0.037 A 
HETATM   14  C   UNL     1      29.676  45.178  56.178  1.00  0.00     0.068 A 
HETATM   15  C   UNL     1      28.647  45.343  55.249  1.00  0.00     0.037 A 
HETATM   16  C   UNL     1      28.584  44.549  54.101  1.00  0.00     0.010 A 
BRANCH  14  17
HETATM   17  O   UNL     1      29.620  46.020  57.254  1.00  0.00    -0.356 OA
HETATM   18  C   UNL     1      30.596  45.825  58.271  1.00  0.00     0.210 C 
ENDBRANCH  14  17
ENDBRANCH  10  11
ENDBRANCH   7  10
ENDBRANCH   5   6
ENDBRANCH   1   5
BRANCH   2  19
HETATM   19  N   UNL     1      24.079  44.531  49.103  1.00  0.00    -0.166 NA
HETATM   20  C   UNL     1      24.363  45.773  49.320  1.00  0.00     0.157 A 
HETATM   21  C   UNL     1      25.652  46.381  49.887  1.00  0.00     0.277 A 
HETATM   22  C   UNL     1      23.474  46.898  49.053  1.00  0.00     0.028 A 
HETATM   23  O   UNL     1      26.640  45.755  50.208  1.00  0.00    -0.266 OA
HETATM   24  N   UNL     1      25.432  47.743  49.920  1.00  0.00    -0.321 N 
HETATM   25  C   UNL     1      24.164  48.050  49.433  1.00  0.00     0.048 A 
HETATM   26  H   UNL     1      26.117  48.406  50.252  1.00  0.00     0.169 HD
HETATM   27  C   UNL     1      23.593  49.298  49.311  1.00  0.00     0.032 A 
HETATM   28  C   UNL     1      22.293  49.361  48.793  1.00  0.00     0.021 A 
HETATM   29  C   UNL     1      21.605  48.187  48.415  1.00  0.00     0.012 A 
HETATM   30 BR   UNL     1      19.850  48.328  47.724  1.00  0.00    -0.051 Br
HETATM   31  C   UNL     1      22.193  46.929  48.542  1.00  0.00     0.035 A 
ENDBRANCH   2  19
TORSDOF 6
ENDMDL
MODEL 10
REMARK VINA RESULT:      -8.7      5.977      9.303
REMARK  6 active torsions:
REMARK  status: ('A' for Active; 'I' for Inactive)
REMARK    1  A    between atoms: O_2  and  C_3 
REMARK    2  A    between atoms: C_6  and  C_7 
REMARK    3  A    between atoms: C_7  and  C_8 
REMARK       I    between atoms: C_8  and  N_9 
REMARK    4  A    between atoms: N_9  and  C_10 
REMARK    5  A    between atoms: C_10  and  C_11 
REMARK       I    between atoms: C_11  and  N_12 
REMARK    6  A    between atoms: N_12  and  N_13 
ROOT
HETATM    1  C   UNL     1      26.202  43.954  50.127  1.00  0.00     0.255 C 
HETATM    2  N   UNL     1      25.773  42.659  50.348  1.00  0.00    -0.245 N 
HETATM    3  O   UNL     1      27.050  44.282  49.295  1.00  0.00    -0.270 OA
HETATM    4  H   UNL     1      25.146  42.471  51.131  1.00  0.00     0.192 HD
ENDROOT
BRANCH   1   5
HETATM    5  C   UNL     1      25.581  45.000  51.062  1.00  0.00     0.227 C 
BRANCH   5   6
HETATM    6  N   UNL     1      25.974  44.967  52.468  1.00  0.00    -0.352 N 
HETATM    7  C   UNL     1      26.280  46.133  53.137  1.00  0.00     0.222 C 
HETATM    8  O   UNL     1      26.468  47.194  52.549  1.00  0.00    -0.273 OA
HETATM    9  H   UNL     1      25.634  44.189  53.021  1.00  0.00     0.162 HD
BRANCH   7  10
HETATM   10  C   UNL     1      26.365  46.001  54.648  1.00  0.00     0.141 C 
BRANCH  10  11
HETATM   11  C   UNL     1      27.727  45.579  55.153  1.00  0.00    -0.049 A 
HETATM   12  C   UNL     1      28.447  46.346  56.079  1.00  0.00     0.010 A 
HETATM   13  C   UNL     1      29.723  45.956  56.503  1.00  0.00     0.037 A 
HETATM   14  C   UNL     1      30.311  44.801  55.991  1.00  0.00     0.068 A 
HETATM   15  C   UNL     1      29.612  44.047  55.048  1.00  0.00     0.037 A 
HETATM   16  C   UNL     1      28.335  44.429  54.629  1.00  0.00     0.010 A 
BRANCH  14  17
HETATM   17  O   UNL     1      31.548  44.316  56.315  1.00  0.00    -0.356 OA
HETATM   18  C   UNL     1      31.591  43.244  57.250  1.00  0.00     0.210 C 
ENDBRANCH  14  17
ENDBRANCH  10  11
ENDBRANCH   7  10
ENDBRANCH   5   6
ENDBRANCH   1   5
BRANCH   2  19
HETATM   19  N   UNL     1      26.327  41.618  49.663  1.00  0.00    -0.166 NA
HETATM   20  C   UNL     1      27.258  40.957  50.271  1.00  0.00     0.157 A 
HETATM   21  C   UNL     1      27.803  41.149  51.692  1.00  0.00     0.277 A 
HETATM   22  C   UNL     1      28.007  39.843  49.702  1.00  0.00     0.028 A 
HETATM   23  O   UNL     1      27.406  41.971  52.490  1.00  0.00    -0.266 OA
HETATM   24  N   UNL     1      28.786  40.192  51.840  1.00  0.00    -0.321 N 
HETATM   25  C   UNL     1      28.909  39.427  50.682  1.00  0.00     0.048 A 
HETATM   26  H   UNL     1      29.326  40.080  52.685  1.00  0.00     0.169 HD
HETATM   27  C   UNL     1      29.779  38.383  50.456  1.00  0.00     0.032 A 
HETATM   28  C   UNL     1      29.722  37.760  49.203  1.00  0.00     0.021 A 
HETATM   29  C   UNL     1      28.807  38.193  48.219  1.00  0.00     0.012 A 
HETATM   30 BR   UNL     1      28.773  37.320  46.541  1.00  0.00    -0.051 Br
HETATM   31  C   UNL     1      27.931  39.251  48.459  1.00  0.00     0.035 A 
ENDBRANCH   2  19
TORSDOF 6
ENDMDL
