MODEL 1
REMARK VINA RESULT:      -7.9      0.000      0.000
REMARK  7 active torsions:
REMARK  status: ('A' for Active; 'I' for Inactive)
REMARK    1  A    between atoms: O_2  and  C_3 
REMARK    2  A    between atoms: C_7  and  C_8 
REMARK    3  A    between atoms: C_8  and  C_9 
REMARK       I    between atoms: C_9  and  N_10 
REMARK    4  A    between atoms: N_10  and  C_11 
REMARK    5  A    between atoms: C_11  and  C_12 
REMARK    6  A    between atoms: C_12  and  N_13 
REMARK    7  A    between atoms: C_12  and  C_19 
ROOT
HETATM    1  C   UNL     1      30.684  53.559  40.996  1.00  0.00     0.222 C 
HETATM    2  N   UNL     1      30.683  52.721  42.094  1.00  0.00    -0.358 N 
HETATM    3  O   UNL     1      31.733  54.072  40.607  1.00  0.00    -0.273 OA
HETATM    4  H   UNL     1      29.849  52.165  42.242  1.00  0.00     0.162 HD
ENDROOT
BRANCH   2   5
HETATM    5  C   UNL     1      31.918  52.165  42.619  1.00  0.00     0.160 C 
BRANCH   5   6
HETATM    6  C   UNL     1      32.813  51.311  41.657  1.00  0.00     0.240 C 
BRANCH   6   7
HETATM    7  N   UNL     1      34.072  50.754  42.343  1.00  0.00    -0.061 N 
HETATM    8  H   UNL     1      33.717  49.952  42.882  1.00  0.00     0.280 HD
HETATM    9  C   UNL     1      34.784  51.642  43.331  1.00  0.00     0.236 C 
HETATM   10  C   UNL     1      36.136  51.892  42.697  1.00  0.00     0.029 C 
HETATM   11  C   UNL     1      36.443  50.575  42.012  1.00  0.00     0.029 C 
HETATM   12  C   UNL     1      35.112  50.146  41.424  1.00  0.00     0.236 C 
ENDBRANCH   6   7
BRANCH   6  13
HETATM   13  C   UNL     1      32.047  50.178  40.964  1.00  0.00    -0.004 A 
HETATM   14  C   UNL     1      31.852  50.190  39.566  1.00  0.00     0.042 A 
HETATM   15 CL   UNL     1      32.517  51.439  38.572  1.00  0.00    -0.084 Cl
HETATM   16  C   UNL     1      31.149  49.168  38.921  1.00  0.00     0.024 A 
HETATM   17  C   UNL     1      30.630  48.105  39.656  1.00  0.00     0.002 A 
HETATM   18  C   UNL     1      30.820  48.061  41.031  1.00  0.00     0.001 A 
HETATM   19  C   UNL     1      31.523  49.081  41.679  1.00  0.00     0.011 A 
ENDBRANCH   6  13
ENDBRANCH   5   6
ENDBRANCH   2   5
BRANCH   1  20
HETATM   20  C   UNL     1      29.348  53.789  40.284  1.00  0.00     0.144 C 
BRANCH  20  21
HETATM   21  C   UNL     1      28.907  52.627  39.456  1.00  0.00    -0.014 A 
HETATM   22  C   UNL     1      28.363  51.387  39.918  1.00  0.00     0.006 A 
HETATM   23  C   UNL     1      27.976  50.688  38.783  1.00  0.00     0.088 A 
HETATM   24  C   UNL     1      28.103  50.815  41.176  1.00  0.00     0.017 A 
HETATM   25  C   UNL     1      27.309  49.463  38.797  1.00  0.00     0.074 A 
HETATM   26  O   UNL     1      28.318  51.387  37.666  1.00  0.00    -0.321 OA
HETATM   27  C   UNL     1      27.010  48.934  40.057  1.00  0.00     0.070 A 
HETATM   28  C   UNL     1      27.420  49.593  41.223  1.00  0.00     0.038 A 
HETATM   29  C   UNL     1      28.901  52.541  38.077  1.00  0.00     0.151 A 
BRANCH  27  30
HETATM   30  O   UNL     1      26.315  47.776  40.286  1.00  0.00    -0.356 OA
HETATM   31  C   UNL     1      27.010  46.725  40.946  1.00  0.00     0.210 C 
ENDBRANCH  27  30
ENDBRANCH  20  21
ENDBRANCH   1  20
TORSDOF 7
ENDMDL
MODEL 2
REMARK VINA RESULT:      -7.4      1.290      1.730
REMARK  7 active torsions:
REMARK  status: ('A' for Active; 'I' for Inactive)
REMARK    1  A    between atoms: O_2  and  C_3 
REMARK    2  A    between atoms: C_7  and  C_8 
REMARK    3  A    between atoms: C_8  and  C_9 
REMARK       I    between atoms: C_9  and  N_10 
REMARK    4  A    between atoms: N_10  and  C_11 
REMARK    5  A    between atoms: C_11  and  C_12 
REMARK    6  A    between atoms: C_12  and  N_13 
REMARK    7  A    between atoms: C_12  and  C_19 
ROOT
HETATM    1  C   UNL     1      29.220  52.794  41.101  1.00  0.00     0.222 C 
HETATM    2  N   UNL     1      29.994  52.192  42.074  1.00  0.00    -0.358 N 
HETATM    3  O   UNL     1      29.668  53.732  40.443  1.00  0.00    -0.273 OA
HETATM    4  H   UNL     1      29.664  51.304  42.434  1.00  0.00     0.162 HD
ENDROOT
BRANCH   2   5
HETATM    5  C   UNL     1      31.429  52.411  42.137  1.00  0.00     0.160 C 
BRANCH   5   6
HETATM    6  C   UNL     1      32.316  51.835  40.981  1.00  0.00     0.240 C 
BRANCH   6   7
HETATM    7  N   UNL     1      33.822  51.914  41.282  1.00  0.00    -0.061 N 
HETATM    8  H   UNL     1      33.990  52.922  41.408  1.00  0.00     0.280 HD
HETATM    9  C   UNL     1      34.778  51.460  40.209  1.00  0.00     0.236 C 
HETATM   10  C   UNL     1      35.468  50.255  40.811  1.00  0.00     0.029 C 
HETATM   11  C   UNL     1      35.587  50.625  42.276  1.00  0.00     0.029 C 
HETATM   12  C   UNL     1      34.266  51.301  42.595  1.00  0.00     0.236 C 
ENDBRANCH   6   7
BRANCH   6  13
HETATM   13  C   UNL     1      31.935  50.406  40.579  1.00  0.00    -0.004 A 
HETATM   14  C   UNL     1      31.484  50.120  39.272  1.00  0.00     0.042 A 
HETATM   15 CL   UNL     1      31.402  51.348  38.057  1.00  0.00    -0.084 Cl
HETATM   16  C   UNL     1      31.126  48.823  38.893  1.00  0.00     0.024 A 
HETATM   17  C   UNL     1      31.216  47.777  39.808  1.00  0.00     0.002 A 
HETATM   18  C   UNL     1      31.670  48.027  41.097  1.00  0.00     0.001 A 
HETATM   19  C   UNL     1      32.030  49.323  41.478  1.00  0.00     0.011 A 
ENDBRANCH   6  13
ENDBRANCH   5   6
ENDBRANCH   2   5
BRANCH   1  20
HETATM   20  C   UNL     1      27.816  52.227  40.868  1.00  0.00     0.144 C 
BRANCH  20  21
HETATM   21  C   UNL     1      27.777  51.132  39.853  1.00  0.00    -0.014 A 
HETATM   22  C   UNL     1      27.821  49.723  40.094  1.00  0.00     0.006 A 
HETATM   23  C   UNL     1      27.614  49.114  38.864  1.00  0.00     0.088 A 
HETATM   24  C   UNL     1      27.953  48.904  41.230  1.00  0.00     0.017 A 
HETATM   25  C   UNL     1      27.489  47.738  38.672  1.00  0.00     0.074 A 
HETATM   26  O   UNL     1      27.524  50.058  37.886  1.00  0.00    -0.321 OA
HETATM   27  C   UNL     1      27.569  46.943  39.820  1.00  0.00     0.070 A 
HETATM   28  C   UNL     1      27.816  47.519  41.072  1.00  0.00     0.038 A 
HETATM   29  C   UNL     1      27.649  51.269  38.485  1.00  0.00     0.151 A 
BRANCH  27  30
HETATM   30  O   UNL     1      27.416  45.581  39.854  1.00  0.00    -0.356 OA
HETATM   31  C   UNL     1      28.482  44.799  39.329  1.00  0.00     0.210 C 
ENDBRANCH  27  30
ENDBRANCH  20  21
ENDBRANCH   1  20
TORSDOF 7
ENDMDL
MODEL 3
REMARK VINA RESULT:      -7.1      2.749      6.391
REMARK  7 active torsions:
REMARK  status: ('A' for Active; 'I' for Inactive)
REMARK    1  A    between atoms: O_2  and  C_3 
REMARK    2  A    between atoms: C_7  and  C_8 
REMARK    3  A    between atoms: C_8  and  C_9 
REMARK       I    between atoms: C_9  and  N_10 
REMARK    4  A    between atoms: N_10  and  C_11 
REMARK    5  A    between atoms: C_11  and  C_12 
REMARK    6  A    between atoms: C_12  and  N_13 
REMARK    7  A    between atoms: C_12  and  C_19 
ROOT
HETATM    1  C   UNL     1      27.843  50.590  38.152  1.00  0.00     0.222 C 
HETATM    2  N   UNL     1      28.728  49.554  38.384  1.00  0.00    -0.358 N 
HETATM    3  O   UNL     1      26.731  50.363  37.678  1.00  0.00    -0.273 OA
HETATM    4  H   UNL     1      29.532  49.763  38.963  1.00  0.00     0.162 HD
ENDROOT
BRANCH   2   5
HETATM    5  C   UNL     1      28.283  48.171  38.388  1.00  0.00     0.160 C 
BRANCH   5   6
HETATM    6  C   UNL     1      28.461  47.341  39.705  1.00  0.00     0.240 C 
BRANCH   6   7
HETATM    7  N   UNL     1      28.394  45.822  39.472  1.00  0.00    -0.061 N 
HETATM    8  H   UNL     1      29.357  45.507  39.651  1.00  0.00     0.280 HD
HETATM    9  C   UNL     1      28.047  45.339  38.087  1.00  0.00     0.236 C 
HETATM   10  C   UNL     1      26.721  44.629  38.262  1.00  0.00     0.029 C 
HETATM   11  C   UNL     1      26.855  43.985  39.628  1.00  0.00     0.029 C 
HETATM   12  C   UNL     1      27.560  45.037  40.464  1.00  0.00     0.236 C 
ENDBRANCH   6   7
BRANCH   6  13
HETATM   13  C   UNL     1      29.737  47.698  40.477  1.00  0.00    -0.004 A 
HETATM   14  C   UNL     1      29.673  48.479  41.651  1.00  0.00     0.042 A 
HETATM   15 CL   UNL     1      28.161  49.012  42.300  1.00  0.00    -0.084 Cl
HETATM   16  C   UNL     1      30.828  48.819  42.362  1.00  0.00     0.024 A 
HETATM   17  C   UNL     1      32.074  48.380  41.923  1.00  0.00     0.002 A 
HETATM   18  C   UNL     1      32.164  47.597  40.780  1.00  0.00     0.001 A 
HETATM   19  C   UNL     1      31.011  47.255  40.067  1.00  0.00     0.011 A 
ENDBRANCH   6  13
ENDBRANCH   5   6
ENDBRANCH   2   5
BRANCH   1  20
HETATM   20  C   UNL     1      28.297  52.001  38.536  1.00  0.00     0.144 C 
BRANCH  20  21
HETATM   21  C   UNL     1      28.870  52.089  39.913  1.00  0.00    -0.014 A 
HETATM   22  C   UNL     1      30.237  51.908  40.297  1.00  0.00     0.006 A 
HETATM   23  C   UNL     1      30.302  52.226  41.647  1.00  0.00     0.088 A 
HETATM   24  C   UNL     1      31.428  51.570  39.631  1.00  0.00     0.017 A 
HETATM   25  C   UNL     1      31.481  52.271  42.392  1.00  0.00     0.074 A 
HETATM   26  O   UNL     1      29.059  52.512  42.120  1.00  0.00    -0.321 OA
HETATM   27  C   UNL     1      32.663  51.984  41.702  1.00  0.00     0.070 A 
HETATM   28  C   UNL     1      32.630  51.622  40.350  1.00  0.00     0.038 A 
HETATM   29  C   UNL     1      28.197  52.403  41.077  1.00  0.00     0.151 A 
BRANCH  27  30
HETATM   30  O   UNL     1      33.924  52.028  42.236  1.00  0.00    -0.356 OA
HETATM   31  C   UNL     1      34.740  50.876  42.062  1.00  0.00     0.210 C 
ENDBRANCH  27  30
ENDBRANCH  20  21
ENDBRANCH   1  20
TORSDOF 7
ENDMDL
MODEL 4
REMARK VINA RESULT:      -6.9     11.527     13.523
REMARK  7 active torsions:
REMARK  status: ('A' for Active; 'I' for Inactive)
REMARK    1  A    between atoms: O_2  and  C_3 
REMARK    2  A    between atoms: C_7  and  C_8 
REMARK    3  A    between atoms: C_8  and  C_9 
REMARK       I    between atoms: C_9  and  N_10 
REMARK    4  A    between atoms: N_10  and  C_11 
REMARK    5  A    between atoms: C_11  and  C_12 
REMARK    6  A    between atoms: C_12  and  N_13 
REMARK    7  A    between atoms: C_12  and  C_19 
ROOT
HETATM    1  C   UNL     1      24.802  45.769  50.465  1.00  0.00     0.222 C 
HETATM    2  N   UNL     1      25.713  44.867  49.949  1.00  0.00    -0.358 N 
HETATM    3  O   UNL     1      24.894  46.145  51.633  1.00  0.00    -0.273 OA
HETATM    4  H   UNL     1      25.723  44.756  48.942  1.00  0.00     0.162 HD
ENDROOT
BRANCH   2   5
HETATM    5  C   UNL     1      26.964  44.586  50.632  1.00  0.00     0.160 C 
BRANCH   5   6
HETATM    6  C   UNL     1      27.066  43.267  51.474  1.00  0.00     0.240 C 
BRANCH   6   7
HETATM    7  N   UNL     1      27.304  42.018  50.608  1.00  0.00    -0.061 N 
HETATM    8  H   UNL     1      28.310  41.835  50.721  1.00  0.00     0.280 HD
HETATM    9  C   UNL     1      27.062  42.136  49.126  1.00  0.00     0.236 C 
HETATM   10  C   UNL     1      25.905  41.196  48.862  1.00  0.00     0.029 C 
HETATM   11  C   UNL     1      26.163  40.056  49.828  1.00  0.00     0.029 C 
HETATM   12  C   UNL     1      26.643  40.743  51.092  1.00  0.00     0.236 C 
ENDBRANCH   6   7
BRANCH   6  13
HETATM   13  C   UNL     1      28.116  43.342  52.589  1.00  0.00    -0.004 A 
HETATM   14  C   UNL     1      27.805  43.929  53.834  1.00  0.00     0.042 A 
HETATM   15 CL   UNL     1      26.220  44.530  54.178  1.00  0.00    -0.084 Cl
HETATM   16  C   UNL     1      28.754  44.011  54.858  1.00  0.00     0.024 A 
HETATM   17  C   UNL     1      30.035  43.500  54.666  1.00  0.00     0.002 A 
HETATM   18  C   UNL     1      30.364  42.904  53.455  1.00  0.00     0.001 A 
HETATM   19  C   UNL     1      29.417  42.820  52.430  1.00  0.00     0.011 A 
ENDBRANCH   6  13
ENDBRANCH   5   6
ENDBRANCH   2   5
BRANCH   1  20
HETATM   20  C   UNL     1      23.715  46.288  49.521  1.00  0.00     0.144 C 
BRANCH  20  21
HETATM   21  C   UNL     1      23.816  47.753  49.243  1.00  0.00    -0.014 A 
HETATM   22  C   UNL     1      22.746  48.658  48.958  1.00  0.00     0.006 A 
HETATM   23  C   UNL     1      23.314  49.924  48.912  1.00  0.00     0.088 A 
HETATM   24  C   UNL     1      21.353  48.544  48.797  1.00  0.00     0.017 A 
HETATM   25  C   UNL     1      22.595  51.109  48.753  1.00  0.00     0.074 A 
HETATM   26  O   UNL     1      24.663  49.836  49.074  1.00  0.00    -0.321 OA
HETATM   27  C   UNL     1      21.206  50.982  48.649  1.00  0.00     0.070 A 
HETATM   28  C   UNL     1      20.602  49.718  48.652  1.00  0.00     0.038 A 
HETATM   29  C   UNL     1      24.962  48.524  49.246  1.00  0.00     0.151 A 
BRANCH  27  30
HETATM   30  O   UNL     1      20.319  52.022  48.543  1.00  0.00    -0.356 OA
HETATM   31  C   UNL     1      19.001  51.706  48.114  1.00  0.00     0.210 C 
ENDBRANCH  27  30
ENDBRANCH  20  21
ENDBRANCH   1  20
TORSDOF 7
ENDMDL
MODEL 5
REMARK VINA RESULT:      -6.8      2.441      6.577
REMARK  7 active torsions:
REMARK  status: ('A' for Active; 'I' for Inactive)
REMARK    1  A    between atoms: O_2  and  C_3 
REMARK    2  A    between atoms: C_7  and  C_8 
REMARK    3  A    between atoms: C_8  and  C_9 
REMARK       I    between atoms: C_9  and  N_10 
REMARK    4  A    between atoms: N_10  and  C_11 
REMARK    5  A    between atoms: C_11  and  C_12 
REMARK    6  A    between atoms: C_12  and  N_13 
REMARK    7  A    between atoms: C_12  and  C_19 
ROOT
HETATM    1  C   UNL     1      28.611  52.355  40.716  1.00  0.00     0.222 C 
HETATM    2  N   UNL     1      28.559  51.213  39.939  1.00  0.00    -0.358 N 
HETATM    3  O   UNL     1      27.631  52.705  41.371  1.00  0.00    -0.273 OA
HETATM    4  H   UNL     1      29.442  50.856  39.594  1.00  0.00     0.162 HD
ENDROOT
BRANCH   2   5
HETATM    5  C   UNL     1      27.501  50.232  40.112  1.00  0.00     0.160 C 
BRANCH   5   6
HETATM    6  C   UNL     1      27.812  48.949  40.957  1.00  0.00     0.240 C 
BRANCH   6   7
HETATM    7  N   UNL     1      27.081  47.698  40.441  1.00  0.00    -0.061 N 
HETATM    8  H   UNL     1      27.616  47.436  39.602  1.00  0.00     0.280 HD
HETATM    9  C   UNL     1      25.650  47.855  39.995  1.00  0.00     0.236 C 
HETATM   10  C   UNL     1      24.861  47.011  40.973  1.00  0.00     0.029 C 
HETATM   11  C   UNL     1      25.787  45.841  41.241  1.00  0.00     0.029 C 
HETATM   12  C   UNL     1      27.164  46.471  41.327  1.00  0.00     0.236 C 
ENDBRANCH   6   7
BRANCH   6  13
HETATM   13  C   UNL     1      29.312  48.663  41.093  1.00  0.00    -0.004 A 
HETATM   14  C   UNL     1      30.057  48.188  39.993  1.00  0.00     0.042 A 
HETATM   15 CL   UNL     1      29.332  47.968  38.438  1.00  0.00    -0.084 Cl
HETATM   16  C   UNL     1      31.424  47.915  40.104  1.00  0.00     0.024 A 
HETATM   17  C   UNL     1      32.082  48.119  41.314  1.00  0.00     0.002 A 
HETATM   18  C   UNL     1      31.375  48.600  42.409  1.00  0.00     0.001 A 
HETATM   19  C   UNL     1      30.009  48.874  42.301  1.00  0.00     0.011 A 
ENDBRANCH   6  13
ENDBRANCH   5   6
ENDBRANCH   2   5
BRANCH   1  20
HETATM   20  C   UNL     1      29.933  53.128  40.741  1.00  0.00     0.144 C 
BRANCH  20  21
HETATM   21  C   UNL     1      30.949  52.542  41.666  1.00  0.00    -0.014 A 
HETATM   22  C   UNL     1      32.196  51.935  41.314  1.00  0.00     0.006 A 
HETATM   23  C   UNL     1      32.849  51.674  42.510  1.00  0.00     0.088 A 
HETATM   24  C   UNL     1      32.861  51.638  40.111  1.00  0.00     0.017 A 
HETATM   25  C   UNL     1      34.145  51.168  42.610  1.00  0.00     0.074 A 
HETATM   26  O   UNL     1      32.051  52.012  43.560  1.00  0.00    -0.321 OA
HETATM   27  C   UNL     1      34.812  50.929  41.405  1.00  0.00     0.070 A 
HETATM   28  C   UNL     1      34.170  51.143  40.179  1.00  0.00     0.038 A 
HETATM   29  C   UNL     1      30.898  52.510  43.045  1.00  0.00     0.151 A 
BRANCH  27  30
HETATM   30  O   UNL     1      36.104  50.487  41.286  1.00  0.00    -0.356 OA
HETATM   31  C   UNL     1      36.913  50.538  42.455  1.00  0.00     0.210 C 
ENDBRANCH  27  30
ENDBRANCH  20  21
ENDBRANCH   1  20
TORSDOF 7
ENDMDL
MODEL 6
REMARK VINA RESULT:      -6.7     11.675     13.585
REMARK  7 active torsions:
REMARK  status: ('A' for Active; 'I' for Inactive)
REMARK    1  A    between atoms: O_2  and  C_3 
REMARK    2  A    between atoms: C_7  and  C_8 
REMARK    3  A    between atoms: C_8  and  C_9 
REMARK       I    between atoms: C_9  and  N_10 
REMARK    4  A    between atoms: N_10  and  C_11 
REMARK    5  A    between atoms: C_11  and  C_12 
REMARK    6  A    between atoms: C_12  and  N_13 
REMARK    7  A    between atoms: C_12  and  C_19 
ROOT
HETATM    1  C   UNL     1      24.986  47.245  49.885  1.00  0.00     0.222 C 
HETATM    2  N   UNL     1      25.080  47.094  51.256  1.00  0.00    -0.358 N 
HETATM    3  O   UNL     1      26.003  47.289  49.195  1.00  0.00    -0.273 OA
HETATM    4  H   UNL     1      24.227  46.853  51.747  1.00  0.00     0.162 HD
ENDROOT
BRANCH   2   5
HETATM    5  C   UNL     1      26.318  46.665  51.884  1.00  0.00     0.160 C 
BRANCH   5   6
HETATM    6  C   UNL     1      26.281  45.393  52.799  1.00  0.00     0.240 C 
BRANCH   6   7
HETATM    7  N   UNL     1      26.334  44.078  52.002  1.00  0.00    -0.061 N 
HETATM    8  H   UNL     1      26.719  43.403  52.677  1.00  0.00     0.280 HD
HETATM    9  C   UNL     1      27.234  44.025  50.795  1.00  0.00     0.236 C 
HETATM   10  C   UNL     1      26.284  43.834  49.632  1.00  0.00     0.029 C 
HETATM   11  C   UNL     1      25.204  42.944  50.214  1.00  0.00     0.029 C 
HETATM   12  C   UNL     1      24.994  43.486  51.615  1.00  0.00     0.236 C 
ENDBRANCH   6   7
BRANCH   6  13
HETATM   13  C   UNL     1      27.367  45.395  53.882  1.00  0.00    -0.004 A 
HETATM   14  C   UNL     1      27.433  46.436  54.833  1.00  0.00     0.042 A 
HETATM   15 CL   UNL     1      26.265  47.711  54.859  1.00  0.00    -0.084 Cl
HETATM   16  C   UNL     1      28.421  46.456  55.822  1.00  0.00     0.024 A 
HETATM   17  C   UNL     1      29.363  45.433  55.890  1.00  0.00     0.002 A 
HETATM   18  C   UNL     1      29.312  44.389  54.975  1.00  0.00     0.001 A 
HETATM   19  C   UNL     1      28.325  44.366  53.985  1.00  0.00     0.011 A 
ENDBRANCH   6  13
ENDBRANCH   5   6
ENDBRANCH   2   5
BRANCH   1  20
HETATM   20  C   UNL     1      23.582  47.323  49.281  1.00  0.00     0.144 C 
BRANCH  20  21
HETATM   21  C   UNL     1      23.145  48.717  48.967  1.00  0.00    -0.014 A 
HETATM   22  C   UNL     1      21.804  49.194  48.819  1.00  0.00     0.006 A 
HETATM   23  C   UNL     1      21.898  50.571  48.674  1.00  0.00     0.088 A 
HETATM   24  C   UNL     1      20.524  48.612  48.855  1.00  0.00     0.017 A 
HETATM   25  C   UNL     1      20.806  51.435  48.596  1.00  0.00     0.074 A 
HETATM   26  O   UNL     1      23.206  50.949  48.648  1.00  0.00    -0.321 OA
HETATM   27  C   UNL     1      19.541  50.846  48.688  1.00  0.00     0.070 A 
HETATM   28  C   UNL     1      19.407  49.456  48.796  1.00  0.00     0.038 A 
HETATM   29  C   UNL     1      23.952  49.825  48.799  1.00  0.00     0.151 A 
BRANCH  27  30
HETATM   30  O   UNL     1      18.349  51.522  48.689  1.00  0.00    -0.356 OA
HETATM   31  C   UNL     1      17.455  51.252  49.761  1.00  0.00     0.210 C 
ENDBRANCH  27  30
ENDBRANCH  20  21
ENDBRANCH   1  20
TORSDOF 7
ENDMDL
MODEL 7
REMARK VINA RESULT:      -6.7     25.520     27.162
REMARK  7 active torsions:
REMARK  status: ('A' for Active; 'I' for Inactive)
REMARK    1  A    between atoms: O_2  and  C_3 
REMARK    2  A    between atoms: C_7  and  C_8 
REMARK    3  A    between atoms: C_8  and  C_9 
REMARK       I    between atoms: C_9  and  N_10 
REMARK    4  A    between atoms: N_10  and  C_11 
REMARK    5  A    between atoms: C_11  and  C_12 
REMARK    6  A    between atoms: C_12  and  N_13 
REMARK    7  A    between atoms: C_12  and  C_19 
ROOT
HETATM    1  C   UNL     1      35.849  42.991  65.167  1.00  0.00     0.222 C 
HETATM    2  N   UNL     1      36.573  43.249  64.019  1.00  0.00    -0.358 N 
HETATM    3  O   UNL     1      35.928  41.894  65.717  1.00  0.00    -0.273 OA
HETATM    4  H   UNL     1      36.639  44.218  63.730  1.00  0.00     0.162 HD
ENDROOT
BRANCH   2   5
HETATM    5  C   UNL     1      37.670  42.388  63.611  1.00  0.00     0.160 C 
BRANCH   5   6
HETATM    6  C   UNL     1      38.966  42.373  64.493  1.00  0.00     0.240 C 
BRANCH   6   7
HETATM    7  N   UNL     1      40.064  41.453  63.932  1.00  0.00    -0.061 N 
HETATM    8  H   UNL     1      40.652  42.090  63.378  1.00  0.00     0.280 HD
HETATM    9  C   UNL     1      39.644  40.349  62.996  1.00  0.00     0.236 C 
HETATM   10  C   UNL     1      39.987  39.078  63.743  1.00  0.00     0.029 C 
HETATM   11  C   UNL     1      41.262  39.445  64.477  1.00  0.00     0.029 C 
HETATM   12  C   UNL     1      41.019  40.866  64.952  1.00  0.00     0.236 C 
ENDBRANCH   6   7
BRANCH   6  13
HETATM   13  C   UNL     1      39.535  43.772  64.756  1.00  0.00    -0.004 A 
HETATM   14  C   UNL     1      39.563  44.304  66.063  1.00  0.00     0.042 A 
HETATM   15 CL   UNL     1      39.018  43.387  67.424  1.00  0.00    -0.084 Cl
HETATM   16  C   UNL     1      40.072  45.581  66.317  1.00  0.00     0.024 A 
HETATM   17  C   UNL     1      40.575  46.354  65.274  1.00  0.00     0.002 A 
HETATM   18  C   UNL     1      40.573  45.849  63.981  1.00  0.00     0.001 A 
HETATM   19  C   UNL     1      40.065  44.572  63.723  1.00  0.00     0.011 A 
ENDBRANCH   6  13
ENDBRANCH   5   6
ENDBRANCH   2   5
BRANCH   1  20
HETATM   20  C   UNL     1      34.984  44.126  65.723  1.00  0.00     0.144 C 
BRANCH  20  21
HETATM   21  C   UNL     1      35.763  45.154  66.477  1.00  0.00    -0.014 A 
HETATM   22  C   UNL     1      36.408  46.316  65.947  1.00  0.00     0.006 A 
HETATM   23  C   UNL     1      36.875  47.030  67.042  1.00  0.00     0.088 A 
HETATM   24  C   UNL     1      36.588  46.864  64.665  1.00  0.00     0.017 A 
HETATM   25  C   UNL     1      37.485  48.283  66.968  1.00  0.00     0.074 A 
HETATM   26  O   UNL     1      36.624  46.343  68.190  1.00  0.00    -0.321 OA
HETATM   27  C   UNL     1      37.608  48.838  65.690  1.00  0.00     0.070 A 
HETATM   28  C   UNL     1      37.183  48.129  64.560  1.00  0.00     0.038 A 
HETATM   29  C   UNL     1      35.978  45.201  67.841  1.00  0.00     0.151 A 
BRANCH  27  30
HETATM   30  O   UNL     1      38.124  50.076  65.408  1.00  0.00    -0.356 OA
HETATM   31  C   UNL     1      37.738  51.146  66.262  1.00  0.00     0.210 C 
ENDBRANCH  27  30
ENDBRANCH  20  21
ENDBRANCH   1  20
TORSDOF 7
ENDMDL
MODEL 8
REMARK VINA RESULT:      -6.7      2.372      4.345
REMARK  7 active torsions:
REMARK  status: ('A' for Active; 'I' for Inactive)
REMARK    1  A    between atoms: O_2  and  C_3 
REMARK    2  A    between atoms: C_7  and  C_8 
REMARK    3  A    between atoms: C_8  and  C_9 
REMARK       I    between atoms: C_9  and  N_10 
REMARK    4  A    between atoms: N_10  and  C_11 
REMARK    5  A    between atoms: C_11  and  C_12 
REMARK    6  A    between atoms: C_12  and  N_13 
REMARK    7  A    between atoms: C_12  and  C_19 
ROOT
HETATM    1  C   UNL     1      31.111  47.977  39.352  1.00  0.00     0.222 C 
HETATM    2  N   UNL     1      31.483  49.280  39.081  1.00  0.00    -0.358 N 
HETATM    3  O   UNL     1      31.638  47.361  40.277  1.00  0.00    -0.273 OA
HETATM    4  H   UNL     1      30.879  49.806  38.460  1.00  0.00     0.162 HD
ENDROOT
BRANCH   2   5
HETATM    5  C   UNL     1      32.243  50.062  40.041  1.00  0.00     0.160 C 
BRANCH   5   6
HETATM    6  C   UNL     1      31.533  50.497  41.368  1.00  0.00     0.240 C 
BRANCH   6   7
HETATM    7  N   UNL     1      32.305  51.585  42.134  1.00  0.00    -0.061 N 
HETATM    8  H   UNL     1      31.842  52.458  41.845  1.00  0.00     0.280 HD
HETATM    9  C   UNL     1      33.768  51.762  41.817  1.00  0.00     0.236 C 
HETATM   10  C   UNL     1      34.474  51.391  43.104  1.00  0.00     0.029 C 
HETATM   11  C   UNL     1      33.531  51.906  44.173  1.00  0.00     0.029 C 
HETATM   12  C   UNL     1      32.150  51.569  43.641  1.00  0.00     0.236 C 
ENDBRANCH   6   7
BRANCH   6  13
HETATM   13  C   UNL     1      30.078  50.933  41.162  1.00  0.00    -0.004 A 
HETATM   14  C   UNL     1      29.013  50.121  41.609  1.00  0.00     0.042 A 
HETATM   15 CL   UNL     1      29.299  48.642  42.458  1.00  0.00    -0.084 Cl
HETATM   16  C   UNL     1      27.680  50.502  41.421  1.00  0.00     0.024 A 
HETATM   17  C   UNL     1      27.379  51.705  40.789  1.00  0.00     0.002 A 
HETATM   18  C   UNL     1      28.408  52.530  40.352  1.00  0.00     0.001 A 
HETATM   19  C   UNL     1      29.741  52.153  40.539  1.00  0.00     0.011 A 
ENDBRANCH   6  13
ENDBRANCH   5   6
ENDBRANCH   2   5
BRANCH   1  20
HETATM   20  C   UNL     1      30.011  47.364  38.481  1.00  0.00     0.144 C 
BRANCH  20  21
HETATM   21  C   UNL     1      28.676  47.321  39.149  1.00  0.00    -0.014 A 
HETATM   22  C   UNL     1      27.528  48.122  38.849  1.00  0.00     0.006 A 
HETATM   23  C   UNL     1      26.496  47.624  39.632  1.00  0.00     0.088 A 
HETATM   24  C   UNL     1      27.244  49.169  37.955  1.00  0.00     0.017 A 
HETATM   25  C   UNL     1      25.174  48.066  39.573  1.00  0.00     0.074 A 
HETATM   26  O   UNL     1      26.959  46.630  40.438  1.00  0.00    -0.321 OA
HETATM   27  C   UNL     1      24.898  49.071  38.640  1.00  0.00     0.070 A 
HETATM   28  C   UNL     1      25.922  49.624  37.861  1.00  0.00     0.038 A 
HETATM   29  C   UNL     1      28.278  46.470  40.162  1.00  0.00     0.151 A 
BRANCH  27  30
HETATM   30  O   UNL     1      23.659  49.601  38.388  1.00  0.00    -0.356 OA
HETATM   31  C   UNL     1      22.965  50.173  39.490  1.00  0.00     0.210 C 
ENDBRANCH  27  30
ENDBRANCH  20  21
ENDBRANCH   1  20
TORSDOF 7
ENDMDL
MODEL 9
REMARK VINA RESULT:      -6.6     12.797     15.056
REMARK  7 active torsions:
REMARK  status: ('A' for Active; 'I' for Inactive)
REMARK    1  A    between atoms: O_2  and  C_3 
REMARK    2  A    between atoms: C_7  and  C_8 
REMARK    3  A    between atoms: C_8  and  C_9 
REMARK       I    between atoms: C_9  and  N_10 
REMARK    4  A    between atoms: N_10  and  C_11 
REMARK    5  A    between atoms: C_11  and  C_12 
REMARK    6  A    between atoms: C_12  and  N_13 
REMARK    7  A    between atoms: C_12  and  C_19 
ROOT
HETATM    1  C   UNL     1      28.239  41.593  51.348  1.00  0.00     0.222 C 
HETATM    2  N   UNL     1      28.473  42.802  51.975  1.00  0.00    -0.358 N 
HETATM    3  O   UNL     1      28.630  40.544  51.856  1.00  0.00    -0.273 OA
HETATM    4  H   UNL     1      27.955  43.602  51.631  1.00  0.00     0.162 HD
ENDROOT
BRANCH   2   5
HETATM    5  C   UNL     1      28.882  42.861  53.368  1.00  0.00     0.160 C 
BRANCH   5   6
HETATM    6  C   UNL     1      28.901  44.259  54.075  1.00  0.00     0.240 C 
BRANCH   6   7
HETATM    7  N   UNL     1      27.492  44.805  54.365  1.00  0.00    -0.061 N 
HETATM    8  H   UNL     1      27.620  45.356  55.225  1.00  0.00     0.280 HD
HETATM    9  C   UNL     1      26.401  43.809  54.663  1.00  0.00     0.236 C 
HETATM   10  C   UNL     1      25.427  43.971  53.515  1.00  0.00     0.029 C 
HETATM   11  C   UNL     1      25.482  45.458  53.226  1.00  0.00     0.029 C 
HETATM   12  C   UNL     1      26.953  45.807  53.364  1.00  0.00     0.236 C 
ENDBRANCH   6   7
BRANCH   6  13
HETATM   13  C   UNL     1      29.746  44.279  55.354  1.00  0.00    -0.004 A 
HETATM   14  C   UNL     1      29.658  45.359  56.259  1.00  0.00     0.042 A 
HETATM   15 CL   UNL     1      28.556  46.667  56.000  1.00  0.00    -0.084 Cl
HETATM   16  C   UNL     1      30.427  45.395  57.426  1.00  0.00     0.024 A 
HETATM   17  C   UNL     1      31.298  44.350  57.721  1.00  0.00     0.002 A 
HETATM   18  C   UNL     1      31.394  43.268  56.855  1.00  0.00     0.001 A 
HETATM   19  C   UNL     1      30.625  43.229  55.688  1.00  0.00     0.011 A 
ENDBRANCH   6  13
ENDBRANCH   5   6
ENDBRANCH   2   5
BRANCH   1  20
HETATM   20  C   UNL     1      27.459  41.624  50.030  1.00  0.00     0.144 C 
BRANCH  20  21
HETATM   21  C   UNL     1      26.673  42.879  49.833  1.00  0.00    -0.014 A 
HETATM   22  C   UNL     1      25.266  42.993  49.599  1.00  0.00     0.006 A 
HETATM   23  C   UNL     1      24.981  44.352  49.622  1.00  0.00     0.088 A 
HETATM   24  C   UNL     1      24.201  42.090  49.432  1.00  0.00     0.017 A 
HETATM   25  C   UNL     1      23.698  44.893  49.528  1.00  0.00     0.074 A 
HETATM   26  O   UNL     1      26.129  45.067  49.779  1.00  0.00    -0.321 OA
HETATM   27  C   UNL     1      22.646  43.978  49.417  1.00  0.00     0.070 A 
HETATM   28  C   UNL     1      22.900  42.603  49.351  1.00  0.00     0.038 A 
HETATM   29  C   UNL     1      27.147  44.175  49.878  1.00  0.00     0.151 A 
BRANCH  27  30
HETATM   30  O   UNL     1      21.315  44.302  49.369  1.00  0.00    -0.356 OA
HETATM   31  C   UNL     1      20.949  45.410  48.557  1.00  0.00     0.210 C 
ENDBRANCH  27  30
ENDBRANCH  20  21
ENDBRANCH   1  20
TORSDOF 7
ENDMDL
MODEL 10
REMARK VINA RESULT:      -6.6     12.258     14.950
REMARK  7 active torsions:
REMARK  status: ('A' for Active; 'I' for Inactive)
REMARK    1  A    between atoms: O_2  and  C_3 
REMARK    2  A    between atoms: C_7  and  C_8 
REMARK    3  A    between atoms: C_8  and  C_9 
REMARK       I    between atoms: C_9  and  N_10 
REMARK    4  A    between atoms: N_10  and  C_11 
REMARK    5  A    between atoms: C_11  and  C_12 
REMARK    6  A    between atoms: C_12  and  N_13 
REMARK    7  A    between atoms: C_12  and  C_19 
ROOT
HETATM    1  C   UNL     1      25.019  47.061  50.798  1.00  0.00     0.222 C 
HETATM    2  N   UNL     1      23.834  47.088  50.086  1.00  0.00    -0.358 N 
HETATM    3  O   UNL     1      25.882  47.914  50.600  1.00  0.00    -0.273 OA
HETATM    4  H   UNL     1      23.082  46.503  50.430  1.00  0.00     0.162 HD
ENDROOT
BRANCH   2   5
HETATM    5  C   UNL     1      23.432  48.268  49.340  1.00  0.00     0.160 C 
BRANCH   5   6
HETATM    6  C   UNL     1      21.901  48.502  49.096  1.00  0.00     0.240 C 
BRANCH   6   7
HETATM    7  N   UNL     1      21.607  49.803  48.330  1.00  0.00    -0.061 N 
HETATM    8  H   UNL     1      22.403  49.888  47.684  1.00  0.00     0.280 HD
HETATM    9  C   UNL     1      21.567  51.087  49.119  1.00  0.00     0.236 C 
HETATM   10  C   UNL     1      20.133  51.556  48.994  1.00  0.00     0.029 C 
HETATM   11  C   UNL     1      19.759  51.142  47.585  1.00  0.00     0.029 C 
HETATM   12  C   UNL     1      20.397  49.775  47.419  1.00  0.00     0.236 C 
ENDBRANCH   6   7
BRANCH   6  13
HETATM   13  C   UNL     1      21.210  47.319  48.407  1.00  0.00    -0.004 A 
HETATM   14  C   UNL     1      19.898  46.942  48.767  1.00  0.00     0.042 A 
HETATM   15 CL   UNL     1      18.996  47.828  49.946  1.00  0.00    -0.084 Cl
HETATM   16  C   UNL     1      19.258  45.862  48.153  1.00  0.00     0.024 A 
HETATM   17  C   UNL     1      19.909  45.136  47.158  1.00  0.00     0.002 A 
HETATM   18  C   UNL     1      21.195  45.495  46.774  1.00  0.00     0.001 A 
HETATM   19  C   UNL     1      21.837  46.575  47.386  1.00  0.00     0.011 A 
ENDBRANCH   6  13
ENDBRANCH   5   6
ENDBRANCH   2   5
BRANCH   1  20
HETATM   20  C   UNL     1      25.184  45.955  51.844  1.00  0.00     0.144 C 
BRANCH  20  21
HETATM   21  C   UNL     1      25.901  46.402  53.076  1.00  0.00    -0.014 A 
HETATM   22  C   UNL     1      26.962  45.726  53.756  1.00  0.00     0.006 A 
HETATM   23  C   UNL     1      27.394  46.591  54.753  1.00  0.00     0.088 A 
HETATM   24  C   UNL     1      27.639  44.504  53.593  1.00  0.00     0.017 A 
HETATM   25  C   UNL     1      28.483  46.352  55.591  1.00  0.00     0.074 A 
HETATM   26  O   UNL     1      26.617  47.708  54.769  1.00  0.00    -0.321 OA
HETATM   27  C   UNL     1      29.179  45.157  55.379  1.00  0.00     0.070 A 
HETATM   28  C   UNL     1      28.748  44.243  54.409  1.00  0.00     0.038 A 
HETATM   29  C   UNL     1      25.703  47.577  53.774  1.00  0.00     0.151 A 
BRANCH  27  30
HETATM   30  O   UNL     1      30.304  44.763  56.054  1.00  0.00    -0.356 OA
HETATM   31  C   UNL     1      30.833  43.482  55.736  1.00  0.00     0.210 C 
ENDBRANCH  27  30
ENDBRANCH  20  21
ENDBRANCH   1  20
TORSDOF 7
ENDMDL
