MODEL 1
REMARK VINA RESULT:      -9.6      0.000      0.000
REMARK  3 active torsions:
REMARK  status: ('A' for Active; 'I' for Inactive)
REMARK    1  A    between atoms: C_4  and  C_5 
REMARK    2  A    between atoms: C_9  and  C_10 
REMARK       I    between atoms: C_10  and  N_11 
REMARK    3  A    between atoms: N_11  and  N_12 
ROOT
HETATM    1  C   UNL     1      26.575  45.439  50.803  1.00  0.00     0.289 C 
HETATM    2  N   UNL     1      26.552  45.329  52.184  1.00  0.00    -0.241 N 
HETATM    3  O   UNL     1      27.428  44.920  50.087  1.00  0.00    -0.264 OA
HETATM    4  H   UNL     1      25.823  45.779  52.734  1.00  0.00     0.192 HD
ENDROOT
BRANCH   1   5
HETATM    5  C   UNL     1      25.509  46.223  50.232  1.00  0.00     0.121 A 
HETATM    6  N   UNL     1      24.396  45.612  49.719  1.00  0.00    -0.272 N 
HETATM    7  N   UNL     1      23.482  46.458  49.219  1.00  0.00    -0.172 NA
HETATM    8  H   UNL     1      24.215  44.613  49.688  1.00  0.00     0.189 HD
HETATM    9  C   UNL     1      24.026  47.665  49.417  1.00  0.00     0.113 A 
HETATM   10  C   UNL     1      25.290  47.575  50.046  1.00  0.00     0.073 A 
BRANCH   9  11
HETATM   11  C   UNL     1      23.347  48.929  49.008  1.00  0.00     0.106 A 
HETATM   12  O   UNL     1      22.120  49.338  49.457  1.00  0.00    -0.313 OA
HETATM   13  C   UNL     1      21.846  50.532  48.859  1.00  0.00     0.050 A 
HETATM   14  C   UNL     1      20.558  51.167  49.201  1.00  0.00     0.076 C 
HETATM   15  C   UNL     1      22.882  50.899  48.030  1.00  0.00     0.035 A 
HETATM   16  C   UNL     1      23.847  49.867  48.125  1.00  0.00     0.042 A 
ENDBRANCH   9  11
ENDBRANCH   1   5
BRANCH   2  17
HETATM   17  N   UNL     1      27.522  44.607  52.827  1.00  0.00    -0.165 NA
HETATM   18  C   UNL     1      28.053  45.142  53.878  1.00  0.00     0.157 A 
HETATM   19  C   UNL     1      27.746  46.498  54.519  1.00  0.00     0.277 A 
HETATM   20  C   UNL     1      29.095  44.540  54.699  1.00  0.00     0.027 A 
HETATM   21  O   UNL     1      26.922  47.286  54.103  1.00  0.00    -0.266 OA
HETATM   22  N   UNL     1      28.583  46.590  55.609  1.00  0.00    -0.321 N 
HETATM   23  C   UNL     1      29.374  45.448  55.719  1.00  0.00     0.048 A 
HETATM   24  H   UNL     1      28.603  47.386  56.230  1.00  0.00     0.169 HD
HETATM   25  C   UNL     1      30.326  45.175  56.677  1.00  0.00     0.030 A 
HETATM   26  C   UNL     1      31.001  43.951  56.582  1.00  0.00     0.002 A 
HETATM   27  C   UNL     1      30.714  43.037  55.546  1.00  0.00     0.001 A 
HETATM   28  C   UNL     1      29.746  43.329  54.583  1.00  0.00     0.016 A 
ENDBRANCH   2  17
TORSDOF 3
ENDMDL
MODEL 2
REMARK VINA RESULT:      -9.5      1.205      1.599
REMARK  3 active torsions:
REMARK  status: ('A' for Active; 'I' for Inactive)
REMARK    1  A    between atoms: C_4  and  C_5 
REMARK    2  A    between atoms: C_9  and  C_10 
REMARK       I    between atoms: C_10  and  N_11 
REMARK    3  A    between atoms: N_11  and  N_12 
ROOT
HETATM    1  C   UNL     1      26.993  44.377  51.743  1.00  0.00     0.289 C 
HETATM    2  N   UNL     1      27.374  44.953  52.944  1.00  0.00    -0.241 N 
HETATM    3  O   UNL     1      27.529  43.383  51.258  1.00  0.00    -0.264 OA
HETATM    4  H   UNL     1      26.898  45.777  53.306  1.00  0.00     0.192 HD
ENDROOT
BRANCH   1   5
HETATM    5  C   UNL     1      25.898  45.028  51.071  1.00  0.00     0.121 A 
HETATM    6  N   UNL     1      24.776  44.322  50.725  1.00  0.00    -0.272 N 
HETATM    7  N   UNL     1      23.834  45.049  50.105  1.00  0.00    -0.172 NA
HETATM    8  H   UNL     1      24.608  43.334  50.894  1.00  0.00     0.189 HD
HETATM    9  C   UNL     1      24.368  46.275  50.046  1.00  0.00     0.113 A 
HETATM   10  C   UNL     1      25.654  46.317  50.635  1.00  0.00     0.073 A 
BRANCH   9  11
HETATM   11  C   UNL     1      23.658  47.431  49.426  1.00  0.00     0.106 A 
HETATM   12  O   UNL     1      23.872  48.745  49.748  1.00  0.00    -0.313 OA
HETATM   13  C   UNL     1      23.039  49.495  48.972  1.00  0.00     0.050 A 
HETATM   14  C   UNL     1      23.101  50.958  49.152  1.00  0.00     0.076 C 
HETATM   15  C   UNL     1      22.291  48.680  48.151  1.00  0.00     0.035 A 
HETATM   16  C   UNL     1      22.689  47.353  48.444  1.00  0.00     0.042 A 
ENDBRANCH   9  11
ENDBRANCH   1   5
BRANCH   2  17
HETATM   17  N   UNL     1      28.406  44.412  53.663  1.00  0.00    -0.165 NA
HETATM   18  C   UNL     1      28.690  44.971  54.795  1.00  0.00     0.157 A 
HETATM   19  C   UNL     1      28.021  46.178  55.459  1.00  0.00     0.277 A 
HETATM   20  C   UNL     1      29.747  44.550  55.705  1.00  0.00     0.027 A 
HETATM   21  O   UNL     1      27.092  46.797  54.987  1.00  0.00    -0.266 OA
HETATM   22  N   UNL     1      28.696  46.368  56.645  1.00  0.00    -0.321 N 
HETATM   23  C   UNL     1      29.706  45.419  56.794  1.00  0.00     0.048 A 
HETATM   24  H   UNL     1      28.472  47.101  57.302  1.00  0.00     0.169 HD
HETATM   25  C   UNL     1      30.588  45.289  57.845  1.00  0.00     0.030 A 
HETATM   26  C   UNL     1      31.525  44.250  57.773  1.00  0.00     0.002 A 
HETATM   27  C   UNL     1      31.561  43.375  56.667  1.00  0.00     0.001 A 
HETATM   28  C   UNL     1      30.660  43.520  55.610  1.00  0.00     0.016 A 
ENDBRANCH   2  17
TORSDOF 3
ENDMDL
MODEL 3
REMARK VINA RESULT:      -9.4      1.296      1.722
REMARK  3 active torsions:
REMARK  status: ('A' for Active; 'I' for Inactive)
REMARK    1  A    between atoms: C_4  and  C_5 
REMARK    2  A    between atoms: C_9  and  C_10 
REMARK       I    between atoms: C_10  and  N_11 
REMARK    3  A    between atoms: N_11  and  N_12 
ROOT
HETATM    1  C   UNL     1      25.672  46.182  49.929  1.00  0.00     0.289 C 
HETATM    2  N   UNL     1      25.574  45.253  50.952  1.00  0.00    -0.241 N 
HETATM    3  O   UNL     1      26.706  46.410  49.306  1.00  0.00    -0.264 OA
HETATM    4  H   UNL     1      24.693  45.100  51.440  1.00  0.00     0.192 HD
ENDROOT
BRANCH   1   5
HETATM    5  C   UNL     1      24.455  46.891  49.625  1.00  0.00     0.121 A 
HETATM    6  N   UNL     1      23.335  46.210  49.227  1.00  0.00    -0.272 N 
HETATM    7  N   UNL     1      22.273  46.991  48.976  1.00  0.00    -0.172 NA
HETATM    8  H   UNL     1      23.248  45.204  49.112  1.00  0.00     0.189 HD
HETATM    9  C   UNL     1      22.724  48.228  49.221  1.00  0.00     0.113 A 
HETATM   10  C   UNL     1      24.079  48.221  49.630  1.00  0.00     0.073 A 
BRANCH   9  11
HETATM   11  C   UNL     1      21.868  49.440  49.070  1.00  0.00     0.106 A 
HETATM   12  O   UNL     1      20.694  49.657  49.741  1.00  0.00    -0.313 OA
HETATM   13  C   UNL     1      20.213  50.867  49.335  1.00  0.00     0.050 A 
HETATM   14  C   UNL     1      18.940  51.311  49.936  1.00  0.00     0.076 C 
HETATM   15  C   UNL     1      21.063  51.433  48.412  1.00  0.00     0.035 A 
HETATM   16  C   UNL     1      22.127  50.515  48.241  1.00  0.00     0.042 A 
ENDBRANCH   9  11
ENDBRANCH   1   5
BRANCH   2  17
HETATM   17  N   UNL     1      26.673  44.525  51.321  1.00  0.00    -0.165 NA
HETATM   18  C   UNL     1      27.168  44.762  52.493  1.00  0.00     0.157 A 
HETATM   19  C   UNL     1      26.689  45.761  53.549  1.00  0.00     0.277 A 
HETATM   20  C   UNL     1      28.330  44.099  53.070  1.00  0.00     0.027 A 
HETATM   21  O   UNL     1      25.734  46.498  53.417  1.00  0.00    -0.266 OA
HETATM   22  N   UNL     1      27.554  45.621  54.611  1.00  0.00    -0.321 N 
HETATM   23  C   UNL     1      28.516  44.650  54.337  1.00  0.00     0.048 A 
HETATM   24  H   UNL     1      27.483  46.159  55.463  1.00  0.00     0.169 HD
HETATM   25  C   UNL     1      29.546  44.234  55.152  1.00  0.00     0.030 A 
HETATM   26  C   UNL     1      30.395  43.236  54.657  1.00  0.00     0.002 A 
HETATM   27  C   UNL     1      30.200  42.682  53.374  1.00  0.00     0.001 A 
HETATM   28  C   UNL     1      29.152  43.116  52.560  1.00  0.00     0.016 A 
ENDBRANCH   2  17
TORSDOF 3
ENDMDL
MODEL 4
REMARK VINA RESULT:      -9.2      2.069      9.077
REMARK  3 active torsions:
REMARK  status: ('A' for Active; 'I' for Inactive)
REMARK    1  A    between atoms: C_4  and  C_5 
REMARK    2  A    between atoms: C_9  and  C_10 
REMARK       I    between atoms: C_10  and  N_11 
REMARK    3  A    between atoms: N_11  and  N_12 
ROOT
HETATM    1  C   UNL     1      25.274  44.965  51.865  1.00  0.00     0.289 C 
HETATM    2  N   UNL     1      25.381  46.205  51.256  1.00  0.00    -0.241 N 
HETATM    3  O   UNL     1      24.253  44.281  51.854  1.00  0.00    -0.264 OA
HETATM    4  H   UNL     1      26.251  46.734  51.293  1.00  0.00     0.192 HD
ENDROOT
BRANCH   1   5
HETATM    5  C   UNL     1      26.464  44.505  52.535  1.00  0.00     0.121 A 
HETATM    6  N   UNL     1      27.119  43.385  52.096  1.00  0.00    -0.272 N 
HETATM    7  N   UNL     1      28.211  43.068  52.809  1.00  0.00    -0.172 NA
HETATM    8  H   UNL     1      26.855  42.800  51.308  1.00  0.00     0.189 HD
HETATM    9  C   UNL     1      28.265  44.022  53.747  1.00  0.00     0.113 A 
HETATM   10  C   UNL     1      27.198  44.944  53.620  1.00  0.00     0.073 A 
BRANCH   9  11
HETATM   11  C   UNL     1      29.337  44.071  54.783  1.00  0.00     0.106 A 
HETATM   12  O   UNL     1      29.371  44.949  55.832  1.00  0.00    -0.313 OA
HETATM   13  C   UNL     1      30.499  44.681  56.551  1.00  0.00     0.050 A 
HETATM   14  C   UNL     1      30.742  45.517  57.743  1.00  0.00     0.076 C 
HETATM   15  C   UNL     1      31.191  43.638  55.977  1.00  0.00     0.035 A 
HETATM   16  C   UNL     1      30.445  43.246  54.840  1.00  0.00     0.042 A 
ENDBRANCH   9  11
ENDBRANCH   1   5
BRANCH   2  17
HETATM   17  N   UNL     1      24.307  46.735  50.593  1.00  0.00    -0.165 NA
HETATM   18  C   UNL     1      24.528  47.774  49.854  1.00  0.00     0.157 A 
HETATM   19  C   UNL     1      25.847  48.510  49.609  1.00  0.00     0.277 A 
HETATM   20  C   UNL     1      23.524  48.483  49.071  1.00  0.00     0.027 A 
HETATM   21  O   UNL     1      26.911  48.200  50.101  1.00  0.00    -0.266 OA
HETATM   22  N   UNL     1      25.541  49.542  48.748  1.00  0.00    -0.321 N 
HETATM   23  C   UNL     1      24.184  49.530  48.431  1.00  0.00     0.048 A 
HETATM   24  H   UNL     1      26.223  50.203  48.407  1.00  0.00     0.169 HD
HETATM   25  C   UNL     1      23.508  50.401  47.604  1.00  0.00     0.030 A 
HETATM   26  C   UNL     1      22.133  50.191  47.436  1.00  0.00     0.002 A 
HETATM   27  C   UNL     1      21.471  49.129  48.087  1.00  0.00     0.001 A 
HETATM   28  C   UNL     1      22.172  48.255  48.922  1.00  0.00     0.016 A 
ENDBRANCH   2  17
TORSDOF 3
ENDMDL
MODEL 5
REMARK VINA RESULT:      -8.9      2.290      9.109
REMARK  3 active torsions:
REMARK  status: ('A' for Active; 'I' for Inactive)
REMARK    1  A    between atoms: C_4  and  C_5 
REMARK    2  A    between atoms: C_9  and  C_10 
REMARK       I    between atoms: C_10  and  N_11 
REMARK    3  A    between atoms: N_11  and  N_12 
ROOT
HETATM    1  C   UNL     1      25.195  43.926  51.490  1.00  0.00     0.289 C 
HETATM    2  N   UNL     1      25.420  44.746  50.397  1.00  0.00    -0.241 N 
HETATM    3  O   UNL     1      24.123  43.371  51.722  1.00  0.00    -0.264 OA
HETATM    4  H   UNL     1      26.328  45.183  50.247  1.00  0.00     0.192 HD
ENDROOT
BRANCH   1   5
HETATM    5  C   UNL     1      26.322  43.751  52.370  1.00  0.00     0.121 A 
HETATM    6  N   UNL     1      26.940  42.532  52.474  1.00  0.00    -0.272 N 
HETATM    7  N   UNL     1      27.975  42.508  53.327  1.00  0.00    -0.172 NA
HETATM    8  H   UNL     1      26.687  41.682  51.977  1.00  0.00     0.189 HD
HETATM    9  C   UNL     1      28.030  43.762  53.794  1.00  0.00     0.113 A 
HETATM   10  C   UNL     1      27.021  44.578  53.228  1.00  0.00     0.073 A 
BRANCH   9  11
HETATM   11  C   UNL     1      29.048  44.204  54.791  1.00  0.00     0.106 A 
HETATM   12  O   UNL     1      30.011  43.398  55.336  1.00  0.00    -0.313 OA
HETATM   13  C   UNL     1      30.742  44.162  56.197  1.00  0.00     0.050 A 
HETATM   14  C   UNL     1      31.849  43.492  56.905  1.00  0.00     0.076 C 
HETATM   15  C   UNL     1      30.261  45.453  56.212  1.00  0.00     0.035 A 
HETATM   16  C   UNL     1      29.172  45.479  55.309  1.00  0.00     0.042 A 
ENDBRANCH   9  11
ENDBRANCH   1   5
BRANCH   2  17
HETATM   17  N   UNL     1      24.413  44.980  49.499  1.00  0.00    -0.165 NA
HETATM   18  C   UNL     1      23.926  46.178  49.462  1.00  0.00     0.157 A 
HETATM   19  C   UNL     1      24.323  47.398  50.297  1.00  0.00     0.277 A 
HETATM   20  C   UNL     1      22.855  46.628  48.582  1.00  0.00     0.027 A 
HETATM   21  O   UNL     1      25.191  47.400  51.144  1.00  0.00    -0.266 OA
HETATM   22  N   UNL     1      23.503  48.420  49.872  1.00  0.00    -0.321 N 
HETATM   23  C   UNL     1      22.643  47.976  48.869  1.00  0.00     0.048 A 
HETATM   24  H   UNL     1      23.538  49.356  50.249  1.00  0.00     0.169 HD
HETATM   25  C   UNL     1      21.684  48.705  48.201  1.00  0.00     0.030 A 
HETATM   26  C   UNL     1      20.933  48.038  47.225  1.00  0.00     0.002 A 
HETATM   27  C   UNL     1      21.153  46.674  46.940  1.00  0.00     0.001 A 
HETATM   28  C   UNL     1      22.129  45.949  47.626  1.00  0.00     0.016 A 
ENDBRANCH   2  17
TORSDOF 3
ENDMDL
MODEL 6
REMARK VINA RESULT:      -8.6      2.794      3.054
REMARK  3 active torsions:
REMARK  status: ('A' for Active; 'I' for Inactive)
REMARK    1  A    between atoms: C_4  and  C_5 
REMARK    2  A    between atoms: C_9  and  C_10 
REMARK       I    between atoms: C_10  and  N_11 
REMARK    3  A    between atoms: N_11  and  N_12 
ROOT
HETATM    1  C   UNL     1      25.971  43.397  51.104  1.00  0.00     0.289 C 
HETATM    2  N   UNL     1      26.006  43.296  52.485  1.00  0.00    -0.241 N 
HETATM    3  O   UNL     1      26.964  43.309  50.385  1.00  0.00    -0.264 OA
HETATM    4  H   UNL     1      25.154  43.375  53.039  1.00  0.00     0.192 HD
ENDROOT
BRANCH   1   5
HETATM    5  C   UNL     1      24.665  43.617  50.537  1.00  0.00     0.121 A 
HETATM    6  N   UNL     1      23.679  42.677  50.679  1.00  0.00    -0.272 N 
HETATM    7  N   UNL     1      22.513  43.008  50.103  1.00  0.00    -0.172 NA
HETATM    8  H   UNL     1      23.756  41.789  51.165  1.00  0.00     0.189 HD
HETATM    9  C   UNL     1      22.755  44.211  49.566  1.00  0.00     0.113 A 
HETATM   10  C   UNL     1      24.083  44.637  49.808  1.00  0.00     0.073 A 
BRANCH   9  11
HETATM   11  C   UNL     1      21.721  44.976  48.811  1.00  0.00     0.106 A 
HETATM   12  O   UNL     1      20.378  44.712  48.836  1.00  0.00    -0.313 OA
HETATM   13  C   UNL     1      19.769  45.622  48.024  1.00  0.00     0.050 A 
HETATM   14  C   UNL     1      18.301  45.524  47.899  1.00  0.00     0.076 C 
HETATM   15  C   UNL     1      20.703  46.472  47.476  1.00  0.00     0.035 A 
HETATM   16  C   UNL     1      21.959  46.056  47.982  1.00  0.00     0.042 A 
ENDBRANCH   9  11
ENDBRANCH   1   5
BRANCH   2  17
HETATM   17  N   UNL     1      27.198  43.088  53.125  1.00  0.00    -0.165 NA
HETATM   18  C   UNL     1      27.620  44.033  53.902  1.00  0.00     0.157 A 
HETATM   19  C   UNL     1      26.963  45.379  54.214  1.00  0.00     0.277 A 
HETATM   20  C   UNL     1      28.859  44.007  54.669  1.00  0.00     0.027 A 
HETATM   21  O   UNL     1      25.906  45.754  53.751  1.00  0.00    -0.266 OA
HETATM   22  N   UNL     1      27.814  46.013  55.093  1.00  0.00    -0.321 N 
HETATM   23  C   UNL     1      28.925  45.214  55.362  1.00  0.00     0.048 A 
HETATM   24  H   UNL     1      27.638  46.929  55.477  1.00  0.00     0.169 HD
HETATM   25  C   UNL     1      29.987  45.506  56.189  1.00  0.00     0.030 A 
HETATM   26  C   UNL     1      30.996  44.540  56.303  1.00  0.00     0.002 A 
HETATM   27  C   UNL     1      30.924  43.321  55.598  1.00  0.00     0.001 A 
HETATM   28  C   UNL     1      29.840  43.041  54.764  1.00  0.00     0.016 A 
ENDBRANCH   2  17
TORSDOF 3
ENDMDL
MODEL 7
REMARK VINA RESULT:      -8.4      2.817      3.781
REMARK  3 active torsions:
REMARK  status: ('A' for Active; 'I' for Inactive)
REMARK    1  A    between atoms: C_4  and  C_5 
REMARK    2  A    between atoms: C_9  and  C_10 
REMARK       I    between atoms: C_10  and  N_11 
REMARK    3  A    between atoms: N_11  and  N_12 
ROOT
HETATM    1  C   UNL     1      25.309  46.727  51.206  1.00  0.00     0.289 C 
HETATM    2  N   UNL     1      25.490  45.523  51.868  1.00  0.00    -0.241 N 
HETATM    3  O   UNL     1      25.942  47.750  51.457  1.00  0.00    -0.264 OA
HETATM    4  H   UNL     1      24.940  44.702  51.622  1.00  0.00     0.192 HD
ENDROOT
BRANCH   1   5
HETATM    5  C   UNL     1      24.306  46.715  50.172  1.00  0.00     0.121 A 
HETATM    6  N   UNL     1      23.565  47.837  49.909  1.00  0.00    -0.272 N 
HETATM    7  N   UNL     1      22.667  47.688  48.923  1.00  0.00    -0.172 NA
HETATM    8  H   UNL     1      23.638  48.733  50.381  1.00  0.00     0.189 HD
HETATM    9  C   UNL     1      22.834  46.419  48.531  1.00  0.00     0.113 A 
HETATM   10  C   UNL     1      23.844  45.767  49.278  1.00  0.00     0.073 A 
BRANCH   9  11
HETATM   11  C   UNL     1      22.030  45.803  47.436  1.00  0.00     0.106 A 
HETATM   12  O   UNL     1      21.843  46.356  46.197  1.00  0.00    -0.313 OA
HETATM   13  C   UNL     1      21.057  45.501  45.484  1.00  0.00     0.050 A 
HETATM   14  C   UNL     1      20.723  45.900  44.103  1.00  0.00     0.076 C 
HETATM   15  C   UNL     1      20.734  44.402  46.248  1.00  0.00     0.035 A 
HETATM   16  C   UNL     1      21.360  44.597  47.503  1.00  0.00     0.042 A 
ENDBRANCH   9  11
ENDBRANCH   1   5
BRANCH   2  17
HETATM   17  N   UNL     1      26.418  45.428  52.869  1.00  0.00    -0.165 NA
HETATM   18  C   UNL     1      27.354  44.546  52.720  1.00  0.00     0.157 A 
HETATM   19  C   UNL     1      27.575  43.574  51.559  1.00  0.00     0.277 A 
HETATM   20  C   UNL     1      28.431  44.288  53.667  1.00  0.00     0.027 A 
HETATM   21  O   UNL     1      26.866  43.500  50.577  1.00  0.00    -0.266 OA
HETATM   22  N   UNL     1      28.703  42.855  51.887  1.00  0.00    -0.321 N 
HETATM   23  C   UNL     1      29.208  43.269  53.119  1.00  0.00     0.048 A 
HETATM   24  H   UNL     1      29.093  42.131  51.301  1.00  0.00     0.169 HD
HETATM   25  C   UNL     1      30.318  42.786  53.776  1.00  0.00     0.030 A 
HETATM   26  C   UNL     1      30.633  43.361  55.014  1.00  0.00     0.002 A 
HETATM   27  C   UNL     1      29.842  44.393  55.563  1.00  0.00     0.001 A 
HETATM   28  C   UNL     1      28.719  44.871  54.884  1.00  0.00     0.016 A 
ENDBRANCH   2  17
TORSDOF 3
ENDMDL
MODEL 8
REMARK VINA RESULT:      -8.4      2.766      9.447
REMARK  3 active torsions:
REMARK  status: ('A' for Active; 'I' for Inactive)
REMARK    1  A    between atoms: C_4  and  C_5 
REMARK    2  A    between atoms: C_9  and  C_10 
REMARK       I    between atoms: C_10  and  N_11 
REMARK    3  A    between atoms: N_11  and  N_12 
ROOT
HETATM    1  C   UNL     1      23.608  44.897  49.604  1.00  0.00     0.289 C 
HETATM    2  N   UNL     1      23.673  46.174  49.072  1.00  0.00    -0.241 N 
HETATM    3  O   UNL     1      22.563  44.266  49.748  1.00  0.00    -0.264 OA
HETATM    4  H   UNL     1      24.565  46.656  48.973  1.00  0.00     0.192 HD
ENDROOT
BRANCH   1   5
HETATM    5  C   UNL     1      24.873  44.328  49.993  1.00  0.00     0.121 A 
HETATM    6  N   UNL     1      25.900  44.234  49.091  1.00  0.00    -0.272 N 
HETATM    7  N   UNL     1      27.021  43.685  49.584  1.00  0.00    -0.172 NA
HETATM    8  H   UNL     1      25.881  44.535  48.121  1.00  0.00     0.189 HD
HETATM    9  C   UNL     1      26.707  43.412  50.857  1.00  0.00     0.113 A 
HETATM   10  C   UNL     1      25.379  43.794  51.163  1.00  0.00     0.073 A 
BRANCH   9  11
HETATM   11  C   UNL     1      27.671  42.782  51.804  1.00  0.00     0.106 A 
HETATM   12  O   UNL     1      28.645  43.454  52.493  1.00  0.00    -0.313 OA
HETATM   13  C   UNL     1      29.314  42.538  53.249  1.00  0.00     0.050 A 
HETATM   14  C   UNL     1      30.420  43.046  54.084  1.00  0.00     0.076 C 
HETATM   15  C   UNL     1      28.782  41.282  53.057  1.00  0.00     0.035 A 
HETATM   16  C   UNL     1      27.726  41.439  52.128  1.00  0.00     0.042 A 
ENDBRANCH   9  11
ENDBRANCH   1   5
BRANCH   2  17
HETATM   17  N   UNL     1      22.527  46.807  48.672  1.00  0.00    -0.165 NA
HETATM   18  C   UNL     1      22.498  48.095  48.784  1.00  0.00     0.157 A 
HETATM   19  C   UNL     1      23.585  49.034  49.312  1.00  0.00     0.277 A 
HETATM   20  C   UNL     1      21.377  48.951  48.416  1.00  0.00     0.027 A 
HETATM   21  O   UNL     1      24.671  48.673  49.714  1.00  0.00    -0.266 OA
HETATM   22  N   UNL     1      23.056  50.303  49.222  1.00  0.00    -0.321 N 
HETATM   23  C   UNL     1      21.764  50.260  48.698  1.00  0.00     0.048 A 
HETATM   24  H   UNL     1      23.553  51.135  49.502  1.00  0.00     0.169 HD
HETATM   25  C   UNL     1      20.919  51.321  48.461  1.00  0.00     0.030 A 
HETATM   26  C   UNL     1      19.657  51.031  47.926  1.00  0.00     0.002 A 
HETATM   27  C   UNL     1      19.271  49.703  47.643  1.00  0.00     0.001 A 
HETATM   28  C   UNL     1      20.141  48.639  47.889  1.00  0.00     0.016 A 
ENDBRANCH   2  17
TORSDOF 3
ENDMDL
MODEL 9
REMARK VINA RESULT:      -8.4      4.140      4.612
REMARK  3 active torsions:
REMARK  status: ('A' for Active; 'I' for Inactive)
REMARK    1  A    between atoms: C_4  and  C_5 
REMARK    2  A    between atoms: C_9  and  C_10 
REMARK       I    between atoms: C_10  and  N_11 
REMARK    3  A    between atoms: N_11  and  N_12 
ROOT
HETATM    1  C   UNL     1      27.796  42.448  51.993  1.00  0.00     0.289 C 
HETATM    2  N   UNL     1      28.339  43.566  52.605  1.00  0.00    -0.241 N 
HETATM    3  O   UNL     1      28.059  41.292  52.317  1.00  0.00    -0.264 OA
HETATM    4  H   UNL     1      28.088  44.505  52.300  1.00  0.00     0.192 HD
ENDROOT
BRANCH   1   5
HETATM    5  C   UNL     1      26.874  42.722  50.920  1.00  0.00     0.121 A 
HETATM    6  N   UNL     1      26.960  43.893  50.213  1.00  0.00    -0.272 N 
HETATM    7  N   UNL     1      26.042  44.020  49.242  1.00  0.00    -0.172 NA
HETATM    8  H   UNL     1      27.633  44.639  50.359  1.00  0.00     0.189 HD
HETATM    9  C   UNL     1      25.334  42.887  49.324  1.00  0.00     0.113 A 
HETATM   10  C   UNL     1      25.813  42.042  50.354  1.00  0.00     0.073 A 
BRANCH   9  11
HETATM   11  C   UNL     1      24.187  42.589  48.418  1.00  0.00     0.106 A 
HETATM   12  O   UNL     1      23.619  43.486  47.554  1.00  0.00    -0.313 OA
HETATM   13  C   UNL     1      22.606  42.843  46.907  1.00  0.00     0.050 A 
HETATM   14  C   UNL     1      21.846  43.628  45.915  1.00  0.00     0.076 C 
HETATM   15  C   UNL     1      22.515  41.540  47.343  1.00  0.00     0.035 A 
HETATM   16  C   UNL     1      23.531  41.377  48.315  1.00  0.00     0.042 A 
ENDBRANCH   9  11
ENDBRANCH   1   5
BRANCH   2  17
HETATM   17  N   UNL     1      29.227  43.416  53.636  1.00  0.00    -0.165 NA
HETATM   18  C   UNL     1      29.175  44.290  54.588  1.00  0.00     0.157 A 
HETATM   19  C   UNL     1      28.242  45.496  54.729  1.00  0.00     0.277 A 
HETATM   20  C   UNL     1      30.029  44.308  55.768  1.00  0.00     0.027 A 
HETATM   21  O   UNL     1      27.386  45.802  53.926  1.00  0.00    -0.266 OA
HETATM   22  N   UNL     1      28.595  46.101  55.915  1.00  0.00    -0.321 N 
HETATM   23  C   UNL     1      29.640  45.410  56.527  1.00  0.00     0.048 A 
HETATM   24  H   UNL     1      28.145  46.931  56.273  1.00  0.00     0.169 HD
HETATM   25  C   UNL     1      30.260  45.711  57.720  1.00  0.00     0.030 A 
HETATM   26  C   UNL     1      31.296  44.865  58.137  1.00  0.00     0.002 A 
HETATM   27  C   UNL     1      31.685  43.751  57.364  1.00  0.00     0.001 A 
HETATM   28  C   UNL     1      31.046  43.460  56.157  1.00  0.00     0.016 A 
ENDBRANCH   2  17
TORSDOF 3
ENDMDL
MODEL 10
REMARK VINA RESULT:      -8.1      2.600      3.326
REMARK  3 active torsions:
REMARK  status: ('A' for Active; 'I' for Inactive)
REMARK    1  A    between atoms: C_4  and  C_5 
REMARK    2  A    between atoms: C_9  and  C_10 
REMARK       I    between atoms: C_10  and  N_11 
REMARK    3  A    between atoms: N_11  and  N_12 
ROOT
HETATM    1  C   UNL     1      25.723  47.296  50.010  1.00  0.00     0.289 C 
HETATM    2  N   UNL     1      25.871  45.932  49.821  1.00  0.00    -0.241 N 
HETATM    3  O   UNL     1      26.487  47.983  50.684  1.00  0.00    -0.264 OA
HETATM    4  H   UNL     1      25.209  45.406  49.252  1.00  0.00     0.192 HD
ENDROOT
BRANCH   1   5
HETATM    5  C   UNL     1      24.586  47.888  49.350  1.00  0.00     0.121 A 
HETATM    6  N   UNL     1      24.683  49.128  48.777  1.00  0.00    -0.272 N 
HETATM    7  N   UNL     1      23.552  49.560  48.198  1.00  0.00    -0.172 NA
HETATM    8  H   UNL     1      25.508  49.722  48.757  1.00  0.00     0.189 HD
HETATM    9  C   UNL     1      22.688  48.558  48.404  1.00  0.00     0.113 A 
HETATM   10  C   UNL     1      23.283  47.490  49.118  1.00  0.00     0.073 A 
BRANCH   9  11
HETATM   11  C   UNL     1      21.277  48.602  47.923  1.00  0.00     0.106 A 
HETATM   12  O   UNL     1      20.634  49.728  47.485  1.00  0.00    -0.313 OA
HETATM   13  C   UNL     1      19.369  49.364  47.133  1.00  0.00     0.050 A 
HETATM   14  C   UNL     1      18.486  50.433  46.626  1.00  0.00     0.076 C 
HETATM   15  C   UNL     1      19.188  48.014  47.338  1.00  0.00     0.035 A 
HETATM   16  C   UNL     1      20.415  47.524  47.846  1.00  0.00     0.042 A 
ENDBRANCH   9  11
ENDBRANCH   1   5
BRANCH   2  17
HETATM   17  N   UNL     1      26.918  45.272  50.406  1.00  0.00    -0.165 NA
HETATM   18  C   UNL     1      26.662  44.602  51.483  1.00  0.00     0.157 A 
HETATM   19  C   UNL     1      25.327  44.440  52.214  1.00  0.00     0.277 A 
HETATM   20  C   UNL     1      27.633  43.836  52.253  1.00  0.00     0.027 A 
HETATM   21  O   UNL     1      24.282  44.943  51.858  1.00  0.00    -0.266 OA
HETATM   22  N   UNL     1      25.593  43.635  53.299  1.00  0.00    -0.321 N 
HETATM   23  C   UNL     1      26.941  43.279  53.327  1.00  0.00     0.048 A 
HETATM   24  H   UNL     1      24.893  43.354  53.970  1.00  0.00     0.169 HD
HETATM   25  C   UNL     1      27.581  42.487  54.255  1.00  0.00     0.030 A 
HETATM   26  C   UNL     1      28.953  42.267  54.075  1.00  0.00     0.002 A 
HETATM   27  C   UNL     1      29.647  42.834  52.986  1.00  0.00     0.001 A 
HETATM   28  C   UNL     1      28.983  43.634  52.054  1.00  0.00     0.016 A 
ENDBRANCH   2  17
TORSDOF 3
ENDMDL
