MODEL 1
REMARK VINA RESULT:      -8.8      0.000      0.000
REMARK  5 active torsions:
REMARK  status: ('A' for Active; 'I' for Inactive)
REMARK    1  A    between atoms: O_2  and  C_3 
REMARK    2  A    between atoms: C_10  and  C_11 
REMARK    3  A    between atoms: C_11  and  C_12 
REMARK       I    between atoms: C_12  and  N_13 
REMARK    4  A    between atoms: N_13  and  C_14 
REMARK    5  A    between atoms: C_21  and  O_22 
ROOT
HETATM    1  C   UNL     1      28.395  41.598  52.720  1.00  0.00     0.226 C 
HETATM    2  N   UNL     1      29.088  42.806  52.750  1.00  0.00    -0.326 N 
HETATM    3  O   UNL     1      27.890  41.040  53.688  1.00  0.00    -0.273 OA
HETATM    4  H   UNL     1      29.134  43.283  51.859  1.00  0.00     0.169 HD
ENDROOT
BRANCH   1   5
HETATM    5  C   UNL     1      28.331  41.025  51.305  1.00  0.00     0.144 C 
BRANCH   5   6
HETATM    6  C   UNL     1      27.034  41.249  50.591  1.00  0.00    -0.021 A 
HETATM    7  C   UNL     1      26.495  42.490  50.114  1.00  0.00     0.001 A 
HETATM    8  C   UNL     1      26.917  43.836  50.166  1.00  0.00     0.051 A 
HETATM    9  C   UNL     1      25.287  42.205  49.477  1.00  0.00     0.043 A 
HETATM   10  C   UNL     1      26.123  44.846  49.604  1.00  0.00     0.069 A 
HETATM   11  C   UNL     1      24.928  44.520  48.966  1.00  0.00     0.039 A 
HETATM   12  C   UNL     1      24.488  43.192  48.891  1.00  0.00     0.033 A 
HETATM   13  N   UNL     1      25.095  40.847  49.561  1.00  0.00    -0.365 N 
HETATM   14  H   UNL     1      24.293  40.358  49.186  1.00  0.00     0.165 HD
HETATM   15  C   UNL     1      26.141  40.260  50.218  1.00  0.00     0.097 A 
BRANCH  10  16
HETATM   16  O   UNL     1      26.638  46.109  49.735  1.00  0.00    -0.356 OA
HETATM   17  C   UNL     1      25.893  47.019  50.536  1.00  0.00     0.210 C 
ENDBRANCH  10  16
ENDBRANCH   5   6
ENDBRANCH   1   5
BRANCH   2  18
HETATM   18  C   UNL     1      29.338  43.629  53.881  1.00  0.00     0.047 A 
HETATM   19  C   UNL     1      28.576  44.765  54.292  1.00  0.00     0.022 A 
HETATM   20  C   UNL     1      29.018  45.534  55.403  1.00  0.00     0.102 A 
HETATM   21  C   UNL     1      27.347  45.169  53.721  1.00  0.00     0.017 A 
HETATM   22  N   UNL     1      28.358  46.640  55.822  1.00  0.00    -0.257 NA
HETATM   23  C   UNL     1      30.165  45.122  56.102  1.00  0.00     0.097 A 
HETATM   24  C   UNL     1      27.226  47.009  55.198  1.00  0.00     0.117 A 
HETATM   25  C   UNL     1      26.672  46.303  54.160  1.00  0.00     0.020 A 
HETATM   26  C   UNL     1      30.847  43.956  55.751  1.00  0.00     0.041 A 
HETATM   27  C   UNL     1      30.433  43.218  54.651  1.00  0.00     0.033 A 
BRANCH  23  28
HETATM   28  O   UNL     1      30.530  45.878  57.196  1.00  0.00    -0.354 OA
HETATM   29  C   UNL     1      30.863  45.155  58.374  1.00  0.00     0.210 C 
ENDBRANCH  23  28
ENDBRANCH   2  18
TORSDOF 5
ENDMDL
MODEL 2
REMARK VINA RESULT:      -8.7      3.171      7.490
REMARK  5 active torsions:
REMARK  status: ('A' for Active; 'I' for Inactive)
REMARK    1  A    between atoms: O_2  and  C_3 
REMARK    2  A    between atoms: C_10  and  C_11 
REMARK    3  A    between atoms: C_11  and  C_12 
REMARK       I    between atoms: C_12  and  N_13 
REMARK    4  A    between atoms: N_13  and  C_14 
REMARK    5  A    between atoms: C_21  and  O_22 
ROOT
HETATM    1  C   UNL     1      25.481  44.633  50.519  1.00  0.00     0.226 C 
HETATM    2  N   UNL     1      24.906  45.864  50.827  1.00  0.00    -0.326 N 
HETATM    3  O   UNL     1      25.819  44.262  49.400  1.00  0.00    -0.273 OA
HETATM    4  H   UNL     1      25.005  46.140  51.795  1.00  0.00     0.169 HD
ENDROOT
BRANCH   1   5
HETATM    5  C   UNL     1      25.648  43.766  51.766  1.00  0.00     0.144 C 
BRANCH   5   6
HETATM    6  C   UNL     1      27.013  43.178  51.948  1.00  0.00    -0.021 A 
HETATM    7  C   UNL     1      27.980  43.493  52.961  1.00  0.00     0.001 A 
HETATM    8  C   UNL     1      28.024  44.409  54.034  1.00  0.00     0.051 A 
HETATM    9  C   UNL     1      29.084  42.666  52.759  1.00  0.00     0.043 A 
HETATM   10  C   UNL     1      29.161  44.485  54.851  1.00  0.00     0.069 A 
HETATM   11  C   UNL     1      30.241  43.634  54.623  1.00  0.00     0.039 A 
HETATM   12  C   UNL     1      30.221  42.709  53.572  1.00  0.00     0.033 A 
HETATM   13  N   UNL     1      28.806  41.879  51.667  1.00  0.00    -0.365 N 
HETATM   14  H   UNL     1      29.436  41.184  51.288  1.00  0.00     0.165 HD
HETATM   15  C   UNL     1      27.563  42.168  51.178  1.00  0.00     0.097 A 
BRANCH  10  16
HETATM   16  O   UNL     1      29.082  45.425  55.844  1.00  0.00    -0.356 OA
HETATM   17  C   UNL     1      30.240  45.592  56.654  1.00  0.00     0.210 C 
ENDBRANCH  10  16
ENDBRANCH   5   6
ENDBRANCH   1   5
BRANCH   2  18
HETATM   18  C   UNL     1      24.611  46.926  49.931  1.00  0.00     0.047 A 
HETATM   19  C   UNL     1      25.511  47.942  49.488  1.00  0.00     0.022 A 
HETATM   20  C   UNL     1      25.026  48.987  48.656  1.00  0.00     0.102 A 
HETATM   21  C   UNL     1      26.901  47.968  49.753  1.00  0.00     0.017 A 
HETATM   22  N   UNL     1      25.822  49.996  48.228  1.00  0.00    -0.257 NA
HETATM   23  C   UNL     1      23.683  48.962  48.246  1.00  0.00     0.097 A 
HETATM   24  C   UNL     1      27.124  49.999  48.566  1.00  0.00     0.117 A 
HETATM   25  C   UNL     1      27.712  49.005  49.307  1.00  0.00     0.020 A 
HETATM   26  C   UNL     1      22.836  47.913  48.605  1.00  0.00     0.041 A 
HETATM   27  C   UNL     1      23.299  46.905  49.439  1.00  0.00     0.033 A 
BRANCH  23  28
HETATM   28  O   UNL     1      23.270  49.976  47.407  1.00  0.00    -0.354 OA
HETATM   29  C   UNL     1      22.110  50.691  47.813  1.00  0.00     0.210 C 
ENDBRANCH  23  28
ENDBRANCH   2  18
TORSDOF 5
ENDMDL
MODEL 3
REMARK VINA RESULT:      -8.5      1.481      2.164
REMARK  5 active torsions:
REMARK  status: ('A' for Active; 'I' for Inactive)
REMARK    1  A    between atoms: O_2  and  C_3 
REMARK    2  A    between atoms: C_10  and  C_11 
REMARK    3  A    between atoms: C_11  and  C_12 
REMARK       I    between atoms: C_12  and  N_13 
REMARK    4  A    between atoms: N_13  and  C_14 
REMARK    5  A    between atoms: C_21  and  O_22 
ROOT
HETATM    1  C   UNL     1      27.439  42.691  51.449  1.00  0.00     0.226 C 
HETATM    2  N   UNL     1      28.333  43.687  51.836  1.00  0.00    -0.326 N 
HETATM    3  O   UNL     1      26.984  41.818  52.178  1.00  0.00    -0.273 OA
HETATM    4  H   UNL     1      28.339  44.500  51.234  1.00  0.00     0.169 HD
ENDROOT
BRANCH   1   5
HETATM    5  C   UNL     1      27.078  42.809  49.969  1.00  0.00     0.144 C 
BRANCH   5   6
HETATM    6  C   UNL     1      25.794  43.526  49.688  1.00  0.00    -0.021 A 
HETATM    7  C   UNL     1      25.556  44.941  49.697  1.00  0.00     0.001 A 
HETATM    8  C   UNL     1      26.346  46.075  49.984  1.00  0.00     0.051 A 
HETATM    9  C   UNL     1      24.224  45.145  49.334  1.00  0.00     0.043 A 
HETATM   10  C   UNL     1      25.787  47.359  49.920  1.00  0.00     0.069 A 
HETATM   11  C   UNL     1      24.456  47.522  49.543  1.00  0.00     0.039 A 
HETATM   12  C   UNL     1      23.650  46.416  49.243  1.00  0.00     0.033 A 
HETATM   13  N   UNL     1      23.671  43.906  49.113  1.00  0.00    -0.365 N 
HETATM   14  H   UNL     1      22.710  43.750  48.840  1.00  0.00     0.165 HD
HETATM   15  C   UNL     1      24.605  42.927  49.311  1.00  0.00     0.097 A 
BRANCH  10  16
HETATM   16  O   UNL     1      26.656  48.370  50.237  1.00  0.00    -0.356 OA
HETATM   17  C   UNL     1      27.353  48.972  49.152  1.00  0.00     0.210 C 
ENDBRANCH  10  16
ENDBRANCH   5   6
ENDBRANCH   1   5
BRANCH   2  18
HETATM   18  C   UNL     1      28.880  43.899  53.130  1.00  0.00     0.047 A 
HETATM   19  C   UNL     1      28.472  44.888  54.075  1.00  0.00     0.022 A 
HETATM   20  C   UNL     1      29.189  45.022  55.296  1.00  0.00     0.102 A 
HETATM   21  C   UNL     1      27.342  45.728  53.936  1.00  0.00     0.017 A 
HETATM   22  N   UNL     1      28.871  45.961  56.219  1.00  0.00    -0.257 NA
HETATM   23  C   UNL     1      30.248  44.139  55.563  1.00  0.00     0.097 A 
HETATM   24  C   UNL     1      27.822  46.774  56.000  1.00  0.00     0.117 A 
HETATM   25  C   UNL     1      27.020  46.687  54.890  1.00  0.00     0.020 A 
HETATM   26  C   UNL     1      30.577  43.114  54.676  1.00  0.00     0.041 A 
HETATM   27  C   UNL     1      29.896  42.997  53.472  1.00  0.00     0.033 A 
BRANCH  23  28
HETATM   28  O   UNL     1      30.886  44.284  56.777  1.00  0.00    -0.354 OA
HETATM   29  C   UNL     1      31.793  43.249  57.135  1.00  0.00     0.210 C 
ENDBRANCH  23  28
ENDBRANCH   2  18
TORSDOF 5
ENDMDL
MODEL 4
REMARK VINA RESULT:      -8.2      2.122      4.002
REMARK  5 active torsions:
REMARK  status: ('A' for Active; 'I' for Inactive)
REMARK    1  A    between atoms: O_2  and  C_3 
REMARK    2  A    between atoms: C_10  and  C_11 
REMARK    3  A    between atoms: C_11  and  C_12 
REMARK       I    between atoms: C_12  and  N_13 
REMARK    4  A    between atoms: N_13  and  C_14 
REMARK    5  A    between atoms: C_21  and  O_22 
ROOT
HETATM    1  C   UNL     1      26.925  42.950  51.368  1.00  0.00     0.226 C 
HETATM    2  N   UNL     1      27.066  42.671  52.725  1.00  0.00    -0.326 N 
HETATM    3  O   UNL     1      27.560  43.793  50.743  1.00  0.00    -0.273 OA
HETATM    4  H   UNL     1      26.737  41.754  52.999  1.00  0.00     0.169 HD
ENDROOT
BRANCH   1   5
HETATM    5  C   UNL     1      25.859  42.066  50.722  1.00  0.00     0.144 C 
BRANCH   5   6
HETATM    6  C   UNL     1      26.319  41.297  49.523  1.00  0.00    -0.021 A 
HETATM    7  C   UNL     1      27.330  40.281  49.463  1.00  0.00     0.001 A 
HETATM    8  C   UNL     1      28.213  39.708  50.403  1.00  0.00     0.051 A 
HETATM    9  C   UNL     1      27.384  39.820  48.147  1.00  0.00     0.043 A 
HETATM   10  C   UNL     1      29.123  38.719  50.005  1.00  0.00     0.069 A 
HETATM   11  C   UNL     1      29.139  38.277  48.684  1.00  0.00     0.039 A 
HETATM   12  C   UNL     1      28.269  38.820  47.730  1.00  0.00     0.033 A 
HETATM   13  N   UNL     1      26.445  40.525  47.432  1.00  0.00    -0.365 N 
HETATM   14  H   UNL     1      26.268  40.401  46.444  1.00  0.00     0.165 HD
HETATM   15  C   UNL     1      25.792  41.407  48.248  1.00  0.00     0.097 A 
BRANCH  10  16
HETATM   16  O   UNL     1      29.933  38.258  51.010  1.00  0.00    -0.356 OA
HETATM   17  C   UNL     1      29.812  36.879  51.340  1.00  0.00     0.210 C 
ENDBRANCH  10  16
ENDBRANCH   5   6
ENDBRANCH   1   5
BRANCH   2  18
HETATM   18  C   UNL     1      27.962  43.281  53.643  1.00  0.00     0.047 A 
HETATM   19  C   UNL     1      27.844  44.587  54.208  1.00  0.00     0.022 A 
HETATM   20  C   UNL     1      28.881  45.080  55.046  1.00  0.00     0.102 A 
HETATM   21  C   UNL     1      26.722  45.437  54.062  1.00  0.00     0.017 A 
HETATM   22  N   UNL     1      28.842  46.322  55.586  1.00  0.00    -0.257 NA
HETATM   23  C   UNL     1      29.971  44.245  55.341  1.00  0.00     0.097 A 
HETATM   24  C   UNL     1      27.775  47.108  55.359  1.00  0.00     0.117 A 
HETATM   25  C   UNL     1      26.688  46.709  54.623  1.00  0.00     0.020 A 
HETATM   26  C   UNL     1      30.031  42.936  54.862  1.00  0.00     0.041 A 
HETATM   27  C   UNL     1      29.033  42.461  54.023  1.00  0.00     0.033 A 
BRANCH  23  28
HETATM   28  O   UNL     1      30.931  44.755  56.190  1.00  0.00    -0.354 OA
HETATM   29  C   UNL     1      31.405  43.873  57.199  1.00  0.00     0.210 C 
ENDBRANCH  23  28
ENDBRANCH   2  18
TORSDOF 5
ENDMDL
MODEL 5
REMARK VINA RESULT:      -8.2      3.079      7.978
REMARK  5 active torsions:
REMARK  status: ('A' for Active; 'I' for Inactive)
REMARK    1  A    between atoms: O_2  and  C_3 
REMARK    2  A    between atoms: C_10  and  C_11 
REMARK    3  A    between atoms: C_11  and  C_12 
REMARK       I    between atoms: C_12  and  N_13 
REMARK    4  A    between atoms: N_13  and  C_14 
REMARK    5  A    between atoms: C_21  and  O_22 
ROOT
HETATM    1  C   UNL     1      26.672  44.905  50.780  1.00  0.00     0.226 C 
HETATM    2  N   UNL     1      25.775  45.932  51.067  1.00  0.00    -0.326 N 
HETATM    3  O   UNL     1      27.091  44.613  49.666  1.00  0.00    -0.273 OA
HETATM    4  H   UNL     1      25.800  46.253  52.026  1.00  0.00     0.169 HD
ENDROOT
BRANCH   1   5
HETATM    5  C   UNL     1      27.088  44.157  52.046  1.00  0.00     0.144 C 
BRANCH   5   6
HETATM    6  C   UNL     1      27.198  45.006  53.274  1.00  0.00    -0.021 A 
HETATM    7  C   UNL     1      28.208  44.956  54.292  1.00  0.00     0.001 A 
HETATM    8  C   UNL     1      29.341  44.145  54.522  1.00  0.00     0.051 A 
HETATM    9  C   UNL     1      27.924  45.962  55.215  1.00  0.00     0.043 A 
HETATM   10  C   UNL     1      30.135  44.347  55.660  1.00  0.00     0.069 A 
HETATM   11  C   UNL     1      29.824  45.370  56.553  1.00  0.00     0.039 A 
HETATM   12  C   UNL     1      28.712  46.196  56.347  1.00  0.00     0.033 A 
HETATM   13  N   UNL     1      26.788  46.601  54.781  1.00  0.00    -0.365 N 
HETATM   14  H   UNL     1      26.347  47.374  55.262  1.00  0.00     0.165 HD
HETATM   15  C   UNL     1      26.348  46.045  53.612  1.00  0.00     0.097 A 
BRANCH  10  16
HETATM   16  O   UNL     1      31.192  43.484  55.772  1.00  0.00    -0.356 OA
HETATM   17  C   UNL     1      31.739  43.315  57.075  1.00  0.00     0.210 C 
ENDBRANCH  10  16
ENDBRANCH   5   6
ENDBRANCH   1   5
BRANCH   2  18
HETATM   18  C   UNL     1      25.183  46.841  50.150  1.00  0.00     0.047 A 
HETATM   19  C   UNL     1      25.808  47.978  49.555  1.00  0.00     0.022 A 
HETATM   20  C   UNL     1      25.042  48.839  48.722  1.00  0.00     0.102 A 
HETATM   21  C   UNL     1      27.182  48.301  49.665  1.00  0.00     0.017 A 
HETATM   22  N   UNL     1      25.569  49.950  48.154  1.00  0.00    -0.257 NA
HETATM   23  C   UNL     1      23.700  48.514  48.463  1.00  0.00     0.097 A 
HETATM   24  C   UNL     1      26.868  50.238  48.348  1.00  0.00     0.117 A 
HETATM   25  C   UNL     1      27.716  49.442  49.076  1.00  0.00     0.020 A 
HETATM   26  C   UNL     1      23.125  47.349  48.970  1.00  0.00     0.041 A 
HETATM   27  C   UNL     1      23.863  46.522  49.805  1.00  0.00     0.033 A 
BRANCH  23  28
HETATM   28  O   UNL     1      23.010  49.358  47.617  1.00  0.00    -0.354 OA
HETATM   29  C   UNL     1      21.776  49.865  48.110  1.00  0.00     0.210 C 
ENDBRANCH  23  28
ENDBRANCH   2  18
TORSDOF 5
ENDMDL
MODEL 6
REMARK VINA RESULT:      -8.1      1.173      2.563
REMARK  5 active torsions:
REMARK  status: ('A' for Active; 'I' for Inactive)
REMARK    1  A    between atoms: O_2  and  C_3 
REMARK    2  A    between atoms: C_10  and  C_11 
REMARK    3  A    between atoms: C_11  and  C_12 
REMARK       I    between atoms: C_12  and  N_13 
REMARK    4  A    between atoms: N_13  and  C_14 
REMARK    5  A    between atoms: C_21  and  O_22 
ROOT
HETATM    1  C   UNL     1      28.117  41.655  52.603  1.00  0.00     0.226 C 
HETATM    2  N   UNL     1      28.498  42.987  52.461  1.00  0.00    -0.326 N 
HETATM    3  O   UNL     1      27.635  41.154  53.612  1.00  0.00    -0.273 OA
HETATM    4  H   UNL     1      28.547  43.308  51.502  1.00  0.00     0.169 HD
ENDROOT
BRANCH   1   5
HETATM    5  C   UNL     1      28.375  40.860  51.323  1.00  0.00     0.144 C 
BRANCH   5   6
HETATM    6  C   UNL     1      27.173  40.657  50.454  1.00  0.00    -0.021 A 
HETATM    7  C   UNL     1      26.336  41.660  49.860  1.00  0.00     0.001 A 
HETATM    8  C   UNL     1      26.305  43.071  49.899  1.00  0.00     0.051 A 
HETATM    9  C   UNL     1      25.369  41.003  49.100  1.00  0.00     0.043 A 
HETATM   10  C   UNL     1      25.311  43.774  49.203  1.00  0.00     0.069 A 
HETATM   11  C   UNL     1      24.368  43.082  48.445  1.00  0.00     0.039 A 
HETATM   12  C   UNL     1      24.381  41.682  48.380  1.00  0.00     0.033 A 
HETATM   13  N   UNL     1      25.604  39.655  49.223  1.00  0.00    -0.365 N 
HETATM   14  H   UNL     1      25.049  38.935  48.780  1.00  0.00     0.165 HD
HETATM   15  C   UNL     1      26.690  39.433  50.024  1.00  0.00     0.097 A 
BRANCH  10  16
HETATM   16  O   UNL     1      25.383  45.135  49.336  1.00  0.00    -0.356 OA
HETATM   17  C   UNL     1      26.656  45.674  49.673  1.00  0.00     0.210 C 
ENDBRANCH  10  16
ENDBRANCH   5   6
ENDBRANCH   1   5
BRANCH   2  18
HETATM   18  C   UNL     1      28.397  44.021  53.430  1.00  0.00     0.047 A 
HETATM   19  C   UNL     1      29.233  44.199  54.574  1.00  0.00     0.022 A 
HETATM   20  C   UNL     1      28.938  45.241  55.497  1.00  0.00     0.102 A 
HETATM   21  C   UNL     1      30.405  43.455  54.849  1.00  0.00     0.017 A 
HETATM   22  N   UNL     1      29.673  45.441  56.617  1.00  0.00    -0.257 NA
HETATM   23  C   UNL     1      27.862  46.102  55.227  1.00  0.00     0.097 A 
HETATM   24  C   UNL     1      30.741  44.659  56.854  1.00  0.00     0.117 A 
HETATM   25  C   UNL     1      31.156  43.670  55.999  1.00  0.00     0.020 A 
HETATM   26  C   UNL     1      27.111  45.980  54.057  1.00  0.00     0.041 A 
HETATM   27  C   UNL     1      27.380  44.948  53.169  1.00  0.00     0.033 A 
BRANCH  23  28
HETATM   28  O   UNL     1      27.641  47.120  56.131  1.00  0.00    -0.354 OA
HETATM   29  C   UNL     1      26.719  48.125  55.728  1.00  0.00     0.210 C 
ENDBRANCH  23  28
ENDBRANCH   2  18
TORSDOF 5
ENDMDL
MODEL 7
REMARK VINA RESULT:      -8.1      2.754      4.782
REMARK  5 active torsions:
REMARK  status: ('A' for Active; 'I' for Inactive)
REMARK    1  A    between atoms: O_2  and  C_3 
REMARK    2  A    between atoms: C_10  and  C_11 
REMARK    3  A    between atoms: C_11  and  C_12 
REMARK       I    between atoms: C_12  and  N_13 
REMARK    4  A    between atoms: N_13  and  C_14 
REMARK    5  A    between atoms: C_21  and  O_22 
ROOT
HETATM    1  C   UNL     1      27.040  43.535  50.852  1.00  0.00     0.226 C 
HETATM    2  N   UNL     1      26.698  43.713  52.191  1.00  0.00    -0.326 N 
HETATM    3  O   UNL     1      27.655  44.338  50.159  1.00  0.00    -0.273 OA
HETATM    4  H   UNL     1      26.510  42.854  52.692  1.00  0.00     0.169 HD
ENDROOT
BRANCH   1   5
HETATM    5  C   UNL     1      26.550  42.187  50.324  1.00  0.00     0.144 C 
BRANCH   5   6
HETATM    6  C   UNL     1      27.517  41.056  50.486  1.00  0.00    -0.021 A 
HETATM    7  C   UNL     1      27.890  40.070  49.512  1.00  0.00     0.001 A 
HETATM    8  C   UNL     1      27.497  39.795  48.184  1.00  0.00     0.051 A 
HETATM    9  C   UNL     1      28.851  39.246  50.096  1.00  0.00     0.043 A 
HETATM   10  C   UNL     1      28.055  38.709  47.494  1.00  0.00     0.069 A 
HETATM   11  C   UNL     1      29.021  37.914  48.109  1.00  0.00     0.039 A 
HETATM   12  C   UNL     1      29.436  38.169  49.422  1.00  0.00     0.033 A 
HETATM   13  N   UNL     1      29.058  39.707  51.374  1.00  0.00    -0.365 N 
HETATM   14  H   UNL     1      29.703  39.293  52.034  1.00  0.00     0.165 HD
HETATM   15  C   UNL     1      28.272  40.799  51.617  1.00  0.00     0.097 A 
BRANCH  10  16
HETATM   16  O   UNL     1      27.578  38.542  46.221  1.00  0.00    -0.356 OA
HETATM   17  C   UNL     1      27.861  39.585  45.295  1.00  0.00     0.210 C 
ENDBRANCH  10  16
ENDBRANCH   5   6
ENDBRANCH   1   5
BRANCH   2  18
HETATM   18  C   UNL     1      26.993  44.832  53.015  1.00  0.00     0.047 A 
HETATM   19  C   UNL     1      28.014  44.910  54.011  1.00  0.00     0.022 A 
HETATM   20  C   UNL     1      28.117  46.080  54.811  1.00  0.00     0.102 A 
HETATM   21  C   UNL     1      29.006  43.927  54.236  1.00  0.00     0.017 A 
HETATM   22  N   UNL     1      29.043  46.202  55.793  1.00  0.00    -0.257 NA
HETATM   23  C   UNL     1      27.245  47.153  54.563  1.00  0.00     0.097 A 
HETATM   24  C   UNL     1      29.921  45.205  56.000  1.00  0.00     0.117 A 
HETATM   25  C   UNL     1      29.956  44.061  55.242  1.00  0.00     0.020 A 
HETATM   26  C   UNL     1      26.315  47.104  53.524  1.00  0.00     0.041 A 
HETATM   27  C   UNL     1      26.195  45.954  52.758  1.00  0.00     0.033 A 
BRANCH  23  28
HETATM   28  O   UNL     1      27.411  48.280  55.339  1.00  0.00    -0.354 OA
HETATM   29  C   UNL     1      26.263  48.725  56.050  1.00  0.00     0.210 C 
ENDBRANCH  23  28
ENDBRANCH   2  18
TORSDOF 5
ENDMDL
MODEL 8
REMARK VINA RESULT:      -8.0      2.369      7.329
REMARK  5 active torsions:
REMARK  status: ('A' for Active; 'I' for Inactive)
REMARK    1  A    between atoms: O_2  and  C_3 
REMARK    2  A    between atoms: C_10  and  C_11 
REMARK    3  A    between atoms: C_11  and  C_12 
REMARK       I    between atoms: C_12  and  N_13 
REMARK    4  A    between atoms: N_13  and  C_14 
REMARK    5  A    between atoms: C_21  and  O_22 
ROOT
HETATM    1  C   UNL     1      29.373  42.606  53.012  1.00  0.00     0.226 C 
HETATM    2  N   UNL     1      28.360  41.770  52.546  1.00  0.00    -0.326 N 
HETATM    3  O   UNL     1      30.241  43.129  52.324  1.00  0.00    -0.273 OA
HETATM    4  H   UNL     1      27.555  41.708  53.156  1.00  0.00     0.169 HD
ENDROOT
BRANCH   1   5
HETATM    5  C   UNL     1      29.280  42.806  54.525  1.00  0.00     0.144 C 
BRANCH   5   6
HETATM    6  C   UNL     1      29.158  44.230  54.967  1.00  0.00    -0.021 A 
HETATM    7  C   UNL     1      28.167  45.192  54.576  1.00  0.00     0.001 A 
HETATM    8  C   UNL     1      27.070  45.175  53.688  1.00  0.00     0.051 A 
HETATM    9  C   UNL     1      28.428  46.371  55.274  1.00  0.00     0.043 A 
HETATM   10  C   UNL     1      26.288  46.325  53.511  1.00  0.00     0.069 A 
HETATM   11  C   UNL     1      26.573  47.481  54.235  1.00  0.00     0.039 A 
HETATM   12  C   UNL     1      27.650  47.524  55.131  1.00  0.00     0.033 A 
HETATM   13  N   UNL     1      29.532  46.141  56.059  1.00  0.00    -0.365 N 
HETATM   14  H   UNL     1      29.951  46.828  56.672  1.00  0.00     0.165 HD
HETATM   15  C   UNL     1      29.974  44.858  55.893  1.00  0.00     0.097 A 
BRANCH  10  16
HETATM   16  O   UNL     1      25.265  46.181  52.611  1.00  0.00    -0.356 OA
HETATM   17  C   UNL     1      25.086  44.883  52.056  1.00  0.00     0.210 C 
ENDBRANCH  10  16
ENDBRANCH   5   6
ENDBRANCH   1   5
BRANCH   2  18
HETATM   18  C   UNL     1      28.123  41.370  51.204  1.00  0.00     0.047 A 
HETATM   19  C   UNL     1      28.618  40.192  50.567  1.00  0.00     0.022 A 
HETATM   20  C   UNL     1      28.357  39.985  49.184  1.00  0.00     0.102 A 
HETATM   21  C   UNL     1      29.307  39.143  51.220  1.00  0.00     0.017 A 
HETATM   22  N   UNL     1      28.826  38.905  48.516  1.00  0.00    -0.257 NA
HETATM   23  C   UNL     1      27.571  40.923  48.494  1.00  0.00     0.097 A 
HETATM   24  C   UNL     1      29.530  37.971  49.180  1.00  0.00     0.117 A 
HETATM   25  C   UNL     1      29.782  38.034  50.528  1.00  0.00     0.020 A 
HETATM   26  C   UNL     1      27.011  42.020  49.148  1.00  0.00     0.041 A 
HETATM   27  C   UNL     1      27.285  42.238  50.491  1.00  0.00     0.033 A 
BRANCH  23  28
HETATM   28  O   UNL     1      27.314  40.658  47.165  1.00  0.00    -0.354 OA
HETATM   29  C   UNL     1      25.943  40.573  46.798  1.00  0.00     0.210 C 
ENDBRANCH  23  28
ENDBRANCH   2  18
TORSDOF 5
ENDMDL
MODEL 9
REMARK VINA RESULT:      -8.0      2.042      6.797
REMARK  5 active torsions:
REMARK  status: ('A' for Active; 'I' for Inactive)
REMARK    1  A    between atoms: O_2  and  C_3 
REMARK    2  A    between atoms: C_10  and  C_11 
REMARK    3  A    between atoms: C_11  and  C_12 
REMARK       I    between atoms: C_12  and  N_13 
REMARK    4  A    between atoms: N_13  and  C_14 
REMARK    5  A    between atoms: C_21  and  O_22 
ROOT
HETATM    1  C   UNL     1      28.850  42.238  53.124  1.00  0.00     0.226 C 
HETATM    2  N   UNL     1      28.449  42.927  51.982  1.00  0.00    -0.326 N 
HETATM    3  O   UNL     1      28.181  41.410  53.732  1.00  0.00    -0.273 OA
HETATM    4  H   UNL     1      29.210  43.295  51.427  1.00  0.00     0.169 HD
ENDROOT
BRANCH   1   5
HETATM    5  C   UNL     1      30.261  42.640  53.553  1.00  0.00     0.144 C 
BRANCH   5   6
HETATM    6  C   UNL     1      30.332  43.459  54.803  1.00  0.00    -0.021 A 
HETATM    7  C   UNL     1      29.490  44.556  55.186  1.00  0.00     0.001 A 
HETATM    8  C   UNL     1      28.414  45.236  54.575  1.00  0.00     0.051 A 
HETATM    9  C   UNL     1      29.901  44.980  56.450  1.00  0.00     0.043 A 
HETATM   10  C   UNL     1      27.802  46.316  55.227  1.00  0.00     0.069 A 
HETATM   11  C   UNL     1      28.235  46.703  56.493  1.00  0.00     0.039 A 
HETATM   12  C   UNL     1      29.293  46.041  57.128  1.00  0.00     0.033 A 
HETATM   13  N   UNL     1      30.951  44.176  56.824  1.00  0.00    -0.365 N 
HETATM   14  H   UNL     1      31.452  44.261  57.699  1.00  0.00     0.165 HD
HETATM   15  C   UNL     1      31.213  43.253  55.851  1.00  0.00     0.097 A 
BRANCH  10  16
HETATM   16  O   UNL     1      26.782  46.898  54.520  1.00  0.00    -0.356 OA
HETATM   17  C   UNL     1      26.249  48.106  55.052  1.00  0.00     0.210 C 
ENDBRANCH  10  16
ENDBRANCH   5   6
ENDBRANCH   1   5
BRANCH   2  18
HETATM   18  C   UNL     1      27.212  42.807  51.293  1.00  0.00     0.047 A 
HETATM   19  C   UNL     1      26.269  43.850  51.048  1.00  0.00     0.022 A 
HETATM   20  C   UNL     1      25.034  43.539  50.416  1.00  0.00     0.102 A 
HETATM   21  C   UNL     1      26.485  45.222  51.321  1.00  0.00     0.017 A 
HETATM   22  N   UNL     1      24.085  44.478  50.185  1.00  0.00    -0.257 NA
HETATM   23  C   UNL     1      24.798  42.217  50.001  1.00  0.00     0.097 A 
HETATM   24  C   UNL     1      24.325  45.756  50.526  1.00  0.00     0.117 A 
HETATM   25  C   UNL     1      25.508  46.180  51.077  1.00  0.00     0.020 A 
HETATM   26  C   UNL     1      25.765  41.225  50.158  1.00  0.00     0.041 A 
HETATM   27  C   UNL     1      26.961  41.521  50.797  1.00  0.00     0.033 A 
BRANCH  23  28
HETATM   28  O   UNL     1      23.602  41.974  49.359  1.00  0.00    -0.354 OA
HETATM   29  C   UNL     1      23.685  41.265  48.129  1.00  0.00     0.210 C 
ENDBRANCH  23  28
ENDBRANCH   2  18
TORSDOF 5
ENDMDL
MODEL 10
REMARK VINA RESULT:      -8.0      1.847      7.293
REMARK  5 active torsions:
REMARK  status: ('A' for Active; 'I' for Inactive)
REMARK    1  A    between atoms: O_2  and  C_3 
REMARK    2  A    between atoms: C_10  and  C_11 
REMARK    3  A    between atoms: C_11  and  C_12 
REMARK       I    between atoms: C_12  and  N_13 
REMARK    4  A    between atoms: N_13  and  C_14 
REMARK    5  A    between atoms: C_21  and  O_22 
ROOT
HETATM    1  C   UNL     1      28.993  42.705  53.577  1.00  0.00     0.226 C 
HETATM    2  N   UNL     1      28.540  43.505  52.531  1.00  0.00    -0.326 N 
HETATM    3  O   UNL     1      28.331  41.859  54.167  1.00  0.00    -0.273 OA
HETATM    4  H   UNL     1      29.274  43.885  51.947  1.00  0.00     0.169 HD
ENDROOT
BRANCH   1   5
HETATM    5  C   UNL     1      30.450  43.007  53.922  1.00  0.00     0.144 C 
BRANCH   5   6
HETATM    6  C   UNL     1      30.674  43.549  55.299  1.00  0.00    -0.021 A 
HETATM    7  C   UNL     1      29.955  44.601  55.959  1.00  0.00     0.001 A 
HETATM    8  C   UNL     1      28.901  45.463  55.586  1.00  0.00     0.051 A 
HETATM    9  C   UNL     1      30.486  44.730  57.243  1.00  0.00     0.043 A 
HETATM   10  C   UNL     1      28.427  46.428  56.486  1.00  0.00     0.069 A 
HETATM   11  C   UNL     1      28.976  46.519  57.764  1.00  0.00     0.039 A 
HETATM   12  C   UNL     1      30.016  45.671  58.165  1.00  0.00     0.033 A 
HETATM   13  N   UNL     1      31.488  43.798  57.363  1.00  0.00    -0.365 N 
HETATM   14  H   UNL     1      32.052  43.669  58.192  1.00  0.00     0.165 HD
HETATM   15  C   UNL     1      31.604  43.075  56.208  1.00  0.00     0.097 A 
BRANCH  10  16
HETATM   16  O   UNL     1      27.415  47.209  55.996  1.00  0.00    -0.356 OA
HETATM   17  C   UNL     1      27.632  47.805  54.722  1.00  0.00     0.210 C 
ENDBRANCH  10  16
ENDBRANCH   5   6
ENDBRANCH   1   5
BRANCH   2  18
HETATM   18  C   UNL     1      27.250  43.498  51.936  1.00  0.00     0.047 A 
HETATM   19  C   UNL     1      26.719  42.498  51.065  1.00  0.00     0.022 A 
HETATM   20  C   UNL     1      25.435  42.690  50.484  1.00  0.00     0.102 A 
HETATM   21  C   UNL     1      27.342  41.261  50.773  1.00  0.00     0.017 A 
HETATM   22  N   UNL     1      24.891  41.793  49.627  1.00  0.00    -0.257 NA
HETATM   23  C   UNL     1      24.700  43.837  50.827  1.00  0.00     0.097 A 
HETATM   24  C   UNL     1      25.561  40.664  49.338  1.00  0.00     0.117 A 
HETATM   25  C   UNL     1      26.775  40.344  49.895  1.00  0.00     0.020 A 
HETATM   26  C   UNL     1      25.186  44.760  51.752  1.00  0.00     0.041 A 
HETATM   27  C   UNL     1      26.449  44.588  52.301  1.00  0.00     0.033 A 
BRANCH  23  28
HETATM   28  O   UNL     1      23.445  43.958  50.267  1.00  0.00    -0.354 OA
HETATM   29  C   UNL     1      23.279  45.010  49.325  1.00  0.00     0.210 C 
ENDBRANCH  23  28
ENDBRANCH   2  18
TORSDOF 5
ENDMDL
