MODEL 1
REMARK VINA RESULT:      -9.4      0.000      0.000
REMARK  6 active torsions:
REMARK  status: ('A' for Active; 'I' for Inactive)
REMARK    1  A    between atoms: C_2  and  N_3 
REMARK       I    between atoms: N_3  and  C_4 
REMARK       I    between atoms: C_4  and  N_5 
REMARK    2  A    between atoms: N_5  and  C_6 
REMARK    3  A    between atoms: C_8  and  O_9 
REMARK    4  A    between atoms: O_9  and  C_10 
REMARK    5  A    between atoms: C_10  and  C_11 
REMARK    6  A    between atoms: C_11  and  N_12 
ROOT
HETATM    1  N   UNL     1      26.629  45.182  52.526  1.00  0.00    -0.333 N 
HETATM    2  C   UNL     1      26.499  44.442  51.387  1.00  0.00     0.321 C 
HETATM    3  N   UNL     1      26.751  45.096  50.216  1.00  0.00    -0.309 N 
HETATM    4  O   UNL     1      26.260  43.239  51.372  1.00  0.00    -0.247 OA
HETATM    5  H   UNL     1      27.217  45.997  52.416  1.00  0.00     0.165 HD
HETATM    6  H   UNL     1      26.955  44.454  49.458  1.00  0.00     0.170 HD
ENDROOT
BRANCH   3   7
HETATM    7  C   UNL     1      26.581  46.447  49.867  1.00  0.00     0.039 A 
HETATM    8  C   UNL     1      25.349  47.105  49.931  1.00  0.00     0.066 A 
HETATM    9  C   UNL     1      25.242  48.422  49.485  1.00  0.00     0.070 A 
HETATM   10  C   UNL     1      26.360  49.114  49.028  1.00  0.00     0.037 A 
HETATM   11  C   UNL     1      27.588  48.462  48.955  1.00  0.00     0.005 A 
HETATM   12  C   UNL     1      27.693  47.127  49.354  1.00  0.00     0.030 A 
BRANCH   9  13
HETATM   13  O   UNL     1      24.053  49.092  49.548  1.00  0.00    -0.349 OA
BRANCH  13  14
HETATM   14  C   UNL     1      23.184  48.775  48.446  1.00  0.00     0.197 C 
BRANCH  14  15
HETATM   15  C   UNL     1      21.774  48.581  48.983  1.00  0.00     0.177 C 
BRANCH  15  16
HETATM   16  N   UNL     1      21.037  49.825  49.046  1.00  0.00    -0.279 N 
HETATM   17  N   UNL     1      20.300  50.107  50.138  1.00  0.00    -0.185 NA
HETATM   18  C   UNL     1      19.737  51.282  49.844  1.00  0.00     0.140 A 
HETATM   19  C   UNL     1      20.118  51.756  48.576  1.00  0.00     0.040 A 
HETATM   20  C   UNL     1      20.969  50.794  48.087  1.00  0.00     0.113 A 
ENDBRANCH  15  16
ENDBRANCH  14  15
ENDBRANCH  13  14
ENDBRANCH   9  13
ENDBRANCH   3   7
BRANCH   1  21
HETATM   21  C   UNL     1      26.479  44.639  53.895  1.00  0.00     0.039 C 
HETATM   22  C   UNL     1      24.999  44.403  54.234  1.00  0.00     0.039 C 
HETATM   23  C   UNL     1      27.159  45.576  54.943  1.00  0.00     0.070 C 
HETATM   24  C   UNL     1      28.525  44.972  55.096  1.00  0.00    -0.049 A 
HETATM   25  C   UNL     1      28.574  43.684  54.561  1.00  0.00    -0.049 A 
HETATM   26  C   UNL     1      29.624  45.515  55.740  1.00  0.00     0.007 A 
HETATM   27  C   UNL     1      27.246  43.281  54.002  1.00  0.00     0.070 C 
HETATM   28  C   UNL     1      29.719  42.911  54.658  1.00  0.00     0.007 A 
HETATM   29  C   UNL     1      30.835  43.453  55.296  1.00  0.00     0.001 A 
HETATM   30  C   UNL     1      30.788  44.747  55.835  1.00  0.00     0.001 A 
ENDBRANCH   1  21
TORSDOF 6
ENDMDL
MODEL 2
REMARK VINA RESULT:      -8.9      1.679      2.544
REMARK  6 active torsions:
REMARK  status: ('A' for Active; 'I' for Inactive)
REMARK    1  A    between atoms: C_2  and  N_3 
REMARK       I    between atoms: N_3  and  C_4 
REMARK       I    between atoms: C_4  and  N_5 
REMARK    2  A    between atoms: N_5  and  C_6 
REMARK    3  A    between atoms: C_8  and  O_9 
REMARK    4  A    between atoms: O_9  and  C_10 
REMARK    5  A    between atoms: C_10  and  C_11 
REMARK    6  A    between atoms: C_11  and  N_12 
ROOT
HETATM    1  N   UNL     1      26.685  45.252  52.372  1.00  0.00    -0.333 N 
HETATM    2  C   UNL     1      26.612  44.532  51.216  1.00  0.00     0.321 C 
HETATM    3  N   UNL     1      26.911  45.210  50.069  1.00  0.00    -0.309 N 
HETATM    4  O   UNL     1      26.383  43.329  51.168  1.00  0.00    -0.247 OA
HETATM    5  H   UNL     1      27.272  46.072  52.304  1.00  0.00     0.165 HD
HETATM    6  H   UNL     1      27.154  44.583  49.310  1.00  0.00     0.170 HD
ENDROOT
BRANCH   3   7
HETATM    7  C   UNL     1      26.748  46.566  49.738  1.00  0.00     0.039 A 
HETATM    8  C   UNL     1      25.501  47.197  49.692  1.00  0.00     0.066 A 
HETATM    9  C   UNL     1      25.411  48.524  49.271  1.00  0.00     0.070 A 
HETATM   10  C   UNL     1      26.553  49.250  48.946  1.00  0.00     0.037 A 
HETATM   11  C   UNL     1      27.796  48.624  48.983  1.00  0.00     0.005 A 
HETATM   12  C   UNL     1      27.890  47.281  49.358  1.00  0.00     0.030 A 
BRANCH   9  13
HETATM   13  O   UNL     1      24.206  49.168  49.229  1.00  0.00    -0.349 OA
BRANCH  13  14
HETATM   14  C   UNL     1      23.106  48.298  49.548  1.00  0.00     0.197 C 
BRANCH  14  15
HETATM   15  C   UNL     1      22.217  48.173  48.320  1.00  0.00     0.177 C 
BRANCH  15  16
HETATM   16  N   UNL     1      22.212  46.830  47.782  1.00  0.00    -0.279 N 
HETATM   17  N   UNL     1      21.969  46.637  46.471  1.00  0.00    -0.185 NA
HETATM   18  C   UNL     1      21.998  45.309  46.334  1.00  0.00     0.140 A 
HETATM   19  C   UNL     1      22.267  44.653  47.549  1.00  0.00     0.040 A 
HETATM   20  C   UNL     1      22.411  45.665  48.467  1.00  0.00     0.113 A 
ENDBRANCH  15  16
ENDBRANCH  14  15
ENDBRANCH  13  14
ENDBRANCH   9  13
ENDBRANCH   3   7
BRANCH   1  21
HETATM   21  C   UNL     1      26.478  44.682  53.723  1.00  0.00     0.039 C 
HETATM   22  C   UNL     1      24.983  44.474  54.009  1.00  0.00     0.039 C 
HETATM   23  C   UNL     1      27.146  45.579  54.814  1.00  0.00     0.070 C 
HETATM   24  C   UNL     1      28.491  44.937  54.996  1.00  0.00    -0.049 A 
HETATM   25  C   UNL     1      28.528  43.661  54.434  1.00  0.00    -0.049 A 
HETATM   26  C   UNL     1      29.582  45.439  55.688  1.00  0.00     0.007 A 
HETATM   27  C   UNL     1      27.209  43.303  53.823  1.00  0.00     0.070 C 
HETATM   28  C   UNL     1      29.650  42.857  54.549  1.00  0.00     0.007 A 
HETATM   29  C   UNL     1      30.757  43.358  55.235  1.00  0.00     0.001 A 
HETATM   30  C   UNL     1      30.723  44.641  55.801  1.00  0.00     0.001 A 
ENDBRANCH   1  21
TORSDOF 6
ENDMDL
MODEL 3
REMARK VINA RESULT:      -8.4      2.304      9.613
REMARK  6 active torsions:
REMARK  status: ('A' for Active; 'I' for Inactive)
REMARK    1  A    between atoms: C_2  and  N_3 
REMARK       I    between atoms: N_3  and  C_4 
REMARK       I    between atoms: C_4  and  N_5 
REMARK    2  A    between atoms: N_5  and  C_6 
REMARK    3  A    between atoms: C_8  and  O_9 
REMARK    4  A    between atoms: O_9  and  C_10 
REMARK    5  A    between atoms: C_10  and  C_11 
REMARK    6  A    between atoms: C_11  and  N_12 
ROOT
HETATM    1  N   UNL     1      21.253  46.422  48.699  1.00  0.00    -0.333 N 
HETATM    2  C   UNL     1      22.201  46.037  47.797  1.00  0.00     0.321 C 
HETATM    3  N   UNL     1      23.332  45.478  48.319  1.00  0.00    -0.309 N 
HETATM    4  O   UNL     1      22.056  46.091  46.581  1.00  0.00    -0.247 OA
HETATM    5  H   UNL     1      21.324  45.949  49.590  1.00  0.00     0.165 HD
HETATM    6  H   UNL     1      23.839  44.933  47.630  1.00  0.00     0.170 HD
ENDROOT
BRANCH   3   7
HETATM    7  C   UNL     1      23.977  45.694  49.549  1.00  0.00     0.039 A 
HETATM    8  C   UNL     1      24.075  44.717  50.543  1.00  0.00     0.066 A 
HETATM    9  C   UNL     1      24.654  45.034  51.773  1.00  0.00     0.070 A 
HETATM   10  C   UNL     1      25.187  46.298  52.006  1.00  0.00     0.037 A 
HETATM   11  C   UNL     1      25.085  47.277  51.021  1.00  0.00     0.005 A 
HETATM   12  C   UNL     1      24.464  46.982  49.805  1.00  0.00     0.030 A 
BRANCH   9  13
HETATM   13  O   UNL     1      24.773  44.094  52.757  1.00  0.00    -0.349 OA
BRANCH  13  14
HETATM   14  C   UNL     1      25.914  44.324  53.603  1.00  0.00     0.197 C 
BRANCH  14  15
HETATM   15  C   UNL     1      27.098  43.554  53.037  1.00  0.00     0.177 C 
BRANCH  15  16
HETATM   16  N   UNL     1      28.254  43.611  53.906  1.00  0.00    -0.279 N 
HETATM   17  N   UNL     1      28.544  44.756  54.554  1.00  0.00    -0.185 NA
HETATM   18  C   UNL     1      29.669  44.469  55.214  1.00  0.00     0.140 A 
HETATM   19  C   UNL     1      30.093  43.146  55.000  1.00  0.00     0.040 A 
HETATM   20  C   UNL     1      29.149  42.611  54.155  1.00  0.00     0.113 A 
ENDBRANCH  15  16
ENDBRANCH  14  15
ENDBRANCH  13  14
ENDBRANCH   9  13
ENDBRANCH   3   7
BRANCH   1  21
HETATM   21  C   UNL     1      19.928  46.972  48.333  1.00  0.00     0.039 C 
HETATM   22  C   UNL     1      18.985  45.859  47.850  1.00  0.00     0.039 C 
HETATM   23  C   UNL     1      20.071  48.100  47.262  1.00  0.00     0.070 C 
HETATM   24  C   UNL     1      20.108  49.349  48.095  1.00  0.00    -0.049 A 
HETATM   25  C   UNL     1      19.676  49.104  49.399  1.00  0.00    -0.049 A 
HETATM   26  C   UNL     1      20.435  50.631  47.685  1.00  0.00     0.007 A 
HETATM   27  C   UNL     1      19.292  47.669  49.580  1.00  0.00     0.070 C 
HETATM   28  C   UNL     1      19.560  50.131  50.321  1.00  0.00     0.007 A 
HETATM   29  C   UNL     1      19.896  51.424  49.920  1.00  0.00     0.001 A 
HETATM   30  C   UNL     1      20.332  51.673  48.610  1.00  0.00     0.001 A 
ENDBRANCH   1  21
TORSDOF 6
ENDMDL
MODEL 4
REMARK VINA RESULT:      -8.2      5.671      8.630
REMARK  6 active torsions:
REMARK  status: ('A' for Active; 'I' for Inactive)
REMARK    1  A    between atoms: C_2  and  N_3 
REMARK       I    between atoms: N_3  and  C_4 
REMARK       I    between atoms: C_4  and  N_5 
REMARK    2  A    between atoms: N_5  and  C_6 
REMARK    3  A    between atoms: C_8  and  O_9 
REMARK    4  A    between atoms: O_9  and  C_10 
REMARK    5  A    between atoms: C_10  and  C_11 
REMARK    6  A    between atoms: C_11  and  N_12 
ROOT
HETATM    1  N   UNL     1      22.886  48.433  48.300  1.00  0.00    -0.333 N 
HETATM    2  C   UNL     1      23.314  47.551  49.249  1.00  0.00     0.321 C 
HETATM    3  N   UNL     1      23.119  46.229  48.969  1.00  0.00    -0.309 N 
HETATM    4  O   UNL     1      23.920  47.873  50.264  1.00  0.00    -0.247 OA
HETATM    5  H   UNL     1      22.802  48.028  47.377  1.00  0.00     0.165 HD
HETATM    6  H   UNL     1      23.720  45.630  49.523  1.00  0.00     0.170 HD
ENDROOT
BRANCH   3   7
HETATM    7  C   UNL     1      22.119  45.591  48.214  1.00  0.00     0.039 A 
HETATM    8  C   UNL     1      20.786  45.508  48.624  1.00  0.00     0.066 A 
HETATM    9  C   UNL     1      19.869  44.784  47.862  1.00  0.00     0.070 A 
HETATM   10  C   UNL     1      20.250  44.185  46.666  1.00  0.00     0.037 A 
HETATM   11  C   UNL     1      21.579  44.258  46.255  1.00  0.00     0.005 A 
HETATM   12  C   UNL     1      22.513  44.941  47.037  1.00  0.00     0.030 A 
BRANCH   9  13
HETATM   13  O   UNL     1      18.557  44.697  48.236  1.00  0.00    -0.349 OA
BRANCH  13  14
HETATM   14  C   UNL     1      17.715  45.604  47.501  1.00  0.00     0.197 C 
BRANCH  14  15
HETATM   15  C   UNL     1      17.118  46.606  48.478  1.00  0.00     0.177 C 
BRANCH  15  16
HETATM   16  N   UNL     1      16.618  47.789  47.812  1.00  0.00    -0.279 N 
HETATM   17  N   UNL     1      15.329  48.147  47.967  1.00  0.00    -0.185 NA
HETATM   18  C   UNL     1      15.206  49.231  47.198  1.00  0.00     0.140 A 
HETATM   19  C   UNL     1      16.411  49.573  46.559  1.00  0.00     0.040 A 
HETATM   20  C   UNL     1      17.311  48.625  46.985  1.00  0.00     0.113 A 
ENDBRANCH  15  16
ENDBRANCH  14  15
ENDBRANCH  13  14
ENDBRANCH   9  13
ENDBRANCH   3   7
BRANCH   1  21
HETATM   21  C   UNL     1      23.078  49.899  48.377  1.00  0.00     0.039 C 
HETATM   22  C   UNL     1      24.542  50.276  48.101  1.00  0.00     0.039 C 
HETATM   23  C   UNL     1      22.600  50.450  49.758  1.00  0.00     0.070 C 
HETATM   24  C   UNL     1      21.189  50.879  49.477  1.00  0.00    -0.049 A 
HETATM   25  C   UNL     1      20.944  50.956  48.105  1.00  0.00    -0.049 A 
HETATM   26  C   UNL     1      20.218  51.246  50.393  1.00  0.00     0.007 A 
HETATM   27  C   UNL     1      22.166  50.599  47.318  1.00  0.00     0.070 C 
HETATM   28  C   UNL     1      19.727  51.401  47.618  1.00  0.00     0.007 A 
HETATM   29  C   UNL     1      18.738  51.764  48.533  1.00  0.00     0.001 A 
HETATM   30  C   UNL     1      18.982  51.687  49.912  1.00  0.00     0.001 A 
ENDBRANCH   1  21
TORSDOF 6
ENDMDL
MODEL 5
REMARK VINA RESULT:      -8.0      1.890      3.315
REMARK  6 active torsions:
REMARK  status: ('A' for Active; 'I' for Inactive)
REMARK    1  A    between atoms: C_2  and  N_3 
REMARK       I    between atoms: N_3  and  C_4 
REMARK       I    between atoms: C_4  and  N_5 
REMARK    2  A    between atoms: N_5  and  C_6 
REMARK    3  A    between atoms: C_8  and  O_9 
REMARK    4  A    between atoms: O_9  and  C_10 
REMARK    5  A    between atoms: C_10  and  C_11 
REMARK    6  A    between atoms: C_11  and  N_12 
ROOT
HETATM    1  N   UNL     1      25.469  45.906  50.010  1.00  0.00    -0.333 N 
HETATM    2  C   UNL     1      26.503  46.655  49.529  1.00  0.00     0.321 C 
HETATM    3  N   UNL     1      26.256  47.989  49.378  1.00  0.00    -0.309 N 
HETATM    4  O   UNL     1      27.628  46.217  49.315  1.00  0.00    -0.247 OA
HETATM    5  H   UNL     1      24.781  46.442  50.519  1.00  0.00     0.165 HD
HETATM    6  H   UNL     1      27.112  48.531  49.335  1.00  0.00     0.170 HD
ENDROOT
BRANCH   3   7
HETATM    7  C   UNL     1      25.063  48.671  49.085  1.00  0.00     0.039 A 
HETATM    8  C   UNL     1      23.797  48.163  49.387  1.00  0.00     0.066 A 
HETATM    9  C   UNL     1      22.656  48.859  48.987  1.00  0.00     0.070 A 
HETATM   10  C   UNL     1      22.759  50.085  48.337  1.00  0.00     0.037 A 
HETATM   11  C   UNL     1      24.018  50.593  48.026  1.00  0.00     0.005 A 
HETATM   12  C   UNL     1      25.165  49.878  48.381  1.00  0.00     0.030 A 
BRANCH   9  13
HETATM   13  O   UNL     1      21.406  48.390  49.280  1.00  0.00    -0.349 OA
BRANCH  13  14
HETATM   14  C   UNL     1      20.582  48.249  48.109  1.00  0.00     0.197 C 
BRANCH  14  15
HETATM   15  C   UNL     1      19.161  48.656  48.468  1.00  0.00     0.177 C 
BRANCH  15  16
HETATM   16  N   UNL     1      19.060  50.064  48.788  1.00  0.00    -0.279 N 
HETATM   17  N   UNL     1      19.345  50.984  47.846  1.00  0.00    -0.185 NA
HETATM   18  C   UNL     1      19.192  52.147  48.483  1.00  0.00     0.140 A 
HETATM   19  C   UNL     1      18.801  51.976  49.823  1.00  0.00     0.040 A 
HETATM   20  C   UNL     1      18.714  50.615  49.989  1.00  0.00     0.113 A 
ENDBRANCH  15  16
ENDBRANCH  14  15
ENDBRANCH  13  14
ENDBRANCH   9  13
ENDBRANCH   3   7
BRANCH   1  21
HETATM   21  C   UNL     1      25.560  44.460  50.320  1.00  0.00     0.039 C 
HETATM   22  C   UNL     1      25.157  43.611  49.104  1.00  0.00     0.039 C 
HETATM   23  C   UNL     1      24.698  44.105  51.572  1.00  0.00     0.070 C 
HETATM   24  C   UNL     1      25.693  44.177  52.694  1.00  0.00    -0.049 A 
HETATM   25  C   UNL     1      27.003  44.185  52.214  1.00  0.00    -0.049 A 
HETATM   26  C   UNL     1      25.437  44.160  54.055  1.00  0.00     0.007 A 
HETATM   27  C   UNL     1      27.030  44.107  50.720  1.00  0.00     0.070 C 
HETATM   28  C   UNL     1      28.085  44.175  53.079  1.00  0.00     0.007 A 
HETATM   29  C   UNL     1      27.837  44.168  54.452  1.00  0.00     0.001 A 
HETATM   30  C   UNL     1      26.521  44.161  54.938  1.00  0.00     0.001 A 
ENDBRANCH   1  21
TORSDOF 6
ENDMDL
MODEL 6
REMARK VINA RESULT:      -8.0     11.905     13.852
REMARK  6 active torsions:
REMARK  status: ('A' for Active; 'I' for Inactive)
REMARK    1  A    between atoms: C_2  and  N_3 
REMARK       I    between atoms: N_3  and  C_4 
REMARK       I    between atoms: C_4  and  N_5 
REMARK    2  A    between atoms: N_5  and  C_6 
REMARK    3  A    between atoms: C_8  and  O_9 
REMARK    4  A    between atoms: O_9  and  C_10 
REMARK    5  A    between atoms: C_10  and  C_11 
REMARK    6  A    between atoms: C_11  and  N_12 
ROOT
HETATM    1  N   UNL     1      28.923  51.803  40.387  1.00  0.00    -0.333 N 
HETATM    2  C   UNL     1      27.692  51.930  40.961  1.00  0.00     0.321 C 
HETATM    3  N   UNL     1      26.871  50.844  40.862  1.00  0.00    -0.309 N 
HETATM    4  O   UNL     1      27.333  52.906  41.610  1.00  0.00    -0.247 OA
HETATM    5  H   UNL     1      29.220  50.844  40.270  1.00  0.00     0.165 HD
HETATM    6  H   UNL     1      26.130  50.864  41.554  1.00  0.00     0.170 HD
ENDROOT
BRANCH   3   7
HETATM    7  C   UNL     1      26.779  49.853  39.870  1.00  0.00     0.039 A 
HETATM    8  C   UNL     1      26.992  48.495  40.122  1.00  0.00     0.066 A 
HETATM    9  C   UNL     1      26.968  47.581  39.068  1.00  0.00     0.070 A 
HETATM   10  C   UNL     1      26.680  47.994  37.771  1.00  0.00     0.037 A 
HETATM   11  C   UNL     1      26.474  49.347  37.513  1.00  0.00     0.005 A 
HETATM   12  C   UNL     1      26.543  50.275  38.555  1.00  0.00     0.030 A 
BRANCH   9  13
HETATM   13  O   UNL     1      27.162  46.247  39.290  1.00  0.00    -0.349 OA
BRANCH  13  14
HETATM   14  C   UNL     1      28.065  45.656  38.339  1.00  0.00     0.197 C 
BRANCH  14  15
HETATM   15  C   UNL     1      29.424  45.489  39.003  1.00  0.00     0.177 C 
BRANCH  15  16
HETATM   16  N   UNL     1      30.043  46.761  39.310  1.00  0.00    -0.279 N 
HETATM   17  N   UNL     1      30.315  47.627  38.314  1.00  0.00    -0.185 NA
HETATM   18  C   UNL     1      30.906  48.650  38.937  1.00  0.00     0.140 A 
HETATM   19  C   UNL     1      31.005  48.446  40.325  1.00  0.00     0.040 A 
HETATM   20  C   UNL     1      30.427  47.217  40.538  1.00  0.00     0.113 A 
ENDBRANCH  15  16
ENDBRANCH  14  15
ENDBRANCH  13  14
ENDBRANCH   9  13
ENDBRANCH   3   7
BRANCH   1  21
HETATM   21  C   UNL     1      29.985  52.833  40.455  1.00  0.00     0.039 C 
HETATM   22  C   UNL     1      29.534  54.132  39.769  1.00  0.00     0.039 C 
HETATM   23  C   UNL     1      31.318  52.299  39.841  1.00  0.00     0.070 C 
HETATM   24  C   UNL     1      32.057  51.784  41.042  1.00  0.00    -0.049 A 
HETATM   25  C   UNL     1      31.489  52.251  42.228  1.00  0.00    -0.049 A 
HETATM   26  C   UNL     1      33.205  51.010  41.062  1.00  0.00     0.007 A 
HETATM   27  C   UNL     1      30.317  53.139  41.952  1.00  0.00     0.070 C 
HETATM   28  C   UNL     1      32.054  51.958  43.458  1.00  0.00     0.007 A 
HETATM   29  C   UNL     1      33.206  51.171  43.489  1.00  0.00     0.001 A 
HETATM   30  C   UNL     1      33.778  50.699  42.298  1.00  0.00     0.001 A 
ENDBRANCH   1  21
TORSDOF 6
ENDMDL
MODEL 7
REMARK VINA RESULT:      -7.9      2.500     10.004
REMARK  6 active torsions:
REMARK  status: ('A' for Active; 'I' for Inactive)
REMARK    1  A    between atoms: C_2  and  N_3 
REMARK       I    between atoms: N_3  and  C_4 
REMARK       I    between atoms: C_4  and  N_5 
REMARK    2  A    between atoms: N_5  and  C_6 
REMARK    3  A    between atoms: C_8  and  O_9 
REMARK    4  A    between atoms: O_9  and  C_10 
REMARK    5  A    between atoms: C_10  and  C_11 
REMARK    6  A    between atoms: C_11  and  N_12 
ROOT
HETATM    1  N   UNL     1      21.869  48.778  49.508  1.00  0.00    -0.333 N 
HETATM    2  C   UNL     1      23.093  49.202  49.080  1.00  0.00     0.321 C 
HETATM    3  N   UNL     1      24.094  48.273  49.114  1.00  0.00    -0.309 N 
HETATM    4  O   UNL     1      23.310  50.310  48.603  1.00  0.00    -0.247 OA
HETATM    5  H   UNL     1      21.749  47.775  49.468  1.00  0.00     0.165 HD
HETATM    6  H   UNL     1      24.866  48.524  48.507  1.00  0.00     0.170 HD
ENDROOT
BRANCH   3   7
HETATM    7  C   UNL     1      24.297  47.178  49.972  1.00  0.00     0.039 A 
HETATM    8  C   UNL     1      25.044  47.258  51.151  1.00  0.00     0.066 A 
HETATM    9  C   UNL     1      25.275  46.108  51.906  1.00  0.00     0.070 A 
HETATM   10  C   UNL     1      24.724  44.886  51.532  1.00  0.00     0.037 A 
HETATM   11  C   UNL     1      23.985  44.799  50.354  1.00  0.00     0.005 A 
HETATM   12  C   UNL     1      23.790  45.937  49.568  1.00  0.00     0.030 A 
BRANCH   9  13
HETATM   13  O   UNL     1      25.992  46.161  53.068  1.00  0.00    -0.349 OA
BRANCH  13  14
HETATM   14  C   UNL     1      26.079  44.882  53.720  1.00  0.00     0.197 C 
BRANCH  14  15
HETATM   15  C   UNL     1      27.290  44.891  54.640  1.00  0.00     0.177 C 
BRANCH  15  16
HETATM   16  N   UNL     1      28.403  44.149  54.087  1.00  0.00    -0.279 N 
HETATM   17  N   UNL     1      28.384  43.787  52.790  1.00  0.00    -0.185 NA
HETATM   18  C   UNL     1      29.518  43.100  52.636  1.00  0.00     0.140 A 
HETATM   19  C   UNL     1      30.266  43.028  53.825  1.00  0.00     0.040 A 
HETATM   20  C   UNL     1      29.522  43.727  54.746  1.00  0.00     0.113 A 
ENDBRANCH  15  16
ENDBRANCH  14  15
ENDBRANCH  13  14
ENDBRANCH   9  13
ENDBRANCH   3   7
BRANCH   1  21
HETATM   21  C   UNL     1      20.642  49.605  49.473  1.00  0.00     0.039 C 
HETATM   22  C   UNL     1      20.842  50.919  50.245  1.00  0.00     0.039 C 
HETATM   23  C   UNL     1      19.416  48.806  50.019  1.00  0.00     0.070 C 
HETATM   24  C   UNL     1      18.800  48.244  48.770  1.00  0.00    -0.049 A 
HETATM   25  C   UNL     1      19.293  48.877  47.629  1.00  0.00    -0.049 A 
HETATM   26  C   UNL     1      17.810  47.280  48.675  1.00  0.00     0.007 A 
HETATM   27  C   UNL     1      20.283  49.940  47.988  1.00  0.00     0.070 C 
HETATM   28  C   UNL     1      18.809  48.566  46.370  1.00  0.00     0.007 A 
HETATM   29  C   UNL     1      17.818  47.590  46.263  1.00  0.00     0.001 A 
HETATM   30  C   UNL     1      17.321  46.951  47.408  1.00  0.00     0.001 A 
ENDBRANCH   1  21
TORSDOF 6
ENDMDL
MODEL 8
REMARK VINA RESULT:      -7.9      2.192      9.720
REMARK  6 active torsions:
REMARK  status: ('A' for Active; 'I' for Inactive)
REMARK    1  A    between atoms: C_2  and  N_3 
REMARK       I    between atoms: N_3  and  C_4 
REMARK       I    between atoms: C_4  and  N_5 
REMARK    2  A    between atoms: N_5  and  C_6 
REMARK    3  A    between atoms: C_8  and  O_9 
REMARK    4  A    between atoms: O_9  and  C_10 
REMARK    5  A    between atoms: C_10  and  C_11 
REMARK    6  A    between atoms: C_11  and  N_12 
ROOT
HETATM    1  N   UNL     1      23.044  48.706  49.065  1.00  0.00    -0.333 N 
HETATM    2  C   UNL     1      22.894  47.493  48.459  1.00  0.00     0.321 C 
HETATM    3  N   UNL     1      23.231  46.404  49.211  1.00  0.00    -0.309 N 
HETATM    4  O   UNL     1      22.409  47.335  47.344  1.00  0.00    -0.247 OA
HETATM    5  H   UNL     1      23.044  48.660  50.074  1.00  0.00     0.165 HD
HETATM    6  H   UNL     1      22.811  45.552  48.855  1.00  0.00     0.170 HD
ENDROOT
BRANCH   3   7
HETATM    7  C   UNL     1      24.184  46.256  50.233  1.00  0.00     0.039 A 
HETATM    8  C   UNL     1      24.143  45.223  51.174  1.00  0.00     0.066 A 
HETATM    9  C   UNL     1      25.076  45.193  52.211  1.00  0.00     0.070 A 
HETATM   10  C   UNL     1      26.085  46.147  52.292  1.00  0.00     0.037 A 
HETATM   11  C   UNL     1      26.126  47.182  51.362  1.00  0.00     0.005 A 
HETATM   12  C   UNL     1      25.167  47.247  50.348  1.00  0.00     0.030 A 
BRANCH   9  13
HETATM   13  O   UNL     1      25.065  44.188  53.137  1.00  0.00    -0.349 OA
BRANCH  13  14
HETATM   14  C   UNL     1      25.916  44.468  54.263  1.00  0.00     0.197 C 
BRANCH  14  15
HETATM   15  C   UNL     1      26.598  43.175  54.685  1.00  0.00     0.177 C 
BRANCH  15  16
HETATM   16  N   UNL     1      27.792  42.908  53.911  1.00  0.00    -0.279 N 
HETATM   17  N   UNL     1      28.075  41.645  53.537  1.00  0.00    -0.185 NA
HETATM   18  C   UNL     1      29.239  41.759  52.893  1.00  0.00     0.140 A 
HETATM   19  C   UNL     1      29.696  43.088  52.845  1.00  0.00     0.040 A 
HETATM   20  C   UNL     1      28.731  43.812  53.505  1.00  0.00     0.113 A 
ENDBRANCH  15  16
ENDBRANCH  14  15
ENDBRANCH  13  14
ENDBRANCH   9  13
ENDBRANCH   3   7
BRANCH   1  21
HETATM   21  C   UNL     1      22.659  49.998  48.450  1.00  0.00     0.039 C 
HETATM   22  C   UNL     1      23.847  50.627  47.705  1.00  0.00     0.039 C 
HETATM   23  C   UNL     1      22.079  50.973  49.523  1.00  0.00     0.070 C 
HETATM   24  C   UNL     1      20.599  50.742  49.420  1.00  0.00    -0.049 A 
HETATM   25  C   UNL     1      20.271  50.056  48.250  1.00  0.00    -0.049 A 
HETATM   26  C   UNL     1      19.611  51.186  50.283  1.00  0.00     0.007 A 
HETATM   27  C   UNL     1      21.492  49.763  47.436  1.00  0.00     0.070 C 
HETATM   28  C   UNL     1      18.952  49.799  47.915  1.00  0.00     0.007 A 
HETATM   29  C   UNL     1      17.950  50.233  48.783  1.00  0.00     0.001 A 
HETATM   30  C   UNL     1      18.277  50.923  49.960  1.00  0.00     0.001 A 
ENDBRANCH   1  21
TORSDOF 6
ENDMDL
MODEL 9
REMARK VINA RESULT:      -7.8      4.142      8.477
REMARK  6 active torsions:
REMARK  status: ('A' for Active; 'I' for Inactive)
REMARK    1  A    between atoms: C_2  and  N_3 
REMARK       I    between atoms: N_3  and  C_4 
REMARK       I    between atoms: C_4  and  N_5 
REMARK    2  A    between atoms: N_5  and  C_6 
REMARK    3  A    between atoms: C_8  and  O_9 
REMARK    4  A    between atoms: O_9  and  C_10 
REMARK    5  A    between atoms: C_10  and  C_11 
REMARK    6  A    between atoms: C_11  and  N_12 
ROOT
HETATM    1  N   UNL     1      20.101  46.147  48.278  1.00  0.00    -0.333 N 
HETATM    2  C   UNL     1      20.850  45.784  47.197  1.00  0.00     0.321 C 
HETATM    3  N   UNL     1      21.856  44.893  47.438  1.00  0.00    -0.309 N 
HETATM    4  O   UNL     1      20.616  46.139  46.047  1.00  0.00    -0.247 OA
HETATM    5  H   UNL     1      20.134  45.482  49.038  1.00  0.00     0.165 HD
HETATM    6  H   UNL     1      22.158  44.423  46.592  1.00  0.00     0.170 HD
ENDROOT
BRANCH   3   7
HETATM    7  C   UNL     1      22.638  44.685  48.588  1.00  0.00     0.039 A 
HETATM    8  C   UNL     1      23.537  45.632  49.084  1.00  0.00     0.066 A 
HETATM    9  C   UNL     1      24.341  45.319  50.180  1.00  0.00     0.070 A 
HETATM   10  C   UNL     1      24.223  44.091  50.824  1.00  0.00     0.037 A 
HETATM   11  C   UNL     1      23.334  43.140  50.329  1.00  0.00     0.005 A 
HETATM   12  C   UNL     1      22.559  43.429  49.203  1.00  0.00     0.030 A 
BRANCH   9  13
HETATM   13  O   UNL     1      25.219  46.232  50.692  1.00  0.00    -0.349 OA
BRANCH  13  14
HETATM   14  C   UNL     1      26.244  46.597  49.751  1.00  0.00     0.197 C 
BRANCH  14  15
HETATM   15  C   UNL     1      26.570  48.071  49.940  1.00  0.00     0.177 C 
BRANCH  15  16
HETATM   16  N   UNL     1      25.680  48.929  49.187  1.00  0.00    -0.279 N 
HETATM   17  N   UNL     1      24.370  48.969  49.499  1.00  0.00    -0.185 NA
HETATM   18  C   UNL     1      23.856  49.810  48.598  1.00  0.00     0.140 A 
HETATM   19  C   UNL     1      24.831  50.314  47.719  1.00  0.00     0.040 A 
HETATM   20  C   UNL     1      26.006  49.733  48.132  1.00  0.00     0.113 A 
ENDBRANCH  15  16
ENDBRANCH  14  15
ENDBRANCH  13  14
ENDBRANCH   9  13
ENDBRANCH   3   7
BRANCH   1  21
HETATM   21  C   UNL     1      18.918  47.035  48.212  1.00  0.00     0.039 C 
HETATM   22  C   UNL     1      17.642  46.230  47.921  1.00  0.00     0.039 C 
HETATM   23  C   UNL     1      19.130  48.166  47.156  1.00  0.00     0.070 C 
HETATM   24  C   UNL     1      19.654  49.303  47.984  1.00  0.00    -0.049 A 
HETATM   25  C   UNL     1      19.445  49.081  49.345  1.00  0.00    -0.049 A 
HETATM   26  C   UNL     1      20.212  50.489  47.536  1.00  0.00     0.007 A 
HETATM   27  C   UNL     1      18.748  47.778  49.578  1.00  0.00     0.070 C 
HETATM   28  C   UNL     1      19.787  50.035  50.289  1.00  0.00     0.007 A 
HETATM   29  C   UNL     1      20.359  51.229  49.849  1.00  0.00     0.001 A 
HETATM   30  C   UNL     1      20.570  51.455  48.481  1.00  0.00     0.001 A 
ENDBRANCH   1  21
TORSDOF 6
ENDMDL
MODEL 10
REMARK VINA RESULT:      -7.8     11.852     15.767
REMARK  6 active torsions:
REMARK  status: ('A' for Active; 'I' for Inactive)
REMARK    1  A    between atoms: C_2  and  N_3 
REMARK       I    between atoms: N_3  and  C_4 
REMARK       I    between atoms: C_4  and  N_5 
REMARK    2  A    between atoms: N_5  and  C_6 
REMARK    3  A    between atoms: C_8  and  O_9 
REMARK    4  A    between atoms: O_9  and  C_10 
REMARK    5  A    between atoms: C_10  and  C_11 
REMARK    6  A    between atoms: C_11  and  N_12 
ROOT
HETATM    1  N   UNL     1      32.137  49.771  41.531  1.00  0.00    -0.333 N 
HETATM    2  C   UNL     1      32.999  48.758  41.225  1.00  0.00     0.321 C 
HETATM    3  N   UNL     1      34.325  49.026  41.407  1.00  0.00    -0.309 N 
HETATM    4  O   UNL     1      32.647  47.633  40.888  1.00  0.00    -0.247 OA
HETATM    5  H   UNL     1      32.522  50.454  42.169  1.00  0.00     0.165 HD
HETATM    6  H   UNL     1      34.877  48.178  41.479  1.00  0.00     0.170 HD
ENDROOT
BRANCH   3   7
HETATM    7  C   UNL     1      35.036  50.235  41.312  1.00  0.00     0.039 A 
HETATM    8  C   UNL     1      35.329  51.038  42.417  1.00  0.00     0.066 A 
HETATM    9  C   UNL     1      35.964  52.267  42.233  1.00  0.00     0.070 A 
HETATM   10  C   UNL     1      36.361  52.683  40.966  1.00  0.00     0.037 A 
HETATM   11  C   UNL     1      36.065  51.889  39.860  1.00  0.00     0.005 A 
HETATM   12  C   UNL     1      35.387  50.680  40.031  1.00  0.00     0.030 A 
BRANCH   9  13
HETATM   13  O   UNL     1      36.272  53.066  43.298  1.00  0.00    -0.349 OA
BRANCH  13  14
HETATM   14  C   UNL     1      37.679  53.356  43.379  1.00  0.00     0.197 C 
BRANCH  14  15
HETATM   15  C   UNL     1      37.873  54.554  44.296  1.00  0.00     0.177 C 
BRANCH  15  16
HETATM   16  N   UNL     1      38.246  54.162  45.638  1.00  0.00    -0.279 N 
HETATM   17  N   UNL     1      37.985  54.988  46.670  1.00  0.00    -0.185 NA
HETATM   18  C   UNL     1      38.489  54.344  47.726  1.00  0.00     0.140 A 
HETATM   19  C   UNL     1      39.063  53.108  47.375  1.00  0.00     0.040 A 
HETATM   20  C   UNL     1      38.880  53.014  46.016  1.00  0.00     0.113 A 
ENDBRANCH  15  16
ENDBRANCH  14  15
ENDBRANCH  13  14
ENDBRANCH   9  13
ENDBRANCH   3   7
BRANCH   1  21
HETATM   21  C   UNL     1      30.662  49.654  41.479  1.00  0.00     0.039 C 
HETATM   22  C   UNL     1      30.162  48.577  42.455  1.00  0.00     0.039 C 
HETATM   23  C   UNL     1      30.177  49.371  40.022  1.00  0.00     0.070 C 
HETATM   24  C   UNL     1      29.859  50.743  39.502  1.00  0.00    -0.049 A 
HETATM   25  C   UNL     1      29.777  51.673  40.539  1.00  0.00    -0.049 A 
HETATM   26  C   UNL     1      29.589  51.111  38.195  1.00  0.00     0.007 A 
HETATM   27  C   UNL     1      30.018  51.026  41.866  1.00  0.00     0.070 C 
HETATM   28  C   UNL     1      29.423  52.990  40.294  1.00  0.00     0.007 A 
HETATM   29  C   UNL     1      29.158  53.373  38.979  1.00  0.00     0.001 A 
HETATM   30  C   UNL     1      29.241  52.440  37.935  1.00  0.00     0.001 A 
ENDBRANCH   1  21
TORSDOF 6
ENDMDL
