MODEL 1
REMARK VINA RESULT:      -9.4      0.000      0.000
REMARK  7 active torsions:
REMARK  status: ('A' for Active; 'I' for Inactive)
REMARK    1  A    between atoms: C_4  and  C_5 
REMARK    2  A    between atoms: N_6  and  C_7 
REMARK    3  A    between atoms: C_14  and  C_15 
REMARK       I    between atoms: C_15  and  N_16 
REMARK    4  A    between atoms: N_16  and  N_17 
REMARK       I    between atoms: N_17  and  C_18 
REMARK    5  A    between atoms: C_18  and  C_19 
REMARK    6  A    between atoms: C_19  and  C_20 
REMARK    7  A    between atoms: C_23  and  O_24 
ROOT
HETATM    1  C   UNL     1      26.444  44.851  51.199  1.00  0.00     0.164 C 
HETATM    2  N   UNL     1      25.699  44.360  50.128  1.00  0.00    -0.213 N 
HETATM    3  N   UNL     1      24.953  45.374  49.601  1.00  0.00    -0.139 NA
HETATM    4  C   UNL     1      25.433  46.459  50.232  1.00  0.00     0.241 C 
HETATM    5  N   UNL     1      26.360  46.170  51.201  1.00  0.00    -0.202 NA
ENDROOT
BRANCH   4   6
HETATM    6  C   UNL     1      24.992  47.831  49.918  1.00  0.00     0.309 C 
HETATM    7  N   UNL     1      23.620  48.007  49.987  1.00  0.00    -0.261 N 
HETATM    8  H   UNL     1      22.994  47.227  50.195  1.00  0.00     0.190 HD
HETATM    9  O   UNL     1      25.750  48.752  49.613  1.00  0.00    -0.262 OA
BRANCH   7  10
HETATM   10  N   UNL     1      23.067  49.237  49.626  1.00  0.00    -0.267 N 
HETATM   11  C   UNL     1      22.453  49.359  48.397  1.00  0.00     0.240 C 
HETATM   12  O   UNL     1      22.371  48.430  47.595  1.00  0.00    -0.272 OA
HETATM   13  H   UNL     1      23.062  49.966  50.338  1.00  0.00     0.190 HD
BRANCH  11  14
HETATM   14  C   UNL     1      21.909  50.746  48.116  1.00  0.00     0.143 C 
BRANCH  14  15
HETATM   15  C   UNL     1      20.522  50.964  48.667  1.00  0.00    -0.049 A 
HETATM   16  C   UNL     1      19.922  50.006  49.499  1.00  0.00     0.010 A 
HETATM   17  C   UNL     1      18.646  50.224  50.026  1.00  0.00     0.037 A 
HETATM   18  C   UNL     1      17.969  51.400  49.721  1.00  0.00     0.065 A 
HETATM   19  C   UNL     1      18.545  52.357  48.896  1.00  0.00     0.037 A 
HETATM   20  C   UNL     1      19.820  52.140  48.369  1.00  0.00     0.010 A 
BRANCH  18  21
HETATM   21  O   UNL     1      16.728  51.656  50.220  1.00  0.00    -0.361 OA
HETATM   22  H   UNL     1      16.081  51.577  49.501  1.00  0.00     0.217 HD
ENDBRANCH  18  21
ENDBRANCH  14  15
ENDBRANCH  11  14
ENDBRANCH   7  10
ENDBRANCH   4   6
BRANCH   2  23
HETATM   23  C   UNL     1      25.647  43.065  49.536  1.00  0.00     0.060 A 
HETATM   24  C   UNL     1      24.395  42.465  49.317  1.00  0.00     0.031 A 
HETATM   25  C   UNL     1      24.309  41.197  48.739  1.00  0.00     0.002 A 
HETATM   26  C   UNL     1      25.467  40.524  48.356  1.00  0.00     0.000 A 
HETATM   27  C   UNL     1      26.711  41.122  48.542  1.00  0.00     0.002 A 
HETATM   28  C   UNL     1      26.804  42.391  49.123  1.00  0.00     0.031 A 
ENDBRANCH   2  23
BRANCH   1  29
HETATM   29  C   UNL     1      27.161  44.090  52.223  1.00  0.00     0.012 A 
HETATM   30  C   UNL     1      28.497  43.727  52.004  1.00  0.00     0.015 A 
HETATM   31  C   UNL     1      29.212  43.024  52.975  1.00  0.00     0.001 A 
HETATM   32  C   UNL     1      28.602  42.689  54.182  1.00  0.00     0.000 A 
HETATM   33  C   UNL     1      27.283  43.066  54.424  1.00  0.00     0.001 A 
HETATM   34  C   UNL     1      26.567  43.771  53.454  1.00  0.00     0.015 A 
ENDBRANCH   1  29
TORSDOF 7
ENDMDL
MODEL 2
REMARK VINA RESULT:      -9.3      2.300      4.154
REMARK  7 active torsions:
REMARK  status: ('A' for Active; 'I' for Inactive)
REMARK    1  A    between atoms: C_4  and  C_5 
REMARK    2  A    between atoms: N_6  and  C_7 
REMARK    3  A    between atoms: C_14  and  C_15 
REMARK       I    between atoms: C_15  and  N_16 
REMARK    4  A    between atoms: N_16  and  N_17 
REMARK       I    between atoms: N_17  and  C_18 
REMARK    5  A    between atoms: C_18  and  C_19 
REMARK    6  A    between atoms: C_19  and  C_20 
REMARK    7  A    between atoms: C_23  and  O_24 
ROOT
HETATM    1  C   UNL     1      26.530  44.789  52.234  1.00  0.00     0.164 C 
HETATM    2  N   UNL     1      26.346  46.047  52.805  1.00  0.00    -0.213 N 
HETATM    3  N   UNL     1      25.589  46.812  51.967  1.00  0.00    -0.139 NA
HETATM    4  C   UNL     1      25.179  45.928  51.041  1.00  0.00     0.241 C 
HETATM    5  N   UNL     1      25.724  44.678  51.192  1.00  0.00    -0.202 NA
ENDROOT
BRANCH   4   6
HETATM    6  C   UNL     1      24.241  46.276  49.958  1.00  0.00     0.309 C 
HETATM    7  N   UNL     1      23.671  47.531  50.093  1.00  0.00    -0.261 N 
HETATM    8  H   UNL     1      23.870  48.120  50.904  1.00  0.00     0.190 HD
HETATM    9  O   UNL     1      23.965  45.536  49.013  1.00  0.00    -0.262 OA
BRANCH   7  10
HETATM   10  N   UNL     1      22.699  47.946  49.181  1.00  0.00    -0.267 N 
HETATM   11  C   UNL     1      22.492  49.296  48.994  1.00  0.00     0.240 C 
HETATM   12  O   UNL     1      23.126  50.161  49.596  1.00  0.00    -0.272 OA
HETATM   13  H   UNL     1      22.251  47.220  48.625  1.00  0.00     0.190 HD
BRANCH  11  14
HETATM   14  C   UNL     1      21.399  49.618  47.994  1.00  0.00     0.143 C 
BRANCH  14  15
HETATM   15  C   UNL     1      20.216  50.322  48.611  1.00  0.00    -0.049 A 
HETATM   16  C   UNL     1      19.302  49.621  49.413  1.00  0.00     0.010 A 
HETATM   17  C   UNL     1      18.221  50.283  50.002  1.00  0.00     0.037 A 
HETATM   18  C   UNL     1      18.054  51.647  49.789  1.00  0.00     0.065 A 
HETATM   19  C   UNL     1      18.945  52.356  48.995  1.00  0.00     0.037 A 
HETATM   20  C   UNL     1      20.024  51.696  48.406  1.00  0.00     0.010 A 
BRANCH  18  21
HETATM   21  O   UNL     1      17.018  52.332  50.351  1.00  0.00    -0.361 OA
HETATM   22  H   UNL     1      17.081  53.263  50.085  1.00  0.00     0.217 HD
ENDBRANCH  18  21
ENDBRANCH  14  15
ENDBRANCH  11  14
ENDBRANCH   7  10
ENDBRANCH   4   6
BRANCH   2  23
HETATM   23  C   UNL     1      26.771  46.581  54.057  1.00  0.00     0.060 A 
HETATM   24  C   UNL     1      26.145  47.737  54.552  1.00  0.00     0.031 A 
HETATM   25  C   UNL     1      26.538  48.286  55.775  1.00  0.00     0.002 A 
HETATM   26  C   UNL     1      27.543  47.679  56.522  1.00  0.00     0.000 A 
HETATM   27  C   UNL     1      28.150  46.516  56.053  1.00  0.00     0.002 A 
HETATM   28  C   UNL     1      27.763  45.962  54.829  1.00  0.00     0.031 A 
ENDBRANCH   2  23
BRANCH   1  29
HETATM   29  C   UNL     1      27.483  43.750  52.627  1.00  0.00     0.012 A 
HETATM   30  C   UNL     1      27.042  42.665  53.396  1.00  0.00     0.015 A 
HETATM   31  C   UNL     1      27.924  41.646  53.762  1.00  0.00     0.001 A 
HETATM   32  C   UNL     1      29.254  41.696  53.350  1.00  0.00     0.000 A 
HETATM   33  C   UNL     1      29.700  42.757  52.564  1.00  0.00     0.001 A 
HETATM   34  C   UNL     1      28.818  43.775  52.195  1.00  0.00     0.015 A 
ENDBRANCH   1  29
TORSDOF 7
ENDMDL
MODEL 3
REMARK VINA RESULT:      -9.3      2.338      3.269
REMARK  7 active torsions:
REMARK  status: ('A' for Active; 'I' for Inactive)
REMARK    1  A    between atoms: C_4  and  C_5 
REMARK    2  A    between atoms: N_6  and  C_7 
REMARK    3  A    between atoms: C_14  and  C_15 
REMARK       I    between atoms: C_15  and  N_16 
REMARK    4  A    between atoms: N_16  and  N_17 
REMARK       I    between atoms: N_17  and  C_18 
REMARK    5  A    between atoms: C_18  and  C_19 
REMARK    6  A    between atoms: C_19  and  C_20 
REMARK    7  A    between atoms: C_23  and  O_24 
ROOT
HETATM    1  C   UNL     1      26.129  46.475  52.849  1.00  0.00     0.164 C 
HETATM    2  N   UNL     1      26.302  45.222  52.263  1.00  0.00    -0.213 N 
HETATM    3  N   UNL     1      25.474  45.115  51.184  1.00  0.00    -0.139 NA
HETATM    4  C   UNL     1      25.001  46.364  51.044  1.00  0.00     0.241 C 
HETATM    5  N   UNL     1      25.400  47.221  52.038  1.00  0.00    -0.202 NA
ENDROOT
BRANCH   4   6
HETATM    6  C   UNL     1      24.122  46.770  49.931  1.00  0.00     0.309 C 
HETATM    7  N   UNL     1      23.591  48.041  50.072  1.00  0.00    -0.261 N 
HETATM    8  H   UNL     1      23.775  48.604  50.905  1.00  0.00     0.190 HD
HETATM    9  O   UNL     1      23.861  46.062  48.958  1.00  0.00    -0.262 OA
BRANCH   7  10
HETATM   10  N   UNL     1      22.674  48.511  49.131  1.00  0.00    -0.267 N 
HETATM   11  C   UNL     1      22.486  49.871  49.003  1.00  0.00     0.240 C 
HETATM   12  O   UNL     1      23.091  50.698  49.683  1.00  0.00    -0.272 OA
HETATM   13  H   UNL     1      22.253  47.819  48.514  1.00  0.00     0.190 HD
BRANCH  11  14
HETATM   14  C   UNL     1      21.452  50.254  47.962  1.00  0.00     0.143 C 
BRANCH  14  15
HETATM   15  C   UNL     1      20.156  50.741  48.561  1.00  0.00    -0.049 A 
HETATM   16  C   UNL     1      19.340  49.875  49.305  1.00  0.00     0.010 A 
HETATM   17  C   UNL     1      18.152  50.338  49.879  1.00  0.00     0.037 A 
HETATM   18  C   UNL     1      17.780  51.666  49.707  1.00  0.00     0.065 A 
HETATM   19  C   UNL     1      18.572  52.536  48.970  1.00  0.00     0.037 A 
HETATM   20  C   UNL     1      19.758  52.076  48.397  1.00  0.00     0.010 A 
BRANCH  18  21
HETATM   21  O   UNL     1      16.634  52.160  50.256  1.00  0.00    -0.361 OA
HETATM   22  H   UNL     1      16.226  52.774  49.624  1.00  0.00     0.217 HD
ENDBRANCH  18  21
ENDBRANCH  14  15
ENDBRANCH  11  14
ENDBRANCH   7  10
ENDBRANCH   4   6
BRANCH   2  23
HETATM   23  C   UNL     1      27.182  44.147  52.587  1.00  0.00     0.060 A 
HETATM   24  C   UNL     1      26.816  43.251  53.605  1.00  0.00     0.031 A 
HETATM   25  C   UNL     1      27.655  42.188  53.947  1.00  0.00     0.002 A 
HETATM   26  C   UNL     1      28.855  41.998  53.265  1.00  0.00     0.000 A 
HETATM   27  C   UNL     1      29.212  42.864  52.234  1.00  0.00     0.002 A 
HETATM   28  C   UNL     1      28.377  43.932  51.889  1.00  0.00     0.031 A 
ENDBRANCH   2  23
BRANCH   1  29
HETATM   29  C   UNL     1      26.586  46.927  54.164  1.00  0.00     0.012 A 
HETATM   30  C   UNL     1      27.664  46.277  54.780  1.00  0.00     0.015 A 
HETATM   31  C   UNL     1      28.138  46.705  56.022  1.00  0.00     0.001 A 
HETATM   32  C   UNL     1      27.546  47.797  56.654  1.00  0.00     0.000 A 
HETATM   33  C   UNL     1      26.490  48.468  56.041  1.00  0.00     0.001 A 
HETATM   34  C   UNL     1      26.017  48.042  54.798  1.00  0.00     0.015 A 
ENDBRANCH   1  29
TORSDOF 7
ENDMDL
MODEL 4
REMARK VINA RESULT:      -9.2      0.353      3.559
REMARK  7 active torsions:
REMARK  status: ('A' for Active; 'I' for Inactive)
REMARK    1  A    between atoms: C_4  and  C_5 
REMARK    2  A    between atoms: N_6  and  C_7 
REMARK    3  A    between atoms: C_14  and  C_15 
REMARK       I    between atoms: C_15  and  N_16 
REMARK    4  A    between atoms: N_16  and  N_17 
REMARK       I    between atoms: N_17  and  C_18 
REMARK    5  A    between atoms: C_18  and  C_19 
REMARK    6  A    between atoms: C_19  and  C_20 
REMARK    7  A    between atoms: C_23  and  O_24 
ROOT
HETATM    1  C   UNL     1      25.648  44.294  50.040  1.00  0.00     0.164 C 
HETATM    2  N   UNL     1      26.408  44.749  51.116  1.00  0.00    -0.213 N 
HETATM    3  N   UNL     1      26.397  46.114  51.126  1.00  0.00    -0.139 NA
HETATM    4  C   UNL     1      25.473  46.413  50.197  1.00  0.00     0.241 C 
HETATM    5  N   UNL     1      24.984  45.318  49.531  1.00  0.00    -0.202 NA
ENDROOT
BRANCH   4   6
HETATM    6  C   UNL     1      25.036  47.793  49.914  1.00  0.00     0.309 C 
HETATM    7  N   UNL     1      23.663  47.967  49.964  1.00  0.00    -0.261 N 
HETATM    8  H   UNL     1      23.034  47.181  50.140  1.00  0.00     0.190 HD
HETATM    9  O   UNL     1      25.799  48.722  49.648  1.00  0.00    -0.262 OA
BRANCH   7  10
HETATM   10  N   UNL     1      23.115  49.206  49.628  1.00  0.00    -0.267 N 
HETATM   11  C   UNL     1      22.482  49.348  48.412  1.00  0.00     0.240 C 
HETATM   12  O   UNL     1      22.376  48.430  47.600  1.00  0.00    -0.272 OA
HETATM   13  H   UNL     1      23.130  49.926  50.348  1.00  0.00     0.190 HD
BRANCH  11  14
HETATM   14  C   UNL     1      21.946  50.744  48.156  1.00  0.00     0.143 C 
BRANCH  14  15
HETATM   15  C   UNL     1      20.555  50.955  48.699  1.00  0.00    -0.049 A 
HETATM   16  C   UNL     1      19.951  49.992  49.523  1.00  0.00     0.010 A 
HETATM   17  C   UNL     1      18.671  50.204  50.043  1.00  0.00     0.037 A 
HETATM   18  C   UNL     1      17.994  51.380  49.738  1.00  0.00     0.065 A 
HETATM   19  C   UNL     1      18.572  52.342  48.922  1.00  0.00     0.037 A 
HETATM   20  C   UNL     1      19.851  52.131  48.403  1.00  0.00     0.010 A 
BRANCH  18  21
HETATM   21  O   UNL     1      16.748  51.630  50.231  1.00  0.00    -0.361 OA
HETATM   22  H   UNL     1      16.133  50.971  49.870  1.00  0.00     0.217 HD
ENDBRANCH  18  21
ENDBRANCH  14  15
ENDBRANCH  11  14
ENDBRANCH   7  10
ENDBRANCH   4   6
BRANCH   2  23
HETATM   23  C   UNL     1      27.101  44.042  52.142  1.00  0.00     0.060 A 
HETATM   24  C   UNL     1      28.451  43.704  51.944  1.00  0.00     0.031 A 
HETATM   25  C   UNL     1      29.158  43.011  52.929  1.00  0.00     0.002 A 
HETATM   26  C   UNL     1      28.534  42.667  54.125  1.00  0.00     0.000 A 
HETATM   27  C   UNL     1      27.205  43.023  54.342  1.00  0.00     0.002 A 
HETATM   28  C   UNL     1      26.490  43.714  53.359  1.00  0.00     0.031 A 
ENDBRANCH   2  23
BRANCH   1  29
HETATM   29  C   UNL     1      25.601  42.945  49.474  1.00  0.00     0.012 A 
HETATM   30  C   UNL     1      24.360  42.352  49.206  1.00  0.00     0.015 A 
HETATM   31  C   UNL     1      24.287  41.077  48.641  1.00  0.00     0.001 A 
HETATM   32  C   UNL     1      25.456  40.388  48.327  1.00  0.00     0.000 A 
HETATM   33  C   UNL     1      26.697  40.976  48.565  1.00  0.00     0.001 A 
HETATM   34  C   UNL     1      26.771  42.252  49.127  1.00  0.00     0.015 A 
ENDBRANCH   1  29
TORSDOF 7
ENDMDL
MODEL 5
REMARK VINA RESULT:      -9.2      3.892      9.511
REMARK  7 active torsions:
REMARK  status: ('A' for Active; 'I' for Inactive)
REMARK    1  A    between atoms: C_4  and  C_5 
REMARK    2  A    between atoms: N_6  and  C_7 
REMARK    3  A    between atoms: C_14  and  C_15 
REMARK       I    between atoms: C_15  and  N_16 
REMARK    4  A    between atoms: N_16  and  N_17 
REMARK       I    between atoms: N_17  and  C_18 
REMARK    5  A    between atoms: C_18  and  C_19 
REMARK    6  A    between atoms: C_19  and  C_20 
REMARK    7  A    between atoms: C_23  and  O_24 
ROOT
HETATM    1  C   UNL     1      24.188  46.731  50.049  1.00  0.00     0.164 C 
HETATM    2  N   UNL     1      23.746  45.477  49.628  1.00  0.00    -0.213 N 
HETATM    3  N   UNL     1      24.295  44.518  50.429  1.00  0.00    -0.139 NA
HETATM    4  C   UNL     1      24.865  45.237  51.410  1.00  0.00     0.241 C 
HETATM    5  N   UNL     1      24.797  46.593  51.213  1.00  0.00    -0.202 NA
ENDROOT
BRANCH   4   6
HETATM    6  C   UNL     1      25.514  44.622  52.583  1.00  0.00     0.309 C 
HETATM    7  N   UNL     1      26.889  44.506  52.465  1.00  0.00    -0.261 N 
HETATM    8  H   UNL     1      27.375  44.790  51.612  1.00  0.00     0.190 HD
HETATM    9  O   UNL     1      24.913  44.231  53.585  1.00  0.00    -0.262 OA
BRANCH   7  10
HETATM   10  N   UNL     1      27.612  43.860  53.469  1.00  0.00    -0.267 N 
HETATM   11  C   UNL     1      28.903  43.451  53.204  1.00  0.00     0.240 C 
HETATM   12  O   UNL     1      29.451  43.627  52.117  1.00  0.00    -0.272 OA
HETATM   13  H   UNL     1      27.178  43.807  54.388  1.00  0.00     0.190 HD
BRANCH  11  14
HETATM   14  C   UNL     1      29.575  42.747  54.366  1.00  0.00     0.143 C 
BRANCH  14  15
HETATM   15  C   UNL     1      29.984  43.684  55.474  1.00  0.00    -0.049 A 
HETATM   16  C   UNL     1      29.409  44.960  55.584  1.00  0.00     0.010 A 
HETATM   17  C   UNL     1      29.773  45.816  56.627  1.00  0.00     0.037 A 
HETATM   18  C   UNL     1      30.713  45.397  57.561  1.00  0.00     0.065 A 
HETATM   19  C   UNL     1      31.296  44.140  57.467  1.00  0.00     0.037 A 
HETATM   20  C   UNL     1      30.933  43.284  56.426  1.00  0.00     0.010 A 
BRANCH  18  21
HETATM   21  O   UNL     1      31.090  46.196  58.598  1.00  0.00    -0.361 OA
HETATM   22  H   UNL     1      31.939  45.877  58.944  1.00  0.00     0.217 HD
ENDBRANCH  18  21
ENDBRANCH  14  15
ENDBRANCH  11  14
ENDBRANCH   7  10
ENDBRANCH   4   6
BRANCH   2  23
HETATM   23  C   UNL     1      22.844  45.098  48.591  1.00  0.00     0.060 A 
HETATM   24  C   UNL     1      21.465  45.287  48.785  1.00  0.00     0.031 A 
HETATM   25  C   UNL     1      20.555  44.926  47.789  1.00  0.00     0.002 A 
HETATM   26  C   UNL     1      21.011  44.393  46.586  1.00  0.00     0.000 A 
HETATM   27  C   UNL     1      22.378  44.229  46.373  1.00  0.00     0.002 A 
HETATM   28  C   UNL     1      23.294  44.586  47.368  1.00  0.00     0.031 A 
ENDBRANCH   2  23
BRANCH   1  29
HETATM   29  C   UNL     1      24.089  48.007  49.338  1.00  0.00     0.012 A 
HETATM   30  C   UNL     1      22.831  48.592  49.143  1.00  0.00     0.015 A 
HETATM   31  C   UNL     1      22.711  49.821  48.493  1.00  0.00     0.001 A 
HETATM   32  C   UNL     1      23.850  50.485  48.043  1.00  0.00     0.000 A 
HETATM   33  C   UNL     1      25.109  49.927  48.253  1.00  0.00     0.001 A 
HETATM   34  C   UNL     1      25.231  48.698  48.906  1.00  0.00     0.015 A 
ENDBRANCH   1  29
TORSDOF 7
ENDMDL
MODEL 6
REMARK VINA RESULT:      -9.1      3.531      9.875
REMARK  7 active torsions:
REMARK  status: ('A' for Active; 'I' for Inactive)
REMARK    1  A    between atoms: C_4  and  C_5 
REMARK    2  A    between atoms: N_6  and  C_7 
REMARK    3  A    between atoms: C_14  and  C_15 
REMARK       I    between atoms: C_15  and  N_16 
REMARK    4  A    between atoms: N_16  and  N_17 
REMARK       I    between atoms: N_17  and  C_18 
REMARK    5  A    between atoms: C_18  and  C_19 
REMARK    6  A    between atoms: C_19  and  C_20 
REMARK    7  A    between atoms: C_23  and  O_24 
ROOT
HETATM    1  C   UNL     1      22.734  45.928  48.381  1.00  0.00     0.164 C 
HETATM    2  N   UNL     1      23.266  47.087  48.944  1.00  0.00    -0.213 N 
HETATM    3  N   UNL     1      24.359  46.760  49.693  1.00  0.00    -0.139 NA
HETATM    4  C   UNL     1      24.560  45.468  49.382  1.00  0.00     0.241 C 
HETATM    5  N   UNL     1      23.592  44.939  48.566  1.00  0.00    -0.202 NA
ENDROOT
BRANCH   4   6
HETATM    6  C   UNL     1      25.708  44.691  49.884  1.00  0.00     0.309 C 
HETATM    7  N   UNL     1      26.258  45.195  51.050  1.00  0.00    -0.261 N 
HETATM    8  H   UNL     1      25.905  46.054  51.476  1.00  0.00     0.190 HD
HETATM    9  O   UNL     1      26.163  43.687  49.332  1.00  0.00    -0.262 OA
BRANCH   7  10
HETATM   10  N   UNL     1      27.405  44.602  51.580  1.00  0.00    -0.267 N 
HETATM   11  C   UNL     1      27.289  43.807  52.702  1.00  0.00     0.240 C 
HETATM   12  O   UNL     1      26.215  43.594  53.262  1.00  0.00    -0.272 OA
HETATM   13  H   UNL     1      28.268  44.713  51.050  1.00  0.00     0.190 HD
BRANCH  11  14
HETATM   14  C   UNL     1      28.606  43.238  53.191  1.00  0.00     0.143 C 
BRANCH  14  15
HETATM   15  C   UNL     1      29.174  43.982  54.374  1.00  0.00    -0.049 A 
HETATM   16  C   UNL     1      28.579  45.170  54.827  1.00  0.00     0.010 A 
HETATM   17  C   UNL     1      29.095  45.843  55.938  1.00  0.00     0.037 A 
HETATM   18  C   UNL     1      30.206  45.328  56.597  1.00  0.00     0.065 A 
HETATM   19  C   UNL     1      30.810  44.156  56.161  1.00  0.00     0.037 A 
HETATM   20  C   UNL     1      30.295  43.483  55.052  1.00  0.00     0.010 A 
BRANCH  18  21
HETATM   21  O   UNL     1      30.735  45.947  57.689  1.00  0.00    -0.361 OA
HETATM   22  H   UNL     1      30.017  46.150  58.310  1.00  0.00     0.217 HD
ENDBRANCH  18  21
ENDBRANCH  14  15
ENDBRANCH  11  14
ENDBRANCH   7  10
ENDBRANCH   4   6
BRANCH   2  23
HETATM   23  C   UNL     1      22.879  48.454  48.820  1.00  0.00     0.060 A 
HETATM   24  C   UNL     1      23.780  49.368  48.248  1.00  0.00     0.031 A 
HETATM   25  C   UNL     1      23.432  50.713  48.112  1.00  0.00     0.002 A 
HETATM   26  C   UNL     1      22.179  51.156  48.528  1.00  0.00     0.000 A 
HETATM   27  C   UNL     1      21.267  50.252  49.070  1.00  0.00     0.002 A 
HETATM   28  C   UNL     1      21.611  48.903  49.210  1.00  0.00     0.031 A 
ENDBRANCH   2  23
BRANCH   1  29
HETATM   29  C   UNL     1      21.428  45.751  47.745  1.00  0.00     0.012 A 
HETATM   30  C   UNL     1      20.350  45.278  48.504  1.00  0.00     0.015 A 
HETATM   31  C   UNL     1      19.087  45.125  47.929  1.00  0.00     0.001 A 
HETATM   32  C   UNL     1      18.887  45.458  46.590  1.00  0.00     0.000 A 
HETATM   33  C   UNL     1      19.945  45.953  45.831  1.00  0.00     0.001 A 
HETATM   34  C   UNL     1      21.208  46.108  46.406  1.00  0.00     0.015 A 
ENDBRANCH   1  29
TORSDOF 7
ENDMDL
MODEL 7
REMARK VINA RESULT:      -9.1      3.520      9.419
REMARK  7 active torsions:
REMARK  status: ('A' for Active; 'I' for Inactive)
REMARK    1  A    between atoms: C_4  and  C_5 
REMARK    2  A    between atoms: N_6  and  C_7 
REMARK    3  A    between atoms: C_14  and  C_15 
REMARK       I    between atoms: C_15  and  N_16 
REMARK    4  A    between atoms: N_16  and  N_17 
REMARK       I    between atoms: N_17  and  C_18 
REMARK    5  A    between atoms: C_18  and  C_19 
REMARK    6  A    between atoms: C_19  and  C_20 
REMARK    7  A    between atoms: C_23  and  O_24 
ROOT
HETATM    1  C   UNL     1      23.314  47.157  49.077  1.00  0.00     0.164 C 
HETATM    2  N   UNL     1      22.777  46.023  48.471  1.00  0.00    -0.213 N 
HETATM    3  N   UNL     1      23.664  44.992  48.588  1.00  0.00    -0.139 NA
HETATM    4  C   UNL     1      24.588  45.485  49.430  1.00  0.00     0.241 C 
HETATM    5  N   UNL     1      24.388  46.801  49.761  1.00  0.00    -0.202 NA
ENDROOT
BRANCH   4   6
HETATM    6  C   UNL     1      25.718  44.686  49.939  1.00  0.00     0.309 C 
HETATM    7  N   UNL     1      26.324  45.226  51.062  1.00  0.00    -0.261 N 
HETATM    8  H   UNL     1      26.019  46.119  51.452  1.00  0.00     0.190 HD
HETATM    9  O   UNL     1      26.114  43.637  49.429  1.00  0.00    -0.262 OA
BRANCH   7  10
HETATM   10  N   UNL     1      27.462  44.613  51.590  1.00  0.00    -0.267 N 
HETATM   11  C   UNL     1      27.340  43.853  52.734  1.00  0.00     0.240 C 
HETATM   12  O   UNL     1      26.270  43.688  53.318  1.00  0.00    -0.272 OA
HETATM   13  H   UNL     1      28.318  44.683  51.043  1.00  0.00     0.190 HD
BRANCH  11  14
HETATM   14  C   UNL     1      28.648  43.256  53.218  1.00  0.00     0.143 C 
BRANCH  14  15
HETATM   15  C   UNL     1      29.222  43.973  54.415  1.00  0.00    -0.049 A 
HETATM   16  C   UNL     1      28.618  45.139  54.911  1.00  0.00     0.010 A 
HETATM   17  C   UNL     1      29.140  45.785  56.035  1.00  0.00     0.037 A 
HETATM   18  C   UNL     1      30.267  45.266  56.663  1.00  0.00     0.065 A 
HETATM   19  C   UNL     1      30.880  44.116  56.184  1.00  0.00     0.037 A 
HETATM   20  C   UNL     1      30.359  43.470  55.062  1.00  0.00     0.010 A 
BRANCH  18  21
HETATM   21  O   UNL     1      30.803  45.860  57.766  1.00  0.00    -0.361 OA
HETATM   22  H   UNL     1      31.548  46.417  57.488  1.00  0.00     0.217 HD
ENDBRANCH  18  21
ENDBRANCH  14  15
ENDBRANCH  11  14
ENDBRANCH   7  10
ENDBRANCH   4   6
BRANCH   2  23
HETATM   23  C   UNL     1      21.520  45.802  47.837  1.00  0.00     0.060 A 
HETATM   24  C   UNL     1      20.446  45.317  48.602  1.00  0.00     0.031 A 
HETATM   25  C   UNL     1      19.201  45.090  48.011  1.00  0.00     0.002 A 
HETATM   26  C   UNL     1      19.010  45.362  46.659  1.00  0.00     0.000 A 
HETATM   27  C   UNL     1      20.061  45.871  45.898  1.00  0.00     0.002 A 
HETATM   28  C   UNL     1      21.310  46.098  46.483  1.00  0.00     0.031 A 
ENDBRANCH   2  23
BRANCH   1  29
HETATM   29  C   UNL     1      22.858  48.543  48.961  1.00  0.00     0.012 A 
HETATM   30  C   UNL     1      23.749  49.526  48.508  1.00  0.00     0.015 A 
HETATM   31  C   UNL     1      23.333  50.851  48.362  1.00  0.00     0.001 A 
HETATM   32  C   UNL     1      22.017  51.203  48.654  1.00  0.00     0.000 A 
HETATM   33  C   UNL     1      21.114  50.231  49.080  1.00  0.00     0.001 A 
HETATM   34  C   UNL     1      21.528  48.905  49.224  1.00  0.00     0.015 A 
ENDBRANCH   1  29
TORSDOF 7
ENDMDL
MODEL 8
REMARK VINA RESULT:      -8.9      2.051      2.436
REMARK  7 active torsions:
REMARK  status: ('A' for Active; 'I' for Inactive)
REMARK    1  A    between atoms: C_4  and  C_5 
REMARK    2  A    between atoms: N_6  and  C_7 
REMARK    3  A    between atoms: C_14  and  C_15 
REMARK       I    between atoms: C_15  and  N_16 
REMARK    4  A    between atoms: N_16  and  N_17 
REMARK       I    between atoms: N_17  and  C_18 
REMARK    5  A    between atoms: C_18  and  C_19 
REMARK    6  A    between atoms: C_19  and  C_20 
REMARK    7  A    between atoms: C_23  and  O_24 
ROOT
HETATM    1  C   UNL     1      27.029  44.401  51.647  1.00  0.00     0.164 C 
HETATM    2  N   UNL     1      26.297  43.642  50.736  1.00  0.00    -0.213 N 
HETATM    3  N   UNL     1      25.227  44.371  50.304  1.00  0.00    -0.139 NA
HETATM    4  C   UNL     1      25.476  45.593  50.805  1.00  0.00     0.241 C 
HETATM    5  N   UNL     1      26.582  45.644  51.614  1.00  0.00    -0.202 NA
ENDROOT
BRANCH   4   6
HETATM    6  C   UNL     1      24.628  46.765  50.519  1.00  0.00     0.309 C 
HETATM    7  N   UNL     1      23.483  46.466  49.800  1.00  0.00    -0.261 N 
HETATM    8  H   UNL     1      23.293  45.517  49.474  1.00  0.00     0.190 HD
HETATM    9  O   UNL     1      24.892  47.917  50.868  1.00  0.00    -0.262 OA
BRANCH   7  10
HETATM   10  N   UNL     1      22.640  47.500  49.388  1.00  0.00    -0.267 N 
HETATM   11  C   UNL     1      22.152  47.490  48.098  1.00  0.00     0.240 C 
HETATM   12  O   UNL     1      22.427  46.609  47.285  1.00  0.00    -0.272 OA
HETATM   13  H   UNL     1      22.350  48.168  50.100  1.00  0.00     0.190 HD
BRANCH  11  14
HETATM   14  C   UNL     1      21.265  48.674  47.767  1.00  0.00     0.143 C 
BRANCH  14  15
HETATM   15  C   UNL     1      19.793  48.350  47.829  1.00  0.00    -0.049 A 
HETATM   16  C   UNL     1      19.090  48.432  49.041  1.00  0.00     0.010 A 
HETATM   17  C   UNL     1      17.721  48.154  49.088  1.00  0.00     0.037 A 
HETATM   18  C   UNL     1      17.054  47.794  47.922  1.00  0.00     0.065 A 
HETATM   19  C   UNL     1      17.733  47.703  46.715  1.00  0.00     0.037 A 
HETATM   20  C   UNL     1      19.100  47.981  46.667  1.00  0.00     0.010 A 
BRANCH  18  21
HETATM   21  O   UNL     1      15.719  47.523  47.922  1.00  0.00    -0.361 OA
HETATM   22  H   UNL     1      15.485  47.112  47.075  1.00  0.00     0.217 HD
ENDBRANCH  18  21
ENDBRANCH  14  15
ENDBRANCH  11  14
ENDBRANCH   7  10
ENDBRANCH   4   6
BRANCH   2  23
HETATM   23  C   UNL     1      26.519  42.336  50.209  1.00  0.00     0.060 A 
HETATM   24  C   UNL     1      26.060  41.222  50.932  1.00  0.00     0.031 A 
HETATM   25  C   UNL     1      26.262  39.929  50.443  1.00  0.00     0.002 A 
HETATM   26  C   UNL     1      26.904  39.736  49.223  1.00  0.00     0.000 A 
HETATM   27  C   UNL     1      27.337  40.835  48.484  1.00  0.00     0.002 A 
HETATM   28  C   UNL     1      27.140  42.133  48.969  1.00  0.00     0.031 A 
ENDBRANCH   2  23
BRANCH   1  29
HETATM   29  C   UNL     1      28.075  43.947  52.564  1.00  0.00     0.012 A 
HETATM   30  C   UNL     1      28.041  44.353  53.905  1.00  0.00     0.015 A 
HETATM   31  C   UNL     1      29.012  43.913  54.807  1.00  0.00     0.001 A 
HETATM   32  C   UNL     1      30.019  43.051  54.380  1.00  0.00     0.000 A 
HETATM   33  C   UNL     1      30.050  42.619  53.056  1.00  0.00     0.001 A 
HETATM   34  C   UNL     1      29.078  43.056  52.153  1.00  0.00     0.015 A 
ENDBRANCH   1  29
TORSDOF 7
ENDMDL
MODEL 9
REMARK VINA RESULT:      -8.8      1.543      2.219
REMARK  7 active torsions:
REMARK  status: ('A' for Active; 'I' for Inactive)
REMARK    1  A    between atoms: C_4  and  C_5 
REMARK    2  A    between atoms: N_6  and  C_7 
REMARK    3  A    between atoms: C_14  and  C_15 
REMARK       I    between atoms: C_15  and  N_16 
REMARK    4  A    between atoms: N_16  and  N_17 
REMARK       I    between atoms: N_17  and  C_18 
REMARK    5  A    between atoms: C_18  and  C_19 
REMARK    6  A    between atoms: C_19  and  C_20 
REMARK    7  A    between atoms: C_23  and  O_24 
ROOT
HETATM    1  C   UNL     1      26.719  44.372  51.188  1.00  0.00     0.164 C 
HETATM    2  N   UNL     1      26.136  43.458  50.312  1.00  0.00    -0.213 N 
HETATM    3  N   UNL     1      25.075  44.050  49.690  1.00  0.00    -0.139 NA
HETATM    4  C   UNL     1      25.194  45.337  50.055  1.00  0.00     0.241 C 
HETATM    5  N   UNL     1      26.202  45.566  50.956  1.00  0.00    -0.202 NA
ENDROOT
BRANCH   4   6
HETATM    6  C   UNL     1      24.310  46.402  49.543  1.00  0.00     0.309 C 
HETATM    7  N   UNL     1      24.916  47.645  49.469  1.00  0.00    -0.261 N 
HETATM    8  H   UNL     1      25.876  47.787  49.789  1.00  0.00     0.190 HD
HETATM    9  O   UNL     1      23.136  46.231  49.212  1.00  0.00    -0.262 OA
BRANCH   7  10
HETATM   10  N   UNL     1      24.163  48.755  49.084  1.00  0.00    -0.267 N 
HETATM   11  C   UNL     1      24.773  49.757  48.360  1.00  0.00     0.240 C 
HETATM   12  O   UNL     1      25.959  49.722  48.036  1.00  0.00    -0.272 OA
HETATM   13  H   UNL     1      23.164  48.723  49.280  1.00  0.00     0.190 HD
BRANCH  11  14
HETATM   14  C   UNL     1      23.855  50.915  48.019  1.00  0.00     0.143 C 
BRANCH  14  15
HETATM   15  C   UNL     1      22.460  50.751  48.568  1.00  0.00    -0.049 A 
HETATM   16  C   UNL     1      22.175  51.058  49.908  1.00  0.00     0.010 A 
HETATM   17  C   UNL     1      20.876  50.927  50.406  1.00  0.00     0.037 A 
HETATM   18  C   UNL     1      19.860  50.488  49.563  1.00  0.00     0.065 A 
HETATM   19  C   UNL     1      20.123  50.175  48.236  1.00  0.00     0.037 A 
HETATM   20  C   UNL     1      21.421  50.306  47.739  1.00  0.00     0.010 A 
BRANCH  18  21
HETATM   21  O   UNL     1      18.578  50.354  50.006  1.00  0.00    -0.361 OA
HETATM   22  H   UNL     1      18.015  50.102  49.256  1.00  0.00     0.217 HD
ENDBRANCH  18  21
ENDBRANCH  14  15
ENDBRANCH  11  14
ENDBRANCH   7  10
ENDBRANCH   4   6
BRANCH   2  23
HETATM   23  C   UNL     1      26.493  42.119  49.977  1.00  0.00     0.060 A 
HETATM   24  C   UNL     1      27.308  41.891  48.855  1.00  0.00     0.031 A 
HETATM   25  C   UNL     1      27.675  40.591  48.500  1.00  0.00     0.002 A 
HETATM   26  C   UNL     1      27.250  39.511  49.268  1.00  0.00     0.000 A 
HETATM   27  C   UNL     1      26.465  39.728  50.399  1.00  0.00     0.002 A 
HETATM   28  C   UNL     1      26.092  41.028  50.759  1.00  0.00     0.031 A 
ENDBRANCH   2  23
BRANCH   1  29
HETATM   29  C   UNL     1      27.688  44.108  52.253  1.00  0.00     0.012 A 
HETATM   30  C   UNL     1      27.439  44.586  53.546  1.00  0.00     0.015 A 
HETATM   31  C   UNL     1      28.333  44.326  54.586  1.00  0.00     0.001 A 
HETATM   32  C   UNL     1      29.481  43.573  54.345  1.00  0.00     0.000 A 
HETATM   33  C   UNL     1      29.728  43.070  53.070  1.00  0.00     0.001 A 
HETATM   34  C   UNL     1      28.833  43.327  52.029  1.00  0.00     0.015 A 
ENDBRANCH   1  29
TORSDOF 7
ENDMDL
MODEL 10
REMARK VINA RESULT:      -8.7      1.868      3.981
REMARK  7 active torsions:
REMARK  status: ('A' for Active; 'I' for Inactive)
REMARK    1  A    between atoms: C_4  and  C_5 
REMARK    2  A    between atoms: N_6  and  C_7 
REMARK    3  A    between atoms: C_14  and  C_15 
REMARK       I    between atoms: C_15  and  N_16 
REMARK    4  A    between atoms: N_16  and  N_17 
REMARK       I    between atoms: N_17  and  C_18 
REMARK    5  A    between atoms: C_18  and  C_19 
REMARK    6  A    between atoms: C_19  and  C_20 
REMARK    7  A    between atoms: C_23  and  O_24 
ROOT
HETATM    1  C   UNL     1      25.320  45.322  50.855  1.00  0.00     0.164 C 
HETATM    2  N   UNL     1      25.696  46.259  51.816  1.00  0.00    -0.213 N 
HETATM    3  N   UNL     1      25.246  47.491  51.439  1.00  0.00    -0.139 NA
HETATM    4  C   UNL     1      24.450  47.212  50.393  1.00  0.00     0.241 C 
HETATM    5  N   UNL     1      24.462  45.890  50.026  1.00  0.00    -0.202 NA
ENDROOT
BRANCH   4   6
HETATM    6  C   UNL     1      23.650  48.237  49.697  1.00  0.00     0.309 C 
HETATM    7  N   UNL     1      22.460  47.759  49.175  1.00  0.00    -0.261 N 
HETATM    8  H   UNL     1      22.208  46.771  49.245  1.00  0.00     0.190 HD
HETATM    9  O   UNL     1      23.988  49.415  49.570  1.00  0.00    -0.262 OA
BRANCH   7  10
HETATM   10  N   UNL     1      21.652  48.608  48.417  1.00  0.00    -0.267 N 
HETATM   11  C   UNL     1      20.283  48.439  48.457  1.00  0.00     0.240 C 
HETATM   12  O   UNL     1      19.736  47.570  49.133  1.00  0.00    -0.272 OA
HETATM   13  H   UNL     1      22.115  49.379  47.939  1.00  0.00     0.190 HD
BRANCH  11  14
HETATM   14  C   UNL     1      19.518  49.409  47.578  1.00  0.00     0.143 C 
BRANCH  14  15
HETATM   15  C   UNL     1      18.667  50.378  48.360  1.00  0.00    -0.049 A 
HETATM   16  C   UNL     1      19.251  51.454  49.046  1.00  0.00     0.010 A 
HETATM   17  C   UNL     1      18.456  52.363  49.750  1.00  0.00     0.037 A 
HETATM   18  C   UNL     1      17.076  52.195  49.768  1.00  0.00     0.065 A 
HETATM   19  C   UNL     1      16.480  51.134  49.099  1.00  0.00     0.037 A 
HETATM   20  C   UNL     1      17.273  50.226  48.396  1.00  0.00     0.010 A 
BRANCH  18  21
HETATM   21  O   UNL     1      16.263  53.062  50.435  1.00  0.00    -0.361 OA
HETATM   22  H   UNL     1      16.799  53.803  50.760  1.00  0.00     0.217 HD
ENDBRANCH  18  21
ENDBRANCH  14  15
ENDBRANCH  11  14
ENDBRANCH   7  10
ENDBRANCH   4   6
BRANCH   2  23
HETATM   23  C   UNL     1      26.392  46.111  53.051  1.00  0.00     0.060 A 
HETATM   24  C   UNL     1      26.596  44.820  53.567  1.00  0.00     0.031 A 
HETATM   25  C   UNL     1      27.273  44.640  54.775  1.00  0.00     0.002 A 
HETATM   26  C   UNL     1      27.769  45.741  55.469  1.00  0.00     0.000 A 
HETATM   27  C   UNL     1      27.597  47.023  54.951  1.00  0.00     0.002 A 
HETATM   28  C   UNL     1      26.917  47.210  53.743  1.00  0.00     0.031 A 
ENDBRANCH   2  23
BRANCH   1  29
HETATM   29  C   UNL     1      25.808  43.952  50.692  1.00  0.00     0.012 A 
HETATM   30  C   UNL     1      24.900  42.885  50.752  1.00  0.00     0.015 A 
HETATM   31  C   UNL     1      25.334  41.571  50.573  1.00  0.00     0.001 A 
HETATM   32  C   UNL     1      26.679  41.310  50.319  1.00  0.00     0.000 A 
HETATM   33  C   UNL     1      27.587  42.362  50.232  1.00  0.00     0.001 A 
HETATM   34  C   UNL     1      27.154  43.678  50.408  1.00  0.00     0.015 A 
ENDBRANCH   1  29
TORSDOF 7
ENDMDL
