MODEL 1
REMARK VINA RESULT:      -8.3      0.000      0.000
REMARK  7 active torsions:
REMARK  status: ('A' for Active; 'I' for Inactive)
REMARK    1  A    between atoms: C_2  and  N_3 
REMARK    2  A    between atoms: N_3  and  C_4 
REMARK    3  A    between atoms: C_6  and  N_7 
REMARK    4  A    between atoms: N_7  and  C_8 
REMARK    5  A    between atoms: C_8  and  C_9 
REMARK    6  A    between atoms: C_9  and  C_10 
REMARK    7  A    between atoms: C_11  and  O_12 
ROOT
HETATM    1  C   UNL     1      26.963  43.506  50.438  1.00  0.00     0.119 A 
HETATM    2  N   UNL     1      27.256  42.710  51.483  1.00  0.00    -0.207 NA
HETATM    3  C   UNL     1      27.111  43.214  52.715  1.00  0.00     0.181 A 
HETATM    4  N   UNL     1      26.710  44.457  52.950  1.00  0.00    -0.330 N 
HETATM    5  H   UNL     1      26.704  44.766  53.913  1.00  0.00     0.168 HD
HETATM    6  C   UNL     1      26.370  45.277  51.951  1.00  0.00     0.048 A 
HETATM    7  C   UNL     1      26.473  44.819  50.623  1.00  0.00     0.031 A 
HETATM    8  C   UNL     1      25.914  46.575  52.231  1.00  0.00     0.030 A 
HETATM    9  C   UNL     1      25.541  47.425  51.191  1.00  0.00     0.002 A 
HETATM   10  C   UNL     1      25.620  46.987  49.873  1.00  0.00     0.001 A 
HETATM   11  C   UNL     1      26.079  45.699  49.588  1.00  0.00     0.017 A 
ENDROOT
BRANCH   3  12
HETATM   12  N   UNL     1      27.485  42.414  53.776  1.00  0.00    -0.262 NA
HETATM   13  H   UNL     1      27.102  42.863  54.616  1.00  0.00     0.130 HD
BRANCH  12  14
HETATM   14  C   UNL     1      28.898  42.059  53.929  1.00  0.00     0.100 C 
BRANCH  14  15
HETATM   15  C   UNL     1      29.809  43.295  53.987  1.00  0.00     0.056 C 
BRANCH  15  16
HETATM   16  C   UNL     1      30.195  43.860  55.341  1.00  0.00    -0.024 A 
HETATM   17  C   UNL     1      29.621  45.087  55.746  1.00  0.00     0.074 A 
HETATM   18  C   UNL     1      29.934  45.632  56.994  1.00  0.00     0.037 A 
HETATM   19  C   UNL     1      30.828  44.980  57.843  1.00  0.00     0.003 A 
HETATM   20  C   UNL     1      31.417  43.785  57.447  1.00  0.00     0.001 A 
HETATM   21  C   UNL     1      31.107  43.230  56.204  1.00  0.00     0.010 A 
BRANCH  17  22
HETATM   22  O   UNL     1      28.758  45.661  54.845  1.00  0.00    -0.355 OA
HETATM   23  C   UNL     1      28.165  46.902  55.214  1.00  0.00     0.210 C 
ENDBRANCH  17  22
ENDBRANCH  15  16
ENDBRANCH  14  15
ENDBRANCH  12  14
ENDBRANCH   3  12
BRANCH   1  24
HETATM   24  N   UNL     1      27.096  42.997  49.143  1.00  0.00    -0.273 NA
HETATM   25  H   UNL     1      28.051  43.075  48.802  1.00  0.00     0.129 HD
BRANCH  24  26
HETATM   26  C   UNL     1      26.525  41.678  48.836  1.00  0.00     0.053 C 
HETATM   27  C   UNL     1      27.156  41.093  47.572  1.00  0.00     0.026 C 
HETATM   28  C   UNL     1      25.020  41.855  48.630  1.00  0.00     0.026 C 
ENDBRANCH  24  26
ENDBRANCH   1  24
TORSDOF 7
ENDMDL
MODEL 2
REMARK VINA RESULT:      -8.2      2.432      6.852
REMARK  7 active torsions:
REMARK  status: ('A' for Active; 'I' for Inactive)
REMARK    1  A    between atoms: C_2  and  N_3 
REMARK    2  A    between atoms: N_3  and  C_4 
REMARK    3  A    between atoms: C_6  and  N_7 
REMARK    4  A    between atoms: N_7  and  C_8 
REMARK    5  A    between atoms: C_8  and  C_9 
REMARK    6  A    between atoms: C_9  and  C_10 
REMARK    7  A    between atoms: C_11  and  O_12 
ROOT
HETATM    1  C   UNL     1      29.190  44.255  54.526  1.00  0.00     0.119 A 
HETATM    2  N   UNL     1      28.302  45.234  54.268  1.00  0.00    -0.207 NA
HETATM    3  C   UNL     1      28.179  46.220  55.164  1.00  0.00     0.181 A 
HETATM    4  N   UNL     1      28.874  46.268  56.294  1.00  0.00    -0.330 N 
HETATM    5  H   UNL     1      28.655  47.015  56.940  1.00  0.00     0.168 HD
HETATM    6  C   UNL     1      29.795  45.344  56.582  1.00  0.00     0.048 A 
HETATM    7  C   UNL     1      30.003  44.281  55.681  1.00  0.00     0.031 A 
HETATM    8  C   UNL     1      30.541  45.440  57.767  1.00  0.00     0.030 A 
HETATM    9  C   UNL     1      31.515  44.486  58.060  1.00  0.00     0.002 A 
HETATM   10  C   UNL     1      31.748  43.437  57.176  1.00  0.00     0.001 A 
HETATM   11  C   UNL     1      31.003  43.333  55.998  1.00  0.00     0.017 A 
ENDROOT
BRANCH   3  12
HETATM   12  N   UNL     1      27.215  47.179  54.925  1.00  0.00    -0.262 NA
HETATM   13  H   UNL     1      27.071  47.662  55.818  1.00  0.00     0.130 HD
BRANCH  12  14
HETATM   14  C   UNL     1      25.953  46.770  54.302  1.00  0.00     0.100 C 
BRANCH  14  15
HETATM   15  C   UNL     1      25.851  47.222  52.837  1.00  0.00     0.056 C 
BRANCH  15  16
HETATM   16  C   UNL     1      25.197  46.297  51.827  1.00  0.00    -0.024 A 
HETATM   17  C   UNL     1      24.863  46.819  50.557  1.00  0.00     0.074 A 
HETATM   18  C   UNL     1      24.277  45.996  49.590  1.00  0.00     0.037 A 
HETATM   19  C   UNL     1      24.004  44.659  49.876  1.00  0.00     0.003 A 
HETATM   20  C   UNL     1      24.308  44.140  51.129  1.00  0.00     0.001 A 
HETATM   21  C   UNL     1      24.896  44.953  52.100  1.00  0.00     0.010 A 
BRANCH  17  22
HETATM   22  O   UNL     1      25.162  48.146  50.365  1.00  0.00    -0.355 OA
HETATM   23  C   UNL     1      26.135  48.456  49.373  1.00  0.00     0.210 C 
ENDBRANCH  17  22
ENDBRANCH  15  16
ENDBRANCH  14  15
ENDBRANCH  12  14
ENDBRANCH   3  12
BRANCH   1  24
HETATM   24  N   UNL     1      29.344  43.221  53.598  1.00  0.00    -0.273 NA
HETATM   25  H   UNL     1      30.103  42.594  53.854  1.00  0.00     0.129 HD
BRANCH  24  26
HETATM   26  C   UNL     1      28.156  42.473  53.164  1.00  0.00     0.053 C 
HETATM   27  C   UNL     1      28.344  40.973  53.390  1.00  0.00     0.026 C 
HETATM   28  C   UNL     1      27.946  42.751  51.674  1.00  0.00     0.026 C 
ENDBRANCH  24  26
ENDBRANCH   1  24
TORSDOF 7
ENDMDL
MODEL 3
REMARK VINA RESULT:      -8.2      2.468      6.859
REMARK  7 active torsions:
REMARK  status: ('A' for Active; 'I' for Inactive)
REMARK    1  A    between atoms: C_2  and  N_3 
REMARK    2  A    between atoms: N_3  and  C_4 
REMARK    3  A    between atoms: C_6  and  N_7 
REMARK    4  A    between atoms: N_7  and  C_8 
REMARK    5  A    between atoms: C_8  and  C_9 
REMARK    6  A    between atoms: C_9  and  C_10 
REMARK    7  A    between atoms: C_11  and  O_12 
ROOT
HETATM    1  C   UNL     1      27.490  43.003  53.607  1.00  0.00     0.119 A 
HETATM    2  N   UNL     1      26.476  43.797  53.211  1.00  0.00    -0.207 NA
HETATM    3  C   UNL     1      26.489  45.074  53.609  1.00  0.00     0.181 A 
HETATM    4  N   UNL     1      27.438  45.586  54.384  1.00  0.00    -0.330 N 
HETATM    5  H   UNL     1      27.317  46.542  54.691  1.00  0.00     0.168 HD
HETATM    6  C   UNL     1      28.486  44.854  54.773  1.00  0.00     0.048 A 
HETATM    7  C   UNL     1      28.561  43.503  54.380  1.00  0.00     0.031 A 
HETATM    8  C   UNL     1      29.493  45.432  55.561  1.00  0.00     0.030 A 
HETATM    9  C   UNL     1      30.596  44.674  55.953  1.00  0.00     0.002 A 
HETATM   10  C   UNL     1      30.698  43.343  55.562  1.00  0.00     0.001 A 
HETATM   11  C   UNL     1      29.695  42.761  54.784  1.00  0.00     0.017 A 
ENDROOT
BRANCH   3  12
HETATM   12  N   UNL     1      25.408  45.859  53.260  1.00  0.00    -0.262 NA
HETATM   13  H   UNL     1      24.723  45.224  52.837  1.00  0.00     0.130 HD
BRANCH  12  14
HETATM   14  C   UNL     1      25.639  47.054  52.443  1.00  0.00     0.100 C 
BRANCH  14  15
HETATM   15  C   UNL     1      25.377  46.803  50.951  1.00  0.00     0.056 C 
BRANCH  15  16
HETATM   16  C   UNL     1      25.667  47.912  49.956  1.00  0.00    -0.024 A 
HETATM   17  C   UNL     1      24.578  48.520  49.291  1.00  0.00     0.074 A 
HETATM   18  C   UNL     1      24.801  49.559  48.382  1.00  0.00     0.037 A 
HETATM   19  C   UNL     1      26.099  49.992  48.112  1.00  0.00     0.003 A 
HETATM   20  C   UNL     1      27.179  49.386  48.743  1.00  0.00     0.001 A 
HETATM   21  C   UNL     1      26.967  48.351  49.655  1.00  0.00     0.010 A 
BRANCH  17  22
HETATM   22  O   UNL     1      23.338  48.026  49.614  1.00  0.00    -0.355 OA
HETATM   23  C   UNL     1      22.511  47.595  48.538  1.00  0.00     0.210 C 
ENDBRANCH  17  22
ENDBRANCH  15  16
ENDBRANCH  14  15
ENDBRANCH  12  14
ENDBRANCH   3  12
BRANCH   1  24
HETATM   24  N   UNL     1      27.503  41.668  53.192  1.00  0.00    -0.273 NA
HETATM   25  H   UNL     1      26.656  41.178  53.470  1.00  0.00     0.129 HD
BRANCH  24  26
HETATM   26  C   UNL     1      27.869  41.359  51.803  1.00  0.00     0.053 C 
HETATM   27  C   UNL     1      26.655  40.859  51.020  1.00  0.00     0.026 C 
HETATM   28  C   UNL     1      28.950  40.277  51.833  1.00  0.00     0.026 C 
ENDBRANCH  24  26
ENDBRANCH   1  24
TORSDOF 7
ENDMDL
MODEL 4
REMARK VINA RESULT:      -8.0      3.116      6.720
REMARK  7 active torsions:
REMARK  status: ('A' for Active; 'I' for Inactive)
REMARK    1  A    between atoms: C_2  and  N_3 
REMARK    2  A    between atoms: N_3  and  C_4 
REMARK    3  A    between atoms: C_6  and  N_7 
REMARK    4  A    between atoms: N_7  and  C_8 
REMARK    5  A    between atoms: C_8  and  C_9 
REMARK    6  A    between atoms: C_9  and  C_10 
REMARK    7  A    between atoms: C_11  and  O_12 
ROOT
HETATM    1  C   UNL     1      27.001  43.965  53.391  1.00  0.00     0.119 A 
HETATM    2  N   UNL     1      25.999  43.892  52.494  1.00  0.00    -0.207 NA
HETATM    3  C   UNL     1      25.258  44.988  52.292  1.00  0.00     0.181 A 
HETATM    4  N   UNL     1      25.453  46.129  52.942  1.00  0.00    -0.330 N 
HETATM    5  H   UNL     1      24.793  46.875  52.773  1.00  0.00     0.168 HD
HETATM    6  C   UNL     1      26.456  46.268  53.814  1.00  0.00     0.048 A 
HETATM    7  C   UNL     1      27.298  45.168  54.070  1.00  0.00     0.031 A 
HETATM    8  C   UNL     1      26.662  47.498  54.459  1.00  0.00     0.030 A 
HETATM    9  C   UNL     1      27.718  47.649  55.356  1.00  0.00     0.002 A 
HETATM   10  C   UNL     1      28.573  46.580  55.610  1.00  0.00     0.001 A 
HETATM   11  C   UNL     1      28.369  45.352  54.976  1.00  0.00     0.017 A 
ENDROOT
BRANCH   3  12
HETATM   12  N   UNL     1      24.188  44.880  51.426  1.00  0.00    -0.262 NA
HETATM   13  H   UNL     1      23.866  43.909  51.494  1.00  0.00     0.130 HD
BRANCH  12  14
HETATM   14  C   UNL     1      24.359  45.316  50.037  1.00  0.00     0.100 C 
BRANCH  14  15
HETATM   15  C   UNL     1      23.980  46.790  49.836  1.00  0.00     0.056 C 
BRANCH  15  16
HETATM   16  C   UNL     1      25.062  47.781  49.447  1.00  0.00    -0.024 A 
HETATM   17  C   UNL     1      24.675  48.987  48.819  1.00  0.00     0.074 A 
HETATM   18  C   UNL     1      25.639  49.936  48.464  1.00  0.00     0.037 A 
HETATM   19  C   UNL     1      26.990  49.693  48.711  1.00  0.00     0.003 A 
HETATM   20  C   UNL     1      27.384  48.501  49.308  1.00  0.00     0.001 A 
HETATM   21  C   UNL     1      26.429  47.550  49.670  1.00  0.00     0.010 A 
BRANCH  17  22
HETATM   22  O   UNL     1      23.326  49.138  48.610  1.00  0.00    -0.355 OA
HETATM   23  C   UNL     1      22.690  50.244  49.243  1.00  0.00     0.210 C 
ENDBRANCH  17  22
ENDBRANCH  15  16
ENDBRANCH  14  15
ENDBRANCH  12  14
ENDBRANCH   3  12
BRANCH   1  24
HETATM   24  N   UNL     1      27.796  42.836  53.609  1.00  0.00    -0.273 NA
HETATM   25  H   UNL     1      27.252  42.054  53.968  1.00  0.00     0.129 HD
BRANCH  24  26
HETATM   26  C   UNL     1      28.721  42.404  52.553  1.00  0.00     0.053 C 
HETATM   27  C   UNL     1      28.745  40.879  52.442  1.00  0.00     0.026 C 
HETATM   28  C   UNL     1      30.116  42.920  52.911  1.00  0.00     0.026 C 
ENDBRANCH  24  26
ENDBRANCH   1  24
TORSDOF 7
ENDMDL
MODEL 5
REMARK VINA RESULT:      -7.9      1.594      4.204
REMARK  7 active torsions:
REMARK  status: ('A' for Active; 'I' for Inactive)
REMARK    1  A    between atoms: C_2  and  N_3 
REMARK    2  A    between atoms: N_3  and  C_4 
REMARK    3  A    between atoms: C_6  and  N_7 
REMARK    4  A    between atoms: N_7  and  C_8 
REMARK    5  A    between atoms: C_8  and  C_9 
REMARK    6  A    between atoms: C_9  and  C_10 
REMARK    7  A    between atoms: C_11  and  O_12 
ROOT
HETATM    1  C   UNL     1      27.017  42.209  49.564  1.00  0.00     0.119 A 
HETATM    2  N   UNL     1      27.035  42.194  50.910  1.00  0.00    -0.207 NA
HETATM    3  C   UNL     1      27.438  41.072  51.519  1.00  0.00     0.181 A 
HETATM    4  N   UNL     1      27.801  39.977  50.861  1.00  0.00    -0.330 N 
HETATM    5  H   UNL     1      28.017  39.158  51.413  1.00  0.00     0.168 HD
HETATM    6  C   UNL     1      27.838  39.950  49.526  1.00  0.00     0.048 A 
HETATM    7  C   UNL     1      27.449  41.097  48.807  1.00  0.00     0.031 A 
HETATM    8  C   UNL     1      28.261  38.790  48.858  1.00  0.00     0.030 A 
HETATM    9  C   UNL     1      28.316  38.766  47.466  1.00  0.00     0.002 A 
HETATM   10  C   UNL     1      27.953  39.894  46.736  1.00  0.00     0.001 A 
HETATM   11  C   UNL     1      27.524  41.048  47.395  1.00  0.00     0.017 A 
ENDROOT
BRANCH   3  12
HETATM   12  N   UNL     1      27.383  41.043  52.898  1.00  0.00    -0.262 NA
HETATM   13  H   UNL     1      26.772  41.820  53.173  1.00  0.00     0.130 HD
BRANCH  12  14
HETATM   14  C   UNL     1      28.639  41.026  53.654  1.00  0.00     0.100 C 
BRANCH  14  15
HETATM   15  C   UNL     1      29.533  42.232  53.328  1.00  0.00     0.056 C 
BRANCH  15  16
HETATM   16  C   UNL     1      29.694  43.329  54.365  1.00  0.00    -0.024 A 
HETATM   17  C   UNL     1      28.712  44.343  54.427  1.00  0.00     0.074 A 
HETATM   18  C   UNL     1      28.812  45.362  55.380  1.00  0.00     0.037 A 
HETATM   19  C   UNL     1      29.889  45.393  56.266  1.00  0.00     0.003 A 
HETATM   20  C   UNL     1      30.873  44.413  56.199  1.00  0.00     0.001 A 
HETATM   21  C   UNL     1      30.780  43.391  55.254  1.00  0.00     0.010 A 
BRANCH  17  22
HETATM   22  O   UNL     1      27.692  44.236  53.514  1.00  0.00    -0.355 OA
HETATM   23  C   UNL     1      26.832  45.361  53.366  1.00  0.00     0.210 C 
ENDBRANCH  17  22
ENDBRANCH  15  16
ENDBRANCH  14  15
ENDBRANCH  12  14
ENDBRANCH   3  12
BRANCH   1  24
HETATM   24  N   UNL     1      26.611  43.374  48.907  1.00  0.00    -0.273 NA
HETATM   25  H   UNL     1      26.078  43.167  48.065  1.00  0.00     0.129 HD
BRANCH  24  26
HETATM   26  C   UNL     1      25.981  44.448  49.688  1.00  0.00     0.053 C 
HETATM   27  C   UNL     1      24.636  44.845  49.079  1.00  0.00     0.026 C 
HETATM   28  C   UNL     1      26.928  45.648  49.683  1.00  0.00     0.026 C 
ENDBRANCH  24  26
ENDBRANCH   1  24
TORSDOF 7
ENDMDL
MODEL 6
REMARK VINA RESULT:      -7.9      2.170      4.321
REMARK  7 active torsions:
REMARK  status: ('A' for Active; 'I' for Inactive)
REMARK    1  A    between atoms: C_2  and  N_3 
REMARK    2  A    between atoms: N_3  and  C_4 
REMARK    3  A    between atoms: C_6  and  N_7 
REMARK    4  A    between atoms: N_7  and  C_8 
REMARK    5  A    between atoms: C_8  and  C_9 
REMARK    6  A    between atoms: C_9  and  C_10 
REMARK    7  A    between atoms: C_11  and  O_12 
ROOT
HETATM    1  C   UNL     1      25.950  47.027  50.616  1.00  0.00     0.119 A 
HETATM    2  N   UNL     1      26.213  47.535  51.834  1.00  0.00    -0.207 NA
HETATM    3  C   UNL     1      25.943  46.774  52.902  1.00  0.00     0.181 A 
HETATM    4  N   UNL     1      25.418  45.558  52.815  1.00  0.00    -0.330 N 
HETATM    5  H   UNL     1      25.183  45.094  53.682  1.00  0.00     0.168 HD
HETATM    6  C   UNL     1      25.174  44.991  51.630  1.00  0.00     0.048 A 
HETATM    7  C   UNL     1      25.449  45.716  50.454  1.00  0.00     0.031 A 
HETATM    8  C   UNL     1      24.654  43.689  51.568  1.00  0.00     0.030 A 
HETATM    9  C   UNL     1      24.415  43.089  50.332  1.00  0.00     0.002 A 
HETATM   10  C   UNL     1      24.695  43.781  49.158  1.00  0.00     0.001 A 
HETATM   11  C   UNL     1      25.207  45.080  49.214  1.00  0.00     0.017 A 
ENDROOT
BRANCH   3  12
HETATM   12  N   UNL     1      26.147  47.333  54.148  1.00  0.00    -0.262 NA
HETATM   13  H   UNL     1      25.585  48.190  54.168  1.00  0.00     0.130 HD
BRANCH  12  14
HETATM   14  C   UNL     1      27.521  47.555  54.605  1.00  0.00     0.100 C 
BRANCH  14  15
HETATM   15  C   UNL     1      27.942  46.562  55.699  1.00  0.00     0.056 C 
BRANCH  15  16
HETATM   16  C   UNL     1      28.811  45.377  55.321  1.00  0.00    -0.024 A 
HETATM   17  C   UNL     1      29.976  45.128  56.081  1.00  0.00     0.074 A 
HETATM   18  C   UNL     1      30.793  44.035  55.779  1.00  0.00     0.037 A 
HETATM   19  C   UNL     1      30.474  43.191  54.715  1.00  0.00     0.003 A 
HETATM   20  C   UNL     1      29.343  43.438  53.946  1.00  0.00     0.001 A 
HETATM   21  C   UNL     1      28.519  44.525  54.243  1.00  0.00     0.010 A 
BRANCH  17  22
HETATM   22  O   UNL     1      30.214  46.013  57.104  1.00  0.00    -0.355 OA
HETATM   23  C   UNL     1      30.571  45.463  58.368  1.00  0.00     0.210 C 
ENDBRANCH  17  22
ENDBRANCH  15  16
ENDBRANCH  14  15
ENDBRANCH  12  14
ENDBRANCH   3  12
BRANCH   1  24
HETATM   24  N   UNL     1      26.235  47.800  49.486  1.00  0.00    -0.273 NA
HETATM   25  H   UNL     1      26.312  47.229  48.647  1.00  0.00     0.129 HD
BRANCH  24  26
HETATM   26  C   UNL     1      25.442  49.012  49.236  1.00  0.00     0.053 C 
HETATM   27  C   UNL     1      24.010  48.653  48.840  1.00  0.00     0.026 C 
HETATM   28  C   UNL     1      26.115  49.787  48.102  1.00  0.00     0.026 C 
ENDBRANCH  24  26
ENDBRANCH   1  24
TORSDOF 7
ENDMDL
MODEL 7
REMARK VINA RESULT:      -7.7      2.668      7.053
REMARK  7 active torsions:
REMARK  status: ('A' for Active; 'I' for Inactive)
REMARK    1  A    between atoms: C_2  and  N_3 
REMARK    2  A    between atoms: N_3  and  C_4 
REMARK    3  A    between atoms: C_6  and  N_7 
REMARK    4  A    between atoms: N_7  and  C_8 
REMARK    5  A    between atoms: C_8  and  C_9 
REMARK    6  A    between atoms: C_9  and  C_10 
REMARK    7  A    between atoms: C_11  and  O_12 
ROOT
HETATM    1  C   UNL     1      29.209  44.438  55.103  1.00  0.00     0.119 A 
HETATM    2  N   UNL     1      28.974  43.185  54.671  1.00  0.00    -0.207 NA
HETATM    3  C   UNL     1      27.815  42.944  54.047  1.00  0.00     0.181 A 
HETATM    4  N   UNL     1      26.887  43.874  53.850  1.00  0.00    -0.330 N 
HETATM    5  H   UNL     1      26.015  43.574  53.435  1.00  0.00     0.168 HD
HETATM    6  C   UNL     1      27.085  45.141  54.223  1.00  0.00     0.048 A 
HETATM    7  C   UNL     1      28.288  45.485  54.870  1.00  0.00     0.031 A 
HETATM    8  C   UNL     1      26.102  46.110  53.969  1.00  0.00     0.030 A 
HETATM    9  C   UNL     1      26.314  47.437  54.342  1.00  0.00     0.002 A 
HETATM   10  C   UNL     1      27.503  47.801  54.966  1.00  0.00     0.001 A 
HETATM   11  C   UNL     1      28.482  46.839  55.228  1.00  0.00     0.017 A 
ENDROOT
BRANCH   3  12
HETATM   12  N   UNL     1      27.552  41.641  53.675  1.00  0.00    -0.262 NA
HETATM   13  H   UNL     1      27.345  41.136  54.543  1.00  0.00     0.130 HD
BRANCH  12  14
HETATM   14  C   UNL     1      28.528  40.936  52.839  1.00  0.00     0.100 C 
BRANCH  14  15
HETATM   15  C   UNL     1      28.367  41.266  51.347  1.00  0.00     0.056 C 
BRANCH  15  16
HETATM   16  C   UNL     1      28.584  40.166  50.323  1.00  0.00    -0.024 A 
HETATM   17  C   UNL     1      28.161  40.393  48.994  1.00  0.00     0.074 A 
HETATM   18  C   UNL     1      28.360  39.415  48.016  1.00  0.00     0.037 A 
HETATM   19  C   UNL     1      28.963  38.202  48.346  1.00  0.00     0.003 A 
HETATM   20  C   UNL     1      29.363  37.958  49.655  1.00  0.00     0.001 A 
HETATM   21  C   UNL     1      29.172  38.930  50.638  1.00  0.00     0.010 A 
BRANCH  17  22
HETATM   22  O   UNL     1      27.572  41.613  48.761  1.00  0.00    -0.355 OA
HETATM   23  C   UNL     1      26.249  41.604  48.235  1.00  0.00     0.210 C 
ENDBRANCH  17  22
ENDBRANCH  15  16
ENDBRANCH  14  15
ENDBRANCH  12  14
ENDBRANCH   3  12
BRANCH   1  24
HETATM   24  N   UNL     1      30.418  44.715  55.747  1.00  0.00    -0.273 NA
HETATM   25  H   UNL     1      30.651  45.705  55.704  1.00  0.00     0.129 HD
BRANCH  24  26
HETATM   26  C   UNL     1      30.648  44.170  57.092  1.00  0.00     0.053 C 
HETATM   27  C   UNL     1      30.729  45.292  58.128  1.00  0.00     0.026 C 
HETATM   28  C   UNL     1      31.965  43.394  57.064  1.00  0.00     0.026 C 
ENDBRANCH  24  26
ENDBRANCH   1  24
TORSDOF 7
ENDMDL
MODEL 8
REMARK VINA RESULT:      -7.6      2.948      7.425
REMARK  7 active torsions:
REMARK  status: ('A' for Active; 'I' for Inactive)
REMARK    1  A    between atoms: C_2  and  N_3 
REMARK    2  A    between atoms: N_3  and  C_4 
REMARK    3  A    between atoms: C_6  and  N_7 
REMARK    4  A    between atoms: N_7  and  C_8 
REMARK    5  A    between atoms: C_8  and  C_9 
REMARK    6  A    between atoms: C_9  and  C_10 
REMARK    7  A    between atoms: C_11  and  O_12 
ROOT
HETATM    1  C   UNL     1      26.531  44.677  53.737  1.00  0.00     0.119 A 
HETATM    2  N   UNL     1      25.474  45.164  53.060  1.00  0.00    -0.207 NA
HETATM    3  C   UNL     1      25.086  44.519  51.954  1.00  0.00     0.181 A 
HETATM    4  N   UNL     1      25.703  43.439  51.488  1.00  0.00    -0.330 N 
HETATM    5  H   UNL     1      25.380  43.069  50.603  1.00  0.00     0.168 HD
HETATM    6  C   UNL     1      26.732  42.891  52.140  1.00  0.00     0.048 A 
HETATM    7  C   UNL     1      27.190  43.496  53.327  1.00  0.00     0.031 A 
HETATM    8  C   UNL     1      27.340  41.728  51.643  1.00  0.00     0.030 A 
HETATM    9  C   UNL     1      28.403  41.145  52.333  1.00  0.00     0.002 A 
HETATM   10  C   UNL     1      28.860  41.717  53.516  1.00  0.00     0.001 A 
HETATM   11  C   UNL     1      28.263  42.879  54.011  1.00  0.00     0.017 A 
ENDROOT
BRANCH   3  12
HETATM   12  N   UNL     1      24.049  45.069  51.227  1.00  0.00    -0.262 NA
HETATM   13  H   UNL     1      23.331  44.340  51.165  1.00  0.00     0.130 HD
BRANCH  12  14
HETATM   14  C   UNL     1      24.343  45.675  49.926  1.00  0.00     0.100 C 
BRANCH  14  15
HETATM   15  C   UNL     1      24.120  47.195  49.925  1.00  0.00     0.056 C 
BRANCH  15  16
HETATM   16  C   UNL     1      25.249  48.104  49.474  1.00  0.00    -0.024 A 
HETATM   17  C   UNL     1      24.928  49.232  48.686  1.00  0.00     0.074 A 
HETATM   18  C   UNL     1      25.936  50.107  48.266  1.00  0.00     0.037 A 
HETATM   19  C   UNL     1      27.266  49.863  48.608  1.00  0.00     0.003 A 
HETATM   20  C   UNL     1      27.596  48.744  49.363  1.00  0.00     0.001 A 
HETATM   21  C   UNL     1      26.596  47.868  49.790  1.00  0.00     0.010 A 
BRANCH  17  22
HETATM   22  O   UNL     1      23.595  49.390  48.393  1.00  0.00    -0.355 OA
HETATM   23  C   UNL     1      23.021  50.667  48.650  1.00  0.00     0.210 C 
ENDBRANCH  17  22
ENDBRANCH  15  16
ENDBRANCH  14  15
ENDBRANCH  12  14
ENDBRANCH   3  12
BRANCH   1  24
HETATM   24  N   UNL     1      26.945  45.328  54.903  1.00  0.00    -0.273 NA
HETATM   25  H   UNL     1      27.231  44.668  55.623  1.00  0.00     0.129 HD
BRANCH  24  26
HETATM   26  C   UNL     1      27.894  46.445  54.794  1.00  0.00     0.053 C 
HETATM   27  C   UNL     1      29.137  46.187  55.646  1.00  0.00     0.026 C 
HETATM   28  C   UNL     1      27.185  47.710  55.279  1.00  0.00     0.026 C 
ENDBRANCH  24  26
ENDBRANCH   1  24
TORSDOF 7
ENDMDL
MODEL 9
REMARK VINA RESULT:      -7.6      2.537      7.088
REMARK  7 active torsions:
REMARK  status: ('A' for Active; 'I' for Inactive)
REMARK    1  A    between atoms: C_2  and  N_3 
REMARK    2  A    between atoms: N_3  and  C_4 
REMARK    3  A    between atoms: C_6  and  N_7 
REMARK    4  A    between atoms: N_7  and  C_8 
REMARK    5  A    between atoms: C_8  and  C_9 
REMARK    6  A    between atoms: C_9  and  C_10 
REMARK    7  A    between atoms: C_11  and  O_12 
ROOT
HETATM    1  C   UNL     1      28.706  44.965  54.561  1.00  0.00     0.119 A 
HETATM    2  N   UNL     1      28.779  44.038  53.587  1.00  0.00    -0.207 NA
HETATM    3  C   UNL     1      29.688  43.064  53.715  1.00  0.00     0.181 A 
HETATM    4  N   UNL     1      30.525  42.981  54.743  1.00  0.00    -0.330 N 
HETATM    5  H   UNL     1      31.224  42.251  54.710  1.00  0.00     0.168 HD
HETATM    6  C   UNL     1      30.470  43.851  55.755  1.00  0.00     0.048 A 
HETATM    7  C   UNL     1      29.527  44.896  55.709  1.00  0.00     0.031 A 
HETATM    8  C   UNL     1      31.343  43.716  56.846  1.00  0.00     0.030 A 
HETATM    9  C   UNL     1      31.275  44.613  57.911  1.00  0.00     0.002 A 
HETATM   10  C   UNL     1      30.339  45.643  57.894  1.00  0.00     0.001 A 
HETATM   11  C   UNL     1      29.473  45.786  56.807  1.00  0.00     0.017 A 
ENDROOT
BRANCH   3  12
HETATM   12  N   UNL     1      29.805  42.162  52.677  1.00  0.00    -0.262 NA
HETATM   13  H   UNL     1      29.856  42.724  51.820  1.00  0.00     0.130 HD
BRANCH  12  14
HETATM   14  C   UNL     1      28.828  41.075  52.573  1.00  0.00     0.100 C 
BRANCH  14  15
HETATM   15  C   UNL     1      28.286  40.909  51.146  1.00  0.00     0.056 C 
BRANCH  15  16
HETATM   16  C   UNL     1      26.932  41.502  50.800  1.00  0.00    -0.024 A 
HETATM   17  C   UNL     1      26.165  40.880  49.789  1.00  0.00     0.074 A 
HETATM   18  C   UNL     1      24.904  41.382  49.454  1.00  0.00     0.037 A 
HETATM   19  C   UNL     1      24.401  42.510  50.102  1.00  0.00     0.003 A 
HETATM   20  C   UNL     1      25.156  43.144  51.081  1.00  0.00     0.001 A 
HETATM   21  C   UNL     1      26.414  42.648  51.426  1.00  0.00     0.010 A 
BRANCH  17  22
HETATM   22  O   UNL     1      26.741  39.780  49.202  1.00  0.00    -0.355 OA
HETATM   23  C   UNL     1      26.241  39.388  47.927  1.00  0.00     0.210 C 
ENDBRANCH  17  22
ENDBRANCH  15  16
ENDBRANCH  14  15
ENDBRANCH  12  14
ENDBRANCH   3  12
BRANCH   1  24
HETATM   24  N   UNL     1      27.756  45.984  54.453  1.00  0.00    -0.273 NA
HETATM   25  H   UNL     1      28.191  46.891  54.298  1.00  0.00     0.129 HD
BRANCH  24  26
HETATM   26  C   UNL     1      26.600  45.787  53.567  1.00  0.00     0.053 C 
HETATM   27  C   UNL     1      26.016  47.131  53.128  1.00  0.00     0.026 C 
HETATM   28  C   UNL     1      25.547  44.992  54.341  1.00  0.00     0.026 C 
ENDBRANCH  24  26
ENDBRANCH   1  24
TORSDOF 7
ENDMDL
MODEL 10
REMARK VINA RESULT:      -7.5      2.194      6.777
REMARK  7 active torsions:
REMARK  status: ('A' for Active; 'I' for Inactive)
REMARK    1  A    between atoms: C_2  and  N_3 
REMARK    2  A    between atoms: N_3  and  C_4 
REMARK    3  A    between atoms: C_6  and  N_7 
REMARK    4  A    between atoms: N_7  and  C_8 
REMARK    5  A    between atoms: C_8  and  C_9 
REMARK    6  A    between atoms: C_9  and  C_10 
REMARK    7  A    between atoms: C_11  and  O_12 
ROOT
HETATM    1  C   UNL     1      27.330  44.641  54.629  1.00  0.00     0.119 A 
HETATM    2  N   UNL     1      26.812  43.647  53.883  1.00  0.00    -0.207 NA
HETATM    3  C   UNL     1      27.593  42.594  53.613  1.00  0.00     0.181 A 
HETATM    4  N   UNL     1      28.850  42.494  54.029  1.00  0.00    -0.330 N 
HETATM    5  H   UNL     1      29.380  41.694  53.709  1.00  0.00     0.168 HD
HETATM    6  C   UNL     1      29.401  43.433  54.804  1.00  0.00     0.048 A 
HETATM    7  C   UNL     1      28.640  44.566  55.153  1.00  0.00     0.031 A 
HETATM    8  C   UNL     1      30.720  43.283  55.259  1.00  0.00     0.030 A 
HETATM    9  C   UNL     1      31.291  44.254  56.082  1.00  0.00     0.002 A 
HETATM   10  C   UNL     1      30.551  45.372  56.453  1.00  0.00     0.001 A 
HETATM   11  C   UNL     1      29.240  45.530  55.996  1.00  0.00     0.017 A 
ENDROOT
BRANCH   3  12
HETATM   12  N   UNL     1      27.077  41.615  52.787  1.00  0.00    -0.262 NA
HETATM   13  H   UNL     1      27.482  40.731  53.111  1.00  0.00     0.130 HD
BRANCH  12  14
HETATM   14  C   UNL     1      27.195  41.783  51.336  1.00  0.00     0.100 C 
BRANCH  14  15
HETATM   15  C   UNL     1      25.909  42.339  50.705  1.00  0.00     0.056 C 
BRANCH  15  16
HETATM   16  C   UNL     1      25.847  43.811  50.338  1.00  0.00    -0.024 A 
HETATM   17  C   UNL     1      24.581  44.436  50.281  1.00  0.00     0.074 A 
HETATM   18  C   UNL     1      24.481  45.795  49.966  1.00  0.00     0.037 A 
HETATM   19  C   UNL     1      25.627  46.540  49.691  1.00  0.00     0.003 A 
HETATM   20  C   UNL     1      26.876  45.930  49.722  1.00  0.00     0.001 A 
HETATM   21  C   UNL     1      26.987  44.576  50.039  1.00  0.00     0.010 A 
BRANCH  17  22
HETATM   22  O   UNL     1      23.508  43.625  50.560  1.00  0.00    -0.355 OA
HETATM   23  C   UNL     1      22.304  43.870  49.839  1.00  0.00     0.210 C 
ENDBRANCH  17  22
ENDBRANCH  15  16
ENDBRANCH  14  15
ENDBRANCH  12  14
ENDBRANCH   3  12
BRANCH   1  24
HETATM   24  N   UNL     1      26.529  45.745  54.934  1.00  0.00    -0.273 NA
HETATM   25  H   UNL     1      26.460  45.896  55.937  1.00  0.00     0.129 HD
BRANCH  24  26
HETATM   26  C   UNL     1      26.755  47.007  54.216  1.00  0.00     0.053 C 
HETATM   27  C   UNL     1      26.755  48.190  55.185  1.00  0.00     0.026 C 
HETATM   28  C   UNL     1      25.630  47.174  53.194  1.00  0.00     0.026 C 
ENDBRANCH  24  26
ENDBRANCH   1  24
TORSDOF 7
ENDMDL
