MODEL 1
REMARK VINA RESULT:      -7.1      0.000      0.000
REMARK  3 active torsions:
REMARK  status: ('A' for Active; 'I' for Inactive)
REMARK    1  A    between atoms: C_2  and  N_3 
REMARK    2  A    between atoms: C_2  and  C_14 
REMARK       I    between atoms: N_3  and  C_4 
REMARK    3  A    between atoms: C_4  and  C_5 
ROOT
HETATM    1  N   UNL     1      26.941  44.414  52.672  1.00  0.00    -0.347 N 
HETATM    2  C   UNL     1      25.627  44.777  52.509  1.00  0.00     0.268 C 
HETATM    3  O   UNL     1      24.711  44.294  53.163  1.00  0.00    -0.266 OA
HETATM    4  H   UNL     1      27.658  44.919  52.173  1.00  0.00     0.163 HD
ENDROOT
BRANCH   1   5
HETATM    5  C   UNL     1      27.372  43.466  53.688  1.00  0.00     0.114 C 
HETATM    6  C   UNL     1      27.742  42.150  52.997  1.00  0.00     0.037 C 
BRANCH   5   7
HETATM    7  C   UNL     1      28.522  43.984  54.538  1.00  0.00    -0.033 A 
HETATM    8  C   UNL     1      28.506  45.232  55.176  1.00  0.00     0.028 A 
HETATM    9  C   UNL     1      29.604  45.619  55.931  1.00  0.00     0.116 A 
HETATM   10  N   UNL     1      30.711  44.865  56.094  1.00  0.00    -0.273 NA
HETATM   11  C   UNL     1      30.712  43.663  55.487  1.00  0.00     0.116 A 
HETATM   12  C   UNL     1      29.661  43.185  54.718  1.00  0.00     0.028 A 
ENDBRANCH   5   7
ENDBRANCH   1   5
BRANCH   2  13
HETATM   13  C   UNL     1      25.391  45.790  51.503  1.00  0.00     0.103 A 
HETATM   14  N   UNL     1      24.221  45.802  50.766  1.00  0.00    -0.341 N 
HETATM   15  H   UNL     1      23.471  45.129  50.874  1.00  0.00     0.167 HD
HETATM   16  C   UNL     1      24.241  46.842  49.892  1.00  0.00     0.126 A 
HETATM   17 CL   UNL     1      22.893  47.051  48.881  1.00  0.00    -0.063 Cl
HETATM   18  C   UNL     1      25.417  47.524  50.028  1.00  0.00     0.074 A 
HETATM   19 CL   UNL     1      25.954  48.890  49.179  1.00  0.00    -0.081 Cl
HETATM   20  C   UNL     1      26.151  46.862  51.047  1.00  0.00     0.062 A 
ENDBRANCH   2  13
TORSDOF 3
ENDMDL
MODEL 2
REMARK VINA RESULT:      -7.1      4.722      5.908
REMARK  3 active torsions:
REMARK  status: ('A' for Active; 'I' for Inactive)
REMARK    1  A    between atoms: C_2  and  N_3 
REMARK    2  A    between atoms: C_2  and  C_14 
REMARK       I    between atoms: N_3  and  C_4 
REMARK    3  A    between atoms: C_4  and  C_5 
ROOT
HETATM    1  N   UNL     1      28.119  42.338  52.795  1.00  0.00    -0.347 N 
HETATM    2  C   UNL     1      27.810  42.230  51.461  1.00  0.00     0.268 C 
HETATM    3  O   UNL     1      27.235  43.110  50.831  1.00  0.00    -0.266 OA
HETATM    4  H   UNL     1      28.680  41.622  53.231  1.00  0.00     0.163 HD
ENDROOT
BRANCH   1   5
HETATM    5  C   UNL     1      27.847  43.540  53.566  1.00  0.00     0.114 C 
HETATM    6  C   UNL     1      26.511  43.360  54.292  1.00  0.00     0.037 C 
BRANCH   5   7
HETATM    7  C   UNL     1      28.961  43.887  54.543  1.00  0.00    -0.033 A 
HETATM    8  C   UNL     1      30.024  43.021  54.837  1.00  0.00     0.028 A 
HETATM    9  C   UNL     1      30.994  43.425  55.743  1.00  0.00     0.116 A 
HETATM   10  N   UNL     1      30.984  44.616  56.378  1.00  0.00    -0.273 NA
HETATM   11  C   UNL     1      29.965  45.445  56.081  1.00  0.00     0.116 A 
HETATM   12  C   UNL     1      28.953  45.134  55.184  1.00  0.00     0.028 A 
ENDBRANCH   5   7
ENDBRANCH   1   5
BRANCH   2  13
HETATM   13  C   UNL     1      28.222  40.993  50.834  1.00  0.00     0.103 A 
HETATM   14  N   UNL     1      28.901  40.023  51.550  1.00  0.00    -0.341 N 
HETATM   15  H   UNL     1      29.147  40.104  52.529  1.00  0.00     0.167 HD
HETATM   16  C   UNL     1      29.177  38.967  50.742  1.00  0.00     0.126 A 
HETATM   17 CL   UNL     1      30.008  37.650  51.419  1.00  0.00    -0.063 Cl
HETATM   18  C   UNL     1      28.699  39.220  49.487  1.00  0.00     0.074 A 
HETATM   19 CL   UNL     1      28.782  38.242  48.105  1.00  0.00    -0.081 Cl
HETATM   20  C   UNL     1      28.093  40.503  49.539  1.00  0.00     0.062 A 
ENDBRANCH   2  13
TORSDOF 3
ENDMDL
MODEL 3
REMARK VINA RESULT:      -6.8      1.011      1.960
REMARK  3 active torsions:
REMARK  status: ('A' for Active; 'I' for Inactive)
REMARK    1  A    between atoms: C_2  and  N_3 
REMARK    2  A    between atoms: C_2  and  C_14 
REMARK       I    between atoms: N_3  and  C_4 
REMARK    3  A    between atoms: C_4  and  C_5 
ROOT
HETATM    1  N   UNL     1      26.946  44.785  52.459  1.00  0.00    -0.347 N 
HETATM    2  C   UNL     1      25.668  45.137  52.101  1.00  0.00     0.268 C 
HETATM    3  O   UNL     1      24.668  44.590  52.552  1.00  0.00    -0.266 OA
HETATM    4  H   UNL     1      27.721  45.339  52.128  1.00  0.00     0.163 HD
ENDROOT
BRANCH   1   5
HETATM    5  C   UNL     1      27.226  43.769  53.461  1.00  0.00     0.114 C 
HETATM    6  C   UNL     1      27.459  42.434  52.747  1.00  0.00     0.037 C 
BRANCH   5   7
HETATM    7  C   UNL     1      28.402  44.126  54.359  1.00  0.00    -0.033 A 
HETATM    8  C   UNL     1      29.491  43.272  54.576  1.00  0.00     0.028 A 
HETATM    9  C   UNL     1      30.517  43.686  55.413  1.00  0.00     0.116 A 
HETATM   10  N   UNL     1      30.538  44.874  56.052  1.00  0.00    -0.273 NA
HETATM   11  C   UNL     1      29.492  45.693  55.828  1.00  0.00     0.116 A 
HETATM   12  C   UNL     1      28.423  45.372  55.003  1.00  0.00     0.028 A 
ENDBRANCH   5   7
ENDBRANCH   1   5
BRANCH   2  13
HETATM   13  C   UNL     1      25.574  46.221  51.146  1.00  0.00     0.103 A 
HETATM   14  N   UNL     1      26.709  46.860  50.682  1.00  0.00    -0.341 N 
HETATM   15  H   UNL     1      27.653  46.624  50.964  1.00  0.00     0.167 HD
HETATM   16  C   UNL     1      26.358  47.836  49.805  1.00  0.00     0.126 A 
HETATM   17 CL   UNL     1      27.603  48.753  49.103  1.00  0.00    -0.063 Cl
HETATM   18  C   UNL     1      24.998  47.865  49.681  1.00  0.00     0.074 A 
HETATM   19 CL   UNL     1      24.043  48.891  48.727  1.00  0.00    -0.081 Cl
HETATM   20  C   UNL     1      24.495  46.844  50.529  1.00  0.00     0.062 A 
ENDBRANCH   2  13
TORSDOF 3
ENDMDL
MODEL 4
REMARK VINA RESULT:      -6.8      1.891      2.389
REMARK  3 active torsions:
REMARK  status: ('A' for Active; 'I' for Inactive)
REMARK    1  A    between atoms: C_2  and  N_3 
REMARK    2  A    between atoms: C_2  and  C_14 
REMARK       I    between atoms: N_3  and  C_4 
REMARK    3  A    between atoms: C_4  and  C_5 
ROOT
HETATM    1  N   UNL     1      28.184  43.644  53.220  1.00  0.00    -0.347 N 
HETATM    2  C   UNL     1      27.279  42.890  52.514  1.00  0.00     0.268 C 
HETATM    3  O   UNL     1      27.329  41.668  52.448  1.00  0.00    -0.266 OA
HETATM    4  H   UNL     1      28.031  44.636  53.316  1.00  0.00     0.163 HD
ENDROOT
BRANCH   1   5
HETATM    5  C   UNL     1      29.250  43.050  54.011  1.00  0.00     0.114 C 
HETATM    6  C   UNL     1      30.425  42.732  53.081  1.00  0.00     0.037 C 
BRANCH   5   7
HETATM    7  C   UNL     1      29.690  43.926  55.174  1.00  0.00    -0.033 A 
HETATM    8  C   UNL     1      29.080  45.148  55.490  1.00  0.00     0.028 A 
HETATM    9  C   UNL     1      29.552  45.879  56.571  1.00  0.00     0.116 A 
HETATM   10  N   UNL     1      30.581  45.491  57.353  1.00  0.00    -0.273 NA
HETATM   11  C   UNL     1      31.153  44.310  57.048  1.00  0.00     0.116 A 
HETATM   12  C   UNL     1      30.748  43.505  55.993  1.00  0.00     0.028 A 
ENDBRANCH   5   7
ENDBRANCH   1   5
BRANCH   2  13
HETATM   13  C   UNL     1      26.240  43.645  51.848  1.00  0.00     0.103 A 
HETATM   14  N   UNL     1      25.082  43.029  51.410  1.00  0.00    -0.341 N 
HETATM   15  H   UNL     1      24.883  42.042  51.522  1.00  0.00     0.167 HD
HETATM   16  C   UNL     1      24.271  43.945  50.818  1.00  0.00     0.126 A 
HETATM   17 CL   UNL     1      22.782  43.404  50.207  1.00  0.00    -0.063 Cl
HETATM   18  C   UNL     1      24.877  45.169  50.845  1.00  0.00     0.074 A 
HETATM   19 CL   UNL     1      24.307  46.646  50.240  1.00  0.00    -0.081 Cl
HETATM   20  C   UNL     1      26.125  44.986  51.496  1.00  0.00     0.062 A 
ENDBRANCH   2  13
TORSDOF 3
ENDMDL
MODEL 5
REMARK VINA RESULT:      -6.8      4.181      5.649
REMARK  3 active torsions:
REMARK  status: ('A' for Active; 'I' for Inactive)
REMARK    1  A    between atoms: C_2  and  N_3 
REMARK    2  A    between atoms: C_2  and  C_14 
REMARK       I    between atoms: N_3  and  C_4 
REMARK    3  A    between atoms: C_4  and  C_5 
ROOT
HETATM    1  N   UNL     1      28.885  42.604  53.056  1.00  0.00    -0.347 N 
HETATM    2  C   UNL     1      28.542  41.286  52.882  1.00  0.00     0.268 C 
HETATM    3  O   UNL     1      28.356  40.511  53.813  1.00  0.00    -0.266 OA
HETATM    4  H   UNL     1      28.926  43.213  52.254  1.00  0.00     0.163 HD
ENDROOT
BRANCH   1   5
HETATM    5  C   UNL     1      28.995  43.217  54.370  1.00  0.00     0.114 C 
HETATM    6  C   UNL     1      30.473  43.247  54.770  1.00  0.00     0.037 C 
BRANCH   5   7
HETATM    7  C   UNL     1      28.380  44.607  54.433  1.00  0.00    -0.033 A 
HETATM    8  C   UNL     1      28.868  45.628  55.259  1.00  0.00     0.028 A 
HETATM    9  C   UNL     1      28.239  46.865  55.248  1.00  0.00     0.116 A 
HETATM   10  N   UNL     1      27.165  47.159  54.486  1.00  0.00    -0.273 NA
HETATM   11  C   UNL     1      26.710  46.175  53.687  1.00  0.00     0.116 A 
HETATM   12  C   UNL     1      27.275  44.909  53.623  1.00  0.00     0.028 A 
ENDBRANCH   5   7
ENDBRANCH   1   5
BRANCH   2  13
HETATM   13  C   UNL     1      28.402  40.865  51.505  1.00  0.00     0.103 A 
HETATM   14  N   UNL     1      28.905  39.650  51.077  1.00  0.00    -0.341 N 
HETATM   15  H   UNL     1      29.388  38.989  51.675  1.00  0.00     0.167 HD
HETATM   16  C   UNL     1      28.651  39.490  49.752  1.00  0.00     0.126 A 
HETATM   17 CL   UNL     1      29.181  38.056  49.013  1.00  0.00    -0.063 Cl
HETATM   18  C   UNL     1      27.991  40.590  49.282  1.00  0.00     0.074 A 
HETATM   19 CL   UNL     1      27.448  40.907  47.708  1.00  0.00    -0.081 Cl
HETATM   20  C   UNL     1      27.830  41.465  50.388  1.00  0.00     0.062 A 
ENDBRANCH   2  13
TORSDOF 3
ENDMDL
MODEL 6
REMARK VINA RESULT:      -6.7      4.204      5.248
REMARK  3 active torsions:
REMARK  status: ('A' for Active; 'I' for Inactive)
REMARK    1  A    between atoms: C_2  and  N_3 
REMARK    2  A    between atoms: C_2  and  C_14 
REMARK       I    between atoms: N_3  and  C_4 
REMARK    3  A    between atoms: C_4  and  C_5 
ROOT
HETATM    1  N   UNL     1      28.612  43.526  53.762  1.00  0.00    -0.347 N 
HETATM    2  C   UNL     1      28.039  43.587  52.516  1.00  0.00     0.268 C 
HETATM    3  O   UNL     1      27.667  44.632  51.997  1.00  0.00    -0.266 OA
HETATM    4  H   UNL     1      28.986  42.650  54.091  1.00  0.00     0.163 HD
ENDROOT
BRANCH   1   5
HETATM    5  C   UNL     1      28.890  44.714  54.554  1.00  0.00     0.114 C 
HETATM    6  C   UNL     1      27.563  45.270  55.078  1.00  0.00     0.037 C 
BRANCH   5   7
HETATM    7  C   UNL     1      29.867  44.457  55.692  1.00  0.00    -0.033 A 
HETATM    8  C   UNL     1      30.706  43.335  55.748  1.00  0.00     0.028 A 
HETATM    9  C   UNL     1      31.564  43.186  56.827  1.00  0.00     0.116 A 
HETATM   10  N   UNL     1      31.647  44.060  57.852  1.00  0.00    -0.273 NA
HETATM   11  C   UNL     1      30.845  45.141  57.784  1.00  0.00     0.116 A 
HETATM   12  C   UNL     1      29.960  45.381  56.743  1.00  0.00     0.028 A 
ENDBRANCH   5   7
ENDBRANCH   1   5
BRANCH   2  13
HETATM   13  C   UNL     1      27.907  42.314  51.840  1.00  0.00     0.103 A 
HETATM   14  N   UNL     1      28.883  41.342  51.956  1.00  0.00    -0.341 N 
HETATM   15  H   UNL     1      29.729  41.444  52.504  1.00  0.00     0.167 HD
HETATM   16  C   UNL     1      28.530  40.249  51.229  1.00  0.00     0.126 A 
HETATM   17 CL   UNL     1      29.589  38.922  51.231  1.00  0.00    -0.063 Cl
HETATM   18  C   UNL     1      27.330  40.481  50.618  1.00  0.00     0.074 A 
HETATM   19 CL   UNL     1      26.447  39.458  49.595  1.00  0.00    -0.081 Cl
HETATM   20  C   UNL     1      26.930  41.789  51.000  1.00  0.00     0.062 A 
ENDBRANCH   2  13
TORSDOF 3
ENDMDL
MODEL 7
REMARK VINA RESULT:      -6.7      4.970      6.601
REMARK  3 active torsions:
REMARK  status: ('A' for Active; 'I' for Inactive)
REMARK    1  A    between atoms: C_2  and  N_3 
REMARK    2  A    between atoms: C_2  and  C_14 
REMARK       I    between atoms: N_3  and  C_4 
REMARK    3  A    between atoms: C_4  and  C_5 
ROOT
HETATM    1  N   UNL     1      23.487  47.820  49.799  1.00  0.00    -0.347 N 
HETATM    2  C   UNL     1      23.294  48.836  48.896  1.00  0.00     0.268 C 
HETATM    3  O   UNL     1      24.097  49.111  48.013  1.00  0.00    -0.266 OA
HETATM    4  H   UNL     1      22.745  47.580  50.439  1.00  0.00     0.163 HD
ENDROOT
BRANCH   1   5
HETATM    5  C   UNL     1      24.638  46.933  49.746  1.00  0.00     0.114 C 
HETATM    6  C   UNL     1      25.742  47.515  50.634  1.00  0.00     0.037 C 
BRANCH   5   7
HETATM    7  C   UNL     1      24.307  45.502  50.145  1.00  0.00    -0.033 A 
HETATM    8  C   UNL     1      23.233  44.782  49.607  1.00  0.00     0.028 A 
HETATM    9  C   UNL     1      23.010  43.480  50.034  1.00  0.00     0.116 A 
HETATM   10  N   UNL     1      23.767  42.848  50.954  1.00  0.00    -0.273 NA
HETATM   11  C   UNL     1      24.805  43.545  51.458  1.00  0.00     0.116 A 
HETATM   12  C   UNL     1      25.113  44.846  51.089  1.00  0.00     0.028 A 
ENDBRANCH   5   7
ENDBRANCH   1   5
BRANCH   2  13
HETATM   13  C   UNL     1      22.056  49.569  49.052  1.00  0.00     0.103 A 
HETATM   14  N   UNL     1      21.022  49.064  49.819  1.00  0.00    -0.341 N 
HETATM   15  H   UNL     1      21.055  48.179  50.311  1.00  0.00     0.167 HD
HETATM   16  C   UNL     1      19.976  49.931  49.805  1.00  0.00     0.126 A 
HETATM   17 CL   UNL     1      18.590  49.511  50.691  1.00  0.00    -0.063 Cl
HETATM   18  C   UNL     1      20.293  51.009  49.029  1.00  0.00     0.074 A 
HETATM   19 CL   UNL     1      19.348  52.371  48.669  1.00  0.00    -0.081 Cl
HETATM   20  C   UNL     1      21.610  50.786  48.548  1.00  0.00     0.062 A 
ENDBRANCH   2  13
TORSDOF 3
ENDMDL
MODEL 8
REMARK VINA RESULT:      -6.5      3.844      6.746
REMARK  3 active torsions:
REMARK  status: ('A' for Active; 'I' for Inactive)
REMARK    1  A    between atoms: C_2  and  N_3 
REMARK    2  A    between atoms: C_2  and  C_14 
REMARK       I    between atoms: N_3  and  C_4 
REMARK    3  A    between atoms: C_4  and  C_5 
ROOT
HETATM    1  N   UNL     1      26.522  45.738  53.013  1.00  0.00    -0.347 N 
HETATM    2  C   UNL     1      26.595  46.306  54.261  1.00  0.00     0.268 C 
HETATM    3  O   UNL     1      25.733  47.052  54.710  1.00  0.00    -0.266 OA
HETATM    4  H   UNL     1      27.213  45.056  52.740  1.00  0.00     0.163 HD
ENDROOT
BRANCH   1   5
HETATM    5  C   UNL     1      25.377  45.921  52.135  1.00  0.00     0.114 C 
HETATM    6  C   UNL     1      25.683  47.071  51.172  1.00  0.00     0.037 C 
BRANCH   5   7
HETATM    7  C   UNL     1      24.998  44.656  51.379  1.00  0.00    -0.033 A 
HETATM    8  C   UNL     1      25.692  43.445  51.507  1.00  0.00     0.028 A 
HETATM    9  C   UNL     1      25.271  42.344  50.775  1.00  0.00     0.116 A 
HETATM   10  N   UNL     1      24.221  42.358  49.928  1.00  0.00    -0.273 NA
HETATM   11  C   UNL     1      23.553  43.523  49.820  1.00  0.00     0.116 A 
HETATM   12  C   UNL     1      23.893  44.675  50.515  1.00  0.00     0.028 A 
ENDBRANCH   5   7
ENDBRANCH   1   5
BRANCH   2  13
HETATM   13  C   UNL     1      27.771  45.955  55.027  1.00  0.00     0.103 A 
HETATM   14  N   UNL     1      28.576  44.896  54.650  1.00  0.00    -0.341 N 
HETATM   15  H   UNL     1      28.410  44.313  53.838  1.00  0.00     0.167 HD
HETATM   16  C   UNL     1      29.606  44.768  55.527  1.00  0.00     0.126 A 
HETATM   17 CL   UNL     1      30.729  43.525  55.252  1.00  0.00    -0.063 Cl
HETATM   18  C   UNL     1      29.496  45.725  56.495  1.00  0.00     0.074 A 
HETATM   19 CL   UNL     1      30.507  46.006  57.827  1.00  0.00    -0.081 Cl
HETATM   20  C   UNL     1      28.334  46.480  56.185  1.00  0.00     0.062 A 
ENDBRANCH   2  13
TORSDOF 3
ENDMDL
MODEL 9
REMARK VINA RESULT:      -6.5      5.846      9.946
REMARK  3 active torsions:
REMARK  status: ('A' for Active; 'I' for Inactive)
REMARK    1  A    between atoms: C_2  and  N_3 
REMARK    2  A    between atoms: C_2  and  C_14 
REMARK       I    between atoms: N_3  and  C_4 
REMARK    3  A    between atoms: C_4  and  C_5 
ROOT
HETATM    1  N   UNL     1      20.775  48.900  49.764  1.00  0.00    -0.347 N 
HETATM    2  C   UNL     1      21.550  48.271  48.821  1.00  0.00     0.268 C 
HETATM    3  O   UNL     1      21.083  47.681  47.854  1.00  0.00    -0.266 OA
HETATM    4  H   UNL     1      21.221  49.452  50.480  1.00  0.00     0.163 HD
ENDROOT
BRANCH   1   5
HETATM    5  C   UNL     1      19.326  48.977  49.663  1.00  0.00     0.114 C 
HETATM    6  C   UNL     1      18.719  48.395  50.943  1.00  0.00     0.037 C 
BRANCH   5   7
HETATM    7  C   UNL     1      18.820  50.389  49.406  1.00  0.00    -0.033 A 
HETATM    8  C   UNL     1      17.639  50.896  49.962  1.00  0.00     0.028 A 
HETATM    9  C   UNL     1      17.258  52.198  49.669  1.00  0.00     0.116 A 
HETATM   10  N   UNL     1      17.957  53.025  48.864  1.00  0.00    -0.273 NA
HETATM   11  C   UNL     1      19.098  52.533  48.343  1.00  0.00     0.116 A 
HETATM   12  C   UNL     1      19.565  51.248  48.583  1.00  0.00     0.028 A 
ENDBRANCH   5   7
ENDBRANCH   1   5
BRANCH   2  13
HETATM   13  C   UNL     1      22.977  48.360  49.041  1.00  0.00     0.103 A 
HETATM   14  N   UNL     1      23.601  47.574  49.992  1.00  0.00    -0.341 N 
HETATM   15  H   UNL     1      23.123  46.902  50.581  1.00  0.00     0.167 HD
HETATM   16  C   UNL     1      24.932  47.844  50.008  1.00  0.00     0.126 A 
HETATM   17 CL   UNL     1      25.900  46.984  51.107  1.00  0.00    -0.063 Cl
HETATM   18  C   UNL     1      25.209  48.810  49.083  1.00  0.00     0.074 A 
HETATM   19 CL   UNL     1      26.702  49.516  48.702  1.00  0.00    -0.081 Cl
HETATM   20  C   UNL     1      23.973  49.143  48.467  1.00  0.00     0.062 A 
ENDBRANCH   2  13
TORSDOF 3
ENDMDL
MODEL 10
REMARK VINA RESULT:      -6.5      2.871      3.982
REMARK  3 active torsions:
REMARK  status: ('A' for Active; 'I' for Inactive)
REMARK    1  A    between atoms: C_2  and  N_3 
REMARK    2  A    between atoms: C_2  and  C_14 
REMARK       I    between atoms: N_3  and  C_4 
REMARK    3  A    between atoms: C_4  and  C_5 
ROOT
HETATM    1  N   UNL     1      28.098  45.128  54.509  1.00  0.00    -0.347 N 
HETATM    2  C   UNL     1      27.164  45.622  53.633  1.00  0.00     0.268 C 
HETATM    3  O   UNL     1      26.879  46.812  53.554  1.00  0.00    -0.266 OA
HETATM    4  H   UNL     1      28.358  44.155  54.456  1.00  0.00     0.163 HD
ENDROOT
BRANCH   1   5
HETATM    5  C   UNL     1      28.885  45.985  55.380  1.00  0.00     0.114 C 
HETATM    6  C   UNL     1      27.927  46.787  56.267  1.00  0.00     0.037 C 
BRANCH   5   7
HETATM    7  C   UNL     1      29.897  45.217  56.217  1.00  0.00    -0.033 A 
HETATM    8  C   UNL     1      30.581  44.087  55.751  1.00  0.00     0.028 A 
HETATM    9  C   UNL     1      31.487  43.451  56.589  1.00  0.00     0.116 A 
HETATM   10  N   UNL     1      31.757  43.850  57.849  1.00  0.00    -0.273 NA
HETATM   11  C   UNL     1      31.103  44.945  58.285  1.00  0.00     0.116 A 
HETATM   12  C   UNL     1      30.186  45.652  57.520  1.00  0.00     0.028 A 
ENDBRANCH   5   7
ENDBRANCH   1   5
BRANCH   2  13
HETATM   13  C   UNL     1      26.531  44.633  52.787  1.00  0.00     0.103 A 
HETATM   14  N   UNL     1      27.194  43.472  52.431  1.00  0.00    -0.341 N 
HETATM   15  H   UNL     1      28.134  43.238  52.726  1.00  0.00     0.167 HD
HETATM   16  C   UNL     1      26.394  42.714  51.636  1.00  0.00     0.126 A 
HETATM   17 CL   UNL     1      27.009  41.232  51.080  1.00  0.00    -0.063 Cl
HETATM   18  C   UNL     1      25.203  43.357  51.448  1.00  0.00     0.074 A 
HETATM   19 CL   UNL     1      23.862  42.858  50.539  1.00  0.00    -0.081 Cl
HETATM   20  C   UNL     1      25.284  44.574  52.174  1.00  0.00     0.062 A 
ENDBRANCH   2  13
TORSDOF 3
ENDMDL
