MODEL 1
REMARK VINA RESULT:      -9.4      0.000      0.000
REMARK  7 active torsions:
REMARK  status: ('A' for Active; 'I' for Inactive)
REMARK    1  A    between atoms: S_2  and  C_3 
REMARK    2  A    between atoms: C_6  and  C_7 
REMARK    3  A    between atoms: N_8  and  C_9 
REMARK    4  A    between atoms: C_9  and  C_10 
REMARK    5  A    between atoms: C_10  and  C_11 
REMARK    6  A    between atoms: C_24  and  C_25 
REMARK    7  A    between atoms: C_26  and  O_27 
ROOT
HETATM    1  C   UNL     1      25.912  43.318  52.149  1.00  0.00     0.159 A 
HETATM    2  N   UNL     1      27.057  42.966  53.024  1.00  0.00    -0.333 N 
HETATM    3  C   UNL     1      27.777  41.837  52.593  1.00  0.00     0.275 A 
HETATM    4  O   UNL     1      28.777  41.355  53.101  1.00  0.00    -0.266 OA
HETATM    5  C   UNL     1      27.086  41.409  51.396  1.00  0.00     0.155 A 
HETATM    6  C   UNL     1      26.021  42.265  51.112  1.00  0.00     0.034 A 
HETATM    7  N   UNL     1      27.257  40.460  50.479  1.00  0.00    -0.168 NA
HETATM    8  N   UNL     1      26.251  40.718  49.606  1.00  0.00    -0.276 N 
HETATM    9  H   UNL     1      26.148  40.117  48.794  1.00  0.00     0.189 HD
HETATM   10  C   UNL     1      25.500  41.841  49.916  1.00  0.00     0.074 A 
ENDROOT
BRANCH   1  11
HETATM   11  C   UNL     1      26.009  44.644  51.435  1.00  0.00    -0.031 A 
HETATM   12  C   UNL     1      26.940  44.896  50.414  1.00  0.00     0.011 A 
HETATM   13  C   UNL     1      26.953  46.125  49.747  1.00  0.00     0.019 A 
HETATM   14  C   UNL     1      26.033  47.120  50.083  1.00  0.00    -0.000 A 
HETATM   15  C   UNL     1      25.121  46.892  51.114  1.00  0.00     0.019 A 
HETATM   16  C   UNL     1      25.107  45.666  51.782  1.00  0.00     0.011 A 
BRANCH  14  17
HETATM   17  S   UNL     1      26.039  48.666  49.198  1.00  0.00    -0.134 SA
HETATM   18  C   UNL     1      27.828  48.953  49.147  1.00  0.00     0.095 C 
ENDBRANCH  14  17
ENDBRANCH   1  11
BRANCH   2  19
HETATM   19  C   UNL     1      27.517  43.788  54.135  1.00  0.00     0.132 C 
BRANCH  19  20
HETATM   20  C   UNL     1      28.946  44.336  54.030  1.00  0.00     0.058 C 
BRANCH  20  21
HETATM   21  C   UNL     1      29.775  44.358  55.294  1.00  0.00    -0.057 A 
HETATM   22  C   UNL     1      29.687  45.387  56.242  1.00  0.00     0.007 A 
HETATM   23  C   UNL     1      30.460  45.352  57.404  1.00  0.00     0.001 A 
HETATM   24  C   UNL     1      31.321  44.282  57.641  1.00  0.00     0.000 A 
HETATM   25  C   UNL     1      31.404  43.243  56.720  1.00  0.00     0.001 A 
HETATM   26  C   UNL     1      30.634  43.278  55.557  1.00  0.00     0.007 A 
ENDBRANCH  20  21
ENDBRANCH  19  20
ENDBRANCH   2  19
BRANCH  10  27
HETATM   27  C   UNL     1      24.448  42.364  49.058  1.00  0.00     0.026 A 
HETATM   28  C   UNL     1      24.467  42.175  47.667  1.00  0.00     0.078 A 
HETATM   29  C   UNL     1      23.430  42.637  46.862  1.00  0.00     0.037 A 
HETATM   30  C   UNL     1      22.367  43.331  47.436  1.00  0.00     0.003 A 
HETATM   31  C   UNL     1      22.342  43.552  48.813  1.00  0.00     0.001 A 
HETATM   32  C   UNL     1      23.375  43.068  49.621  1.00  0.00     0.016 A 
BRANCH  28  33
HETATM   33  O   UNL     1      25.509  41.557  47.029  1.00  0.00    -0.360 OA
HETATM   34  H   UNL     1      26.334  41.923  47.396  1.00  0.00     0.217 HD
ENDBRANCH  28  33
ENDBRANCH  10  27
TORSDOF 7
ENDMDL
MODEL 2
REMARK VINA RESULT:      -9.2      1.591      2.264
REMARK  7 active torsions:
REMARK  status: ('A' for Active; 'I' for Inactive)
REMARK    1  A    between atoms: S_2  and  C_3 
REMARK    2  A    between atoms: C_6  and  C_7 
REMARK    3  A    between atoms: N_8  and  C_9 
REMARK    4  A    between atoms: C_9  and  C_10 
REMARK    5  A    between atoms: C_10  and  C_11 
REMARK    6  A    between atoms: C_24  and  C_25 
REMARK    7  A    between atoms: C_26  and  O_27 
ROOT
HETATM    1  C   UNL     1      26.371  41.379  51.241  1.00  0.00     0.159 A 
HETATM    2  N   UNL     1      27.630  40.791  51.761  1.00  0.00    -0.333 N 
HETATM    3  C   UNL     1      28.296  39.964  50.838  1.00  0.00     0.275 A 
HETATM    4  O   UNL     1      29.361  39.389  50.990  1.00  0.00    -0.266 OA
HETATM    5  C   UNL     1      27.450  39.987  49.664  1.00  0.00     0.155 A 
HETATM    6  C   UNL     1      26.347  40.817  49.871  1.00  0.00     0.034 A 
HETATM    7  N   UNL     1      27.503  39.479  48.436  1.00  0.00    -0.168 NA
HETATM    8  N   UNL     1      26.383  39.989  47.864  1.00  0.00    -0.276 N 
HETATM    9  H   UNL     1      26.176  39.742  46.901  1.00  0.00     0.189 HD
HETATM   10  C   UNL     1      25.670  40.855  48.677  1.00  0.00     0.074 A 
ENDROOT
BRANCH   1  11
HETATM   11  C   UNL     1      26.353  42.881  51.096  1.00  0.00    -0.031 A 
HETATM   12  C   UNL     1      27.275  43.583  50.303  1.00  0.00     0.011 A 
HETATM   13  C   UNL     1      27.183  44.971  50.159  1.00  0.00     0.019 A 
HETATM   14  C   UNL     1      26.165  45.681  50.800  1.00  0.00    -0.000 A 
HETATM   15  C   UNL     1      25.260  44.998  51.612  1.00  0.00     0.019 A 
HETATM   16  C   UNL     1      25.351  43.612  51.758  1.00  0.00     0.011 A 
BRANCH  14  17
HETATM   17  S   UNL     1      26.040  47.443  50.576  1.00  0.00    -0.134 SA
HETATM   18  C   UNL     1      24.337  47.528  49.962  1.00  0.00     0.095 C 
ENDBRANCH  14  17
ENDBRANCH   1  11
BRANCH   2  19
HETATM   19  C   UNL     1      28.230  41.149  53.039  1.00  0.00     0.132 C 
BRANCH  19  20
HETATM   20  C   UNL     1      29.426  42.106  52.984  1.00  0.00     0.058 C 
BRANCH  20  21
HETATM   21  C   UNL     1      29.444  43.252  53.970  1.00  0.00    -0.057 A 
HETATM   22  C   UNL     1      30.410  43.372  54.979  1.00  0.00     0.007 A 
HETATM   23  C   UNL     1      30.395  44.461  55.853  1.00  0.00     0.001 A 
HETATM   24  C   UNL     1      29.423  45.451  55.722  1.00  0.00     0.000 A 
HETATM   25  C   UNL     1      28.470  45.358  54.713  1.00  0.00     0.001 A 
HETATM   26  C   UNL     1      28.483  44.269  53.841  1.00  0.00     0.007 A 
ENDBRANCH  20  21
ENDBRANCH  19  20
ENDBRANCH   2  19
BRANCH  10  27
HETATM   27  C   UNL     1      24.504  41.599  48.229  1.00  0.00     0.026 A 
HETATM   28  C   UNL     1      23.399  40.959  47.646  1.00  0.00     0.078 A 
HETATM   29  C   UNL     1      22.268  41.677  47.264  1.00  0.00     0.037 A 
HETATM   30  C   UNL     1      22.239  43.060  47.432  1.00  0.00     0.003 A 
HETATM   31  C   UNL     1      23.337  43.717  47.985  1.00  0.00     0.001 A 
HETATM   32  C   UNL     1      24.463  42.991  48.386  1.00  0.00     0.016 A 
BRANCH  28  33
HETATM   33  O   UNL     1      23.384  39.613  47.395  1.00  0.00    -0.360 OA
HETATM   34  H   UNL     1      24.302  39.338  47.222  1.00  0.00     0.217 HD
ENDBRANCH  28  33
ENDBRANCH  10  27
TORSDOF 7
ENDMDL
MODEL 3
REMARK VINA RESULT:      -9.2      1.431      2.149
REMARK  7 active torsions:
REMARK  status: ('A' for Active; 'I' for Inactive)
REMARK    1  A    between atoms: S_2  and  C_3 
REMARK    2  A    between atoms: C_6  and  C_7 
REMARK    3  A    between atoms: N_8  and  C_9 
REMARK    4  A    between atoms: C_9  and  C_10 
REMARK    5  A    between atoms: C_10  and  C_11 
REMARK    6  A    between atoms: C_24  and  C_25 
REMARK    7  A    between atoms: C_26  and  O_27 
ROOT
HETATM    1  C   UNL     1      25.297  43.925  51.700  1.00  0.00     0.159 A 
HETATM    2  N   UNL     1      26.364  43.272  52.498  1.00  0.00    -0.333 N 
HETATM    3  C   UNL     1      26.744  42.007  52.013  1.00  0.00     0.275 A 
HETATM    4  O   UNL     1      27.616  41.275  52.453  1.00  0.00    -0.266 OA
HETATM    5  C   UNL     1      25.897  41.799  50.859  1.00  0.00     0.155 A 
HETATM    6  C   UNL     1      25.071  42.905  50.650  1.00  0.00     0.034 A 
HETATM    7  N   UNL     1      25.765  40.860  49.925  1.00  0.00    -0.168 NA
HETATM    8  N   UNL     1      24.809  41.388  49.120  1.00  0.00    -0.276 N 
HETATM    9  H   UNL     1      24.508  40.852  48.311  1.00  0.00     0.189 HD
HETATM   10  C   UNL     1      24.390  42.657  49.485  1.00  0.00     0.074 A 
ENDROOT
BRANCH   1  11
HETATM   11  C   UNL     1      25.688  45.200  50.993  1.00  0.00    -0.031 A 
HETATM   12  C   UNL     1      24.970  46.400  51.127  1.00  0.00     0.011 A 
HETATM   13  C   UNL     1      25.405  47.567  50.492  1.00  0.00     0.019 A 
HETATM   14  C   UNL     1      26.567  47.558  49.717  1.00  0.00    -0.000 A 
HETATM   15  C   UNL     1      27.273  46.367  49.555  1.00  0.00     0.019 A 
HETATM   16  C   UNL     1      26.840  45.200  50.187  1.00  0.00     0.011 A 
BRANCH  14  17
HETATM   17  S   UNL     1      27.127  49.063  48.946  1.00  0.00    -0.134 SA
HETATM   18  C   UNL     1      25.523  49.724  48.423  1.00  0.00     0.095 C 
ENDBRANCH  14  17
ENDBRANCH   1  11
BRANCH   2  19
HETATM   19  C   UNL     1      27.083  43.923  53.584  1.00  0.00     0.132 C 
BRANCH  19  20
HETATM   20  C   UNL     1      28.596  44.091  53.394  1.00  0.00     0.058 C 
BRANCH  20  21
HETATM   21  C   UNL     1      29.450  44.160  54.639  1.00  0.00    -0.057 A 
HETATM   22  C   UNL     1      30.354  43.150  54.996  1.00  0.00     0.007 A 
HETATM   23  C   UNL     1      31.135  43.270  56.148  1.00  0.00     0.001 A 
HETATM   24  C   UNL     1      31.032  44.405  56.950  1.00  0.00     0.000 A 
HETATM   25  C   UNL     1      30.155  45.425  56.598  1.00  0.00     0.001 A 
HETATM   26  C   UNL     1      29.372  45.305  55.449  1.00  0.00     0.007 A 
ENDBRANCH  20  21
ENDBRANCH  19  20
ENDBRANCH   2  19
BRANCH  10  27
HETATM   27  C   UNL     1      23.458  43.451  48.700  1.00  0.00     0.026 A 
HETATM   28  C   UNL     1      22.381  44.126  49.294  1.00  0.00     0.078 A 
HETATM   29  C   UNL     1      21.524  44.923  48.540  1.00  0.00     0.037 A 
HETATM   30  C   UNL     1      21.714  45.030  47.164  1.00  0.00     0.003 A 
HETATM   31  C   UNL     1      22.763  44.346  46.551  1.00  0.00     0.001 A 
HETATM   32  C   UNL     1      23.633  43.563  47.314  1.00  0.00     0.016 A 
BRANCH  28  33
HETATM   33  O   UNL     1      22.098  44.017  50.630  1.00  0.00    -0.360 OA
HETATM   34  H   UNL     1      22.751  43.406  51.017  1.00  0.00     0.217 HD
ENDBRANCH  28  33
ENDBRANCH  10  27
TORSDOF 7
ENDMDL
MODEL 4
REMARK VINA RESULT:      -9.1      1.794      2.541
REMARK  7 active torsions:
REMARK  status: ('A' for Active; 'I' for Inactive)
REMARK    1  A    between atoms: S_2  and  C_3 
REMARK    2  A    between atoms: C_6  and  C_7 
REMARK    3  A    between atoms: N_8  and  C_9 
REMARK    4  A    between atoms: C_9  and  C_10 
REMARK    5  A    between atoms: C_10  and  C_11 
REMARK    6  A    between atoms: C_24  and  C_25 
REMARK    7  A    between atoms: C_26  and  O_27 
ROOT
HETATM    1  C   UNL     1      25.461  43.337  51.367  1.00  0.00     0.159 A 
HETATM    2  N   UNL     1      26.592  42.540  51.904  1.00  0.00    -0.333 N 
HETATM    3  C   UNL     1      26.859  41.367  51.174  1.00  0.00     0.275 A 
HETATM    4  O   UNL     1      27.748  40.556  51.372  1.00  0.00    -0.266 OA
HETATM    5  C   UNL     1      25.867  41.369  50.120  1.00  0.00     0.155 A 
HETATM    6  C   UNL     1      25.066  42.510  50.203  1.00  0.00     0.034 A 
HETATM    7  N   UNL     1      25.582  40.602  49.071  1.00  0.00    -0.168 NA
HETATM    8  N   UNL     1      24.555  41.273  48.493  1.00  0.00    -0.276 N 
HETATM    9  H   UNL     1      24.135  40.886  47.654  1.00  0.00     0.189 HD
HETATM   10  C   UNL     1      24.236  42.471  49.111  1.00  0.00     0.074 A 
ENDROOT
BRANCH   1  11
HETATM   11  C   UNL     1      25.811  44.704  50.832  1.00  0.00    -0.031 A 
HETATM   12  C   UNL     1      26.958  44.952  50.060  1.00  0.00     0.011 A 
HETATM   13  C   UNL     1      27.208  46.226  49.543  1.00  0.00     0.019 A 
HETATM   14  C   UNL     1      26.315  47.273  49.781  1.00  0.00    -0.000 A 
HETATM   15  C   UNL     1      25.187  47.046  50.569  1.00  0.00     0.019 A 
HETATM   16  C   UNL     1      24.935  45.774  51.087  1.00  0.00     0.011 A 
BRANCH  14  17
HETATM   17  S   UNL     1      26.631  48.882  49.084  1.00  0.00    -0.134 SA
HETATM   18  C   UNL     1      24.922  49.377  48.737  1.00  0.00     0.095 C 
ENDBRANCH  14  17
ENDBRANCH   1  11
BRANCH   2  19
HETATM   19  C   UNL     1      27.466  42.988  52.979  1.00  0.00     0.132 C 
BRANCH  19  20
HETATM   20  C   UNL     1      26.780  43.615  54.198  1.00  0.00     0.058 C 
BRANCH  20  21
HETATM   21  C   UNL     1      27.081  45.066  54.495  1.00  0.00    -0.057 A 
HETATM   22  C   UNL     1      28.346  45.511  54.901  1.00  0.00     0.007 A 
HETATM   23  C   UNL     1      28.579  46.867  55.144  1.00  0.00     0.001 A 
HETATM   24  C   UNL     1      27.555  47.796  54.971  1.00  0.00     0.000 A 
HETATM   25  C   UNL     1      26.300  47.372  54.548  1.00  0.00     0.001 A 
HETATM   26  C   UNL     1      26.065  46.018  54.307  1.00  0.00     0.007 A 
ENDBRANCH  20  21
ENDBRANCH  19  20
ENDBRANCH   2  19
BRANCH  10  27
HETATM   27  C   UNL     1      23.245  43.403  48.593  1.00  0.00     0.026 A 
HETATM   28  C   UNL     1      23.198  43.749  47.234  1.00  0.00     0.078 A 
HETATM   29  C   UNL     1      22.215  44.603  46.740  1.00  0.00     0.037 A 
HETATM   30  C   UNL     1      21.279  45.154  47.613  1.00  0.00     0.003 A 
HETATM   31  C   UNL     1      21.325  44.843  48.971  1.00  0.00     0.001 A 
HETATM   32  C   UNL     1      22.301  43.969  49.459  1.00  0.00     0.016 A 
BRANCH  28  33
HETATM   33  O   UNL     1      24.122  43.294  46.332  1.00  0.00    -0.360 OA
HETATM   34  H   UNL     1      24.167  43.944  45.607  1.00  0.00     0.217 HD
ENDBRANCH  28  33
ENDBRANCH  10  27
TORSDOF 7
ENDMDL
MODEL 5
REMARK VINA RESULT:      -9.1      2.819      6.367
REMARK  7 active torsions:
REMARK  status: ('A' for Active; 'I' for Inactive)
REMARK    1  A    between atoms: S_2  and  C_3 
REMARK    2  A    between atoms: C_6  and  C_7 
REMARK    3  A    between atoms: N_8  and  C_9 
REMARK    4  A    between atoms: C_9  and  C_10 
REMARK    5  A    between atoms: C_10  and  C_11 
REMARK    6  A    between atoms: C_24  and  C_25 
REMARK    7  A    between atoms: C_26  and  O_27 
ROOT
HETATM    1  C   UNL     1      24.961  44.174  49.121  1.00  0.00     0.159 A 
HETATM    2  N   UNL     1      23.648  44.863  49.187  1.00  0.00    -0.333 N 
HETATM    3  C   UNL     1      22.548  44.013  48.968  1.00  0.00     0.275 A 
HETATM    4  O   UNL     1      21.365  44.308  49.002  1.00  0.00    -0.266 OA
HETATM    5  C   UNL     1      23.142  42.714  48.735  1.00  0.00     0.155 A 
HETATM    6  C   UNL     1      24.532  42.784  48.842  1.00  0.00     0.034 A 
HETATM    7  N   UNL     1      22.693  41.481  48.518  1.00  0.00    -0.168 NA
HETATM    8  N   UNL     1      23.841  40.761  48.465  1.00  0.00    -0.276 N 
HETATM    9  H   UNL     1      23.779  39.761  48.298  1.00  0.00     0.189 HD
HETATM   10  C   UNL     1      24.989  41.497  48.711  1.00  0.00     0.074 A 
ENDROOT
BRANCH   1  11
HETATM   11  C   UNL     1      25.752  44.137  50.406  1.00  0.00    -0.031 A 
HETATM   12  C   UNL     1      25.162  43.912  51.661  1.00  0.00     0.011 A 
HETATM   13  C   UNL     1      25.947  43.833  52.815  1.00  0.00     0.019 A 
HETATM   14  C   UNL     1      27.335  43.970  52.736  1.00  0.00    -0.000 A 
HETATM   15  C   UNL     1      27.930  44.221  51.500  1.00  0.00     0.019 A 
HETATM   16  C   UNL     1      27.147  44.301  50.346  1.00  0.00     0.011 A 
BRANCH  14  17
HETATM   17  S   UNL     1      28.324  43.830  54.211  1.00  0.00    -0.134 SA
HETATM   18  C   UNL     1      27.955  45.443  54.951  1.00  0.00     0.095 C 
ENDBRANCH  14  17
ENDBRANCH   1  11
BRANCH   2  19
HETATM   19  C   UNL     1      23.474  46.248  49.601  1.00  0.00     0.132 C 
BRANCH  19  20
HETATM   20  C   UNL     1      24.633  46.874  50.388  1.00  0.00     0.058 C 
BRANCH  20  21
HETATM   21  C   UNL     1      25.429  47.962  49.704  1.00  0.00    -0.057 A 
HETATM   22  C   UNL     1      26.827  48.035  49.770  1.00  0.00     0.007 A 
HETATM   23  C   UNL     1      27.518  49.049  49.103  1.00  0.00     0.001 A 
HETATM   24  C   UNL     1      26.823  49.995  48.352  1.00  0.00     0.000 A 
HETATM   25  C   UNL     1      25.436  49.923  48.260  1.00  0.00     0.001 A 
HETATM   26  C   UNL     1      24.744  48.912  48.928  1.00  0.00     0.007 A 
ENDBRANCH  20  21
ENDBRANCH  19  20
ENDBRANCH   2  19
BRANCH  10  27
HETATM   27  C   UNL     1      26.314  40.906  48.814  1.00  0.00     0.026 A 
HETATM   28  C   UNL     1      26.678  40.094  49.900  1.00  0.00     0.078 A 
HETATM   29  C   UNL     1      27.932  39.494  49.964  1.00  0.00     0.037 A 
HETATM   30  C   UNL     1      28.861  39.727  48.952  1.00  0.00     0.003 A 
HETATM   31  C   UNL     1      28.528  40.551  47.878  1.00  0.00     0.001 A 
HETATM   32  C   UNL     1      27.260  41.135  47.807  1.00  0.00     0.016 A 
BRANCH  28  33
HETATM   33  O   UNL     1      25.838  39.872  50.959  1.00  0.00    -0.360 OA
HETATM   34  H   UNL     1      25.666  40.734  51.380  1.00  0.00     0.217 HD
ENDBRANCH  28  33
ENDBRANCH  10  27
TORSDOF 7
ENDMDL
MODEL 6
REMARK VINA RESULT:      -8.8      5.079      9.244
REMARK  7 active torsions:
REMARK  status: ('A' for Active; 'I' for Inactive)
REMARK    1  A    between atoms: S_2  and  C_3 
REMARK    2  A    between atoms: C_6  and  C_7 
REMARK    3  A    between atoms: N_8  and  C_9 
REMARK    4  A    between atoms: C_9  and  C_10 
REMARK    5  A    between atoms: C_10  and  C_11 
REMARK    6  A    between atoms: C_24  and  C_25 
REMARK    7  A    between atoms: C_26  and  O_27 
ROOT
HETATM    1  C   UNL     1      23.340  47.558  49.556  1.00  0.00     0.159 A 
HETATM    2  N   UNL     1      22.854  48.554  48.570  1.00  0.00    -0.333 N 
HETATM    3  C   UNL     1      23.859  49.407  48.079  1.00  0.00     0.275 A 
HETATM    4  O   UNL     1      23.744  50.284  47.238  1.00  0.00    -0.266 OA
HETATM    5  C   UNL     1      25.058  48.979  48.767  1.00  0.00     0.155 A 
HETATM    6  C   UNL     1      24.781  47.898  49.607  1.00  0.00     0.034 A 
HETATM    7  N   UNL     1      26.346  49.310  48.743  1.00  0.00    -0.168 NA
HETATM    8  N   UNL     1      26.888  48.422  49.614  1.00  0.00    -0.276 N 
HETATM    9  H   UNL     1      27.888  48.464  49.789  1.00  0.00     0.189 HD
HETATM   10  C   UNL     1      25.987  47.503  50.127  1.00  0.00     0.074 A 
ENDROOT
BRANCH   1  11
HETATM   11  C   UNL     1      23.248  46.112  49.135  1.00  0.00    -0.031 A 
HETATM   12  C   UNL     1      23.118  45.712  47.794  1.00  0.00     0.011 A 
HETATM   13  C   UNL     1      23.091  44.357  47.453  1.00  0.00     0.019 A 
HETATM   14  C   UNL     1      23.200  43.377  48.442  1.00  0.00    -0.000 A 
HETATM   15  C   UNL     1      23.302  43.761  49.778  1.00  0.00     0.019 A 
HETATM   16  C   UNL     1      23.329  45.114  50.122  1.00  0.00     0.011 A 
BRANCH  14  17
HETATM   17  S   UNL     1      23.201  41.655  47.985  1.00  0.00    -0.134 SA
HETATM   18  C   UNL     1      24.750  41.155  48.781  1.00  0.00     0.095 C 
ENDBRANCH  14  17
ENDBRANCH   1  11
BRANCH   2  19
HETATM   19  C   UNL     1      21.506  48.564  48.018  1.00  0.00     0.132 C 
BRANCH  19  20
HETATM   20  C   UNL     1      20.360  48.724  49.025  1.00  0.00     0.058 C 
BRANCH  20  21
HETATM   21  C   UNL     1      19.656  50.061  49.069  1.00  0.00    -0.057 A 
HETATM   22  C   UNL     1      20.088  51.171  48.330  1.00  0.00     0.007 A 
HETATM   23  C   UNL     1      19.391  52.380  48.391  1.00  0.00     0.001 A 
HETATM   24  C   UNL     1      18.247  52.491  49.178  1.00  0.00     0.000 A 
HETATM   25  C   UNL     1      17.794  51.393  49.901  1.00  0.00     0.001 A 
HETATM   26  C   UNL     1      18.490  50.185  49.844  1.00  0.00     0.007 A 
ENDBRANCH  20  21
ENDBRANCH  19  20
ENDBRANCH   2  19
BRANCH  10  27
HETATM   27  C   UNL     1      26.374  46.395  50.988  1.00  0.00     0.026 A 
HETATM   28  C   UNL     1      26.929  45.216  50.468  1.00  0.00     0.078 A 
HETATM   29  C   UNL     1      27.341  44.182  51.305  1.00  0.00     0.037 A 
HETATM   30  C   UNL     1      27.171  44.301  52.683  1.00  0.00     0.003 A 
HETATM   31  C   UNL     1      26.597  45.454  53.217  1.00  0.00     0.001 A 
HETATM   32  C   UNL     1      26.204  46.498  52.375  1.00  0.00     0.016 A 
BRANCH  28  33
HETATM   33  O   UNL     1      27.069  45.006  49.122  1.00  0.00    -0.360 OA
HETATM   34  H   UNL     1      26.436  44.310  48.868  1.00  0.00     0.217 HD
ENDBRANCH  28  33
ENDBRANCH  10  27
TORSDOF 7
ENDMDL
MODEL 7
REMARK VINA RESULT:      -8.7      1.782      2.525
REMARK  7 active torsions:
REMARK  status: ('A' for Active; 'I' for Inactive)
REMARK    1  A    between atoms: S_2  and  C_3 
REMARK    2  A    between atoms: C_6  and  C_7 
REMARK    3  A    between atoms: N_8  and  C_9 
REMARK    4  A    between atoms: C_9  and  C_10 
REMARK    5  A    between atoms: C_10  and  C_11 
REMARK    6  A    between atoms: C_24  and  C_25 
REMARK    7  A    between atoms: C_26  and  O_27 
ROOT
HETATM    1  C   UNL     1      26.177  42.228  51.558  1.00  0.00     0.159 A 
HETATM    2  N   UNL     1      27.332  42.129  52.484  1.00  0.00    -0.333 N 
HETATM    3  C   UNL     1      28.386  41.334  51.997  1.00  0.00     0.275 A 
HETATM    4  O   UNL     1      29.460  41.115  52.534  1.00  0.00    -0.266 OA
HETATM    5  C   UNL     1      27.919  40.873  50.707  1.00  0.00     0.155 A 
HETATM    6  C   UNL     1      26.656  41.398  50.428  1.00  0.00     0.034 A 
HETATM    7  N   UNL     1      28.418  40.146  49.712  1.00  0.00    -0.168 NA
HETATM    8  N   UNL     1      27.425  40.198  48.790  1.00  0.00    -0.276 N 
HETATM    9  H   UNL     1      27.552  39.703  47.912  1.00  0.00     0.189 HD
HETATM   10  C   UNL     1      26.350  40.993  49.153  1.00  0.00     0.074 A 
ENDROOT
BRANCH   1  11
HETATM   11  C   UNL     1      25.893  43.601  51.000  1.00  0.00    -0.031 A 
HETATM   12  C   UNL     1      24.654  44.246  51.150  1.00  0.00     0.011 A 
HETATM   13  C   UNL     1      24.459  45.541  50.661  1.00  0.00     0.019 A 
HETATM   14  C   UNL     1      25.499  46.217  50.020  1.00  0.00    -0.000 A 
HETATM   15  C   UNL     1      26.725  45.578  49.841  1.00  0.00     0.019 A 
HETATM   16  C   UNL     1      26.922  44.284  50.328  1.00  0.00     0.011 A 
BRANCH  14  17
HETATM   17  S   UNL     1      25.245  47.881  49.436  1.00  0.00    -0.134 SA
HETATM   18  C   UNL     1      26.977  48.389  49.275  1.00  0.00     0.095 C 
ENDBRANCH  14  17
ENDBRANCH   1  11
BRANCH   2  19
HETATM   19  C   UNL     1      27.461  42.902  53.711  1.00  0.00     0.132 C 
BRANCH  19  20
HETATM   20  C   UNL     1      28.352  44.148  53.639  1.00  0.00     0.058 C 
BRANCH  20  21
HETATM   21  C   UNL     1      27.780  45.443  54.171  1.00  0.00    -0.057 A 
HETATM   22  C   UNL     1      26.700  46.100  53.566  1.00  0.00     0.007 A 
HETATM   23  C   UNL     1      26.195  47.284  54.107  1.00  0.00     0.001 A 
HETATM   24  C   UNL     1      26.753  47.819  55.267  1.00  0.00     0.000 A 
HETATM   25  C   UNL     1      27.812  47.168  55.890  1.00  0.00     0.001 A 
HETATM   26  C   UNL     1      28.320  45.986  55.349  1.00  0.00     0.007 A 
ENDBRANCH  20  21
ENDBRANCH  19  20
ENDBRANCH   2  19
BRANCH  10  27
HETATM   27  C   UNL     1      25.230  41.280  48.269  1.00  0.00     0.026 A 
HETATM   28  C   UNL     1      25.389  41.355  46.877  1.00  0.00     0.078 A 
HETATM   29  C   UNL     1      24.301  41.582  46.038  1.00  0.00     0.037 A 
HETATM   30  C   UNL     1      23.034  41.771  46.586  1.00  0.00     0.003 A 
HETATM   31  C   UNL     1      22.860  41.726  47.969  1.00  0.00     0.001 A 
HETATM   32  C   UNL     1      23.951  41.478  48.807  1.00  0.00     0.016 A 
BRANCH  28  33
HETATM   33  O   UNL     1      26.613  41.240  46.274  1.00  0.00    -0.360 OA
HETATM   34  H   UNL     1      27.088  40.512  46.715  1.00  0.00     0.217 HD
ENDBRANCH  28  33
ENDBRANCH  10  27
TORSDOF 7
ENDMDL
MODEL 8
REMARK VINA RESULT:      -8.4      3.368      8.209
REMARK  7 active torsions:
REMARK  status: ('A' for Active; 'I' for Inactive)
REMARK    1  A    between atoms: S_2  and  C_3 
REMARK    2  A    between atoms: C_6  and  C_7 
REMARK    3  A    between atoms: N_8  and  C_9 
REMARK    4  A    between atoms: C_9  and  C_10 
REMARK    5  A    between atoms: C_10  and  C_11 
REMARK    6  A    between atoms: C_24  and  C_25 
REMARK    7  A    between atoms: C_26  and  O_27 
ROOT
HETATM    1  C   UNL     1      25.041  42.163  49.996  1.00  0.00     0.159 A 
HETATM    2  N   UNL     1      24.177  42.508  48.840  1.00  0.00    -0.333 N 
HETATM    3  C   UNL     1      24.223  43.868  48.481  1.00  0.00     0.275 A 
HETATM    4  O   UNL     1      23.644  44.410  47.553  1.00  0.00    -0.266 OA
HETATM    5  C   UNL     1      25.137  44.458  49.434  1.00  0.00     0.155 A 
HETATM    6  C   UNL     1      25.637  43.485  50.301  1.00  0.00     0.034 A 
HETATM    7  N   UNL     1      25.663  45.663  49.637  1.00  0.00    -0.168 NA
HETATM    8  N   UNL     1      26.500  45.440  50.681  1.00  0.00    -0.276 N 
HETATM    9  H   UNL     1      27.034  46.222  51.048  1.00  0.00     0.189 HD
HETATM   10  C   UNL     1      26.564  44.118  51.090  1.00  0.00     0.074 A 
ENDROOT
BRANCH   1  11
HETATM   11  C   UNL     1      26.188  41.225  49.707  1.00  0.00    -0.031 A 
HETATM   12  C   UNL     1      27.281  41.579  48.899  1.00  0.00     0.011 A 
HETATM   13  C   UNL     1      28.343  40.692  48.707  1.00  0.00     0.019 A 
HETATM   14  C   UNL     1      28.337  39.438  49.322  1.00  0.00    -0.000 A 
HETATM   15  C   UNL     1      27.245  39.064  50.105  1.00  0.00     0.019 A 
HETATM   16  C   UNL     1      26.182  39.949  50.298  1.00  0.00     0.011 A 
BRANCH  14  17
HETATM   17  S   UNL     1      29.717  38.334  49.096  1.00  0.00    -0.134 SA
HETATM   18  C   UNL     1      29.931  37.798  50.814  1.00  0.00     0.095 C 
ENDBRANCH  14  17
ENDBRANCH   1  11
BRANCH   2  19
HETATM   19  C   UNL     1      23.468  41.526  48.031  1.00  0.00     0.132 C 
BRANCH  19  20
HETATM   20  C   UNL     1      23.975  41.333  46.596  1.00  0.00     0.058 C 
BRANCH  20  21
HETATM   21  C   UNL     1      25.075  40.319  46.379  1.00  0.00    -0.057 A 
HETATM   22  C   UNL     1      25.034  39.027  46.921  1.00  0.00     0.007 A 
HETATM   23  C   UNL     1      26.067  38.119  46.674  1.00  0.00     0.001 A 
HETATM   24  C   UNL     1      27.145  38.486  45.872  1.00  0.00     0.000 A 
HETATM   25  C   UNL     1      27.190  39.757  45.309  1.00  0.00     0.001 A 
HETATM   26  C   UNL     1      26.161  40.666  45.557  1.00  0.00     0.007 A 
ENDBRANCH  20  21
ENDBRANCH  19  20
ENDBRANCH   2  19
BRANCH  10  27
HETATM   27  C   UNL     1      27.480  43.638  52.114  1.00  0.00     0.026 A 
HETATM   28  C   UNL     1      27.042  43.337  53.413  1.00  0.00     0.078 A 
HETATM   29  C   UNL     1      27.917  42.832  54.371  1.00  0.00     0.037 A 
HETATM   30  C   UNL     1      29.261  42.652  54.050  1.00  0.00     0.003 A 
HETATM   31  C   UNL     1      29.721  42.971  52.773  1.00  0.00     0.001 A 
HETATM   32  C   UNL     1      28.835  43.458  51.808  1.00  0.00     0.016 A 
BRANCH  28  33
HETATM   33  O   UNL     1      25.750  43.547  53.814  1.00  0.00    -0.360 OA
HETATM   34  H   UNL     1      25.292  42.687  53.786  1.00  0.00     0.217 HD
ENDBRANCH  28  33
ENDBRANCH  10  27
TORSDOF 7
ENDMDL
MODEL 9
REMARK VINA RESULT:      -8.4      3.127      4.769
REMARK  7 active torsions:
REMARK  status: ('A' for Active; 'I' for Inactive)
REMARK    1  A    between atoms: S_2  and  C_3 
REMARK    2  A    between atoms: C_6  and  C_7 
REMARK    3  A    between atoms: N_8  and  C_9 
REMARK    4  A    between atoms: C_9  and  C_10 
REMARK    5  A    between atoms: C_10  and  C_11 
REMARK    6  A    between atoms: C_24  and  C_25 
REMARK    7  A    between atoms: C_26  and  O_27 
ROOT
HETATM    1  C   UNL     1      26.149  43.327  49.691  1.00  0.00     0.159 A 
HETATM    2  N   UNL     1      26.196  44.030  50.997  1.00  0.00    -0.333 N 
HETATM    3  C   UNL     1      24.930  44.384  51.499  1.00  0.00     0.275 A 
HETATM    4  O   UNL     1      24.679  44.932  52.560  1.00  0.00    -0.266 OA
HETATM    5  C   UNL     1      24.003  43.915  50.492  1.00  0.00     0.155 A 
HETATM    6  C   UNL     1      24.687  43.282  49.452  1.00  0.00     0.034 A 
HETATM    7  N   UNL     1      22.681  43.876  50.351  1.00  0.00    -0.168 NA
HETATM    8  N   UNL     1      22.535  43.219  49.173  1.00  0.00    -0.276 N 
HETATM    9  H   UNL     1      21.596  43.059  48.821  1.00  0.00     0.189 HD
HETATM   10  C   UNL     1      23.724  42.786  48.610  1.00  0.00     0.074 A 
ENDROOT
BRANCH   1  11
HETATM   11  C   UNL     1      26.634  41.897  49.692  1.00  0.00    -0.031 A 
HETATM   12  C   UNL     1      26.183  40.938  50.613  1.00  0.00     0.011 A 
HETATM   13  C   UNL     1      26.623  39.613  50.537  1.00  0.00     0.019 A 
HETATM   14  C   UNL     1      27.517  39.222  49.538  1.00  0.00    -0.000 A 
HETATM   15  C   UNL     1      27.993  40.172  48.634  1.00  0.00     0.019 A 
HETATM   16  C   UNL     1      27.555  41.495  48.708  1.00  0.00     0.011 A 
BRANCH  14  17
HETATM   17  S   UNL     1      28.039  37.522  49.433  1.00  0.00    -0.134 SA
HETATM   18  C   UNL     1      29.627  37.663  50.296  1.00  0.00     0.095 C 
ENDBRANCH  14  17
ENDBRANCH   1  11
BRANCH   2  19
HETATM   19  C   UNL     1      27.407  44.202  51.786  1.00  0.00     0.132 C 
BRANCH  19  20
HETATM   20  C   UNL     1      27.493  43.394  53.087  1.00  0.00     0.058 C 
BRANCH  20  21
HETATM   21  C   UNL     1      28.561  43.789  54.081  1.00  0.00    -0.057 A 
HETATM   22  C   UNL     1      28.503  44.973  54.829  1.00  0.00     0.007 A 
HETATM   23  C   UNL     1      29.506  45.283  55.749  1.00  0.00     0.001 A 
HETATM   24  C   UNL     1      30.573  44.408  55.945  1.00  0.00     0.000 A 
HETATM   25  C   UNL     1      30.635  43.219  55.225  1.00  0.00     0.001 A 
HETATM   26  C   UNL     1      29.634  42.909  54.303  1.00  0.00     0.007 A 
ENDBRANCH  20  21
ENDBRANCH  19  20
ENDBRANCH   2  19
BRANCH  10  27
HETATM   27  C   UNL     1      23.792  41.965  47.410  1.00  0.00     0.026 A 
HETATM   28  C   UNL     1      23.709  42.527  46.127  1.00  0.00     0.078 A 
HETATM   29  C   UNL     1      23.824  41.738  44.985  1.00  0.00     0.037 A 
HETATM   30  C   UNL     1      23.991  40.360  45.113  1.00  0.00     0.003 A 
HETATM   31  C   UNL     1      24.050  39.780  46.379  1.00  0.00     0.001 A 
HETATM   32  C   UNL     1      23.955  40.578  47.523  1.00  0.00     0.016 A 
BRANCH  28  33
HETATM   33  O   UNL     1      23.484  43.863  45.927  1.00  0.00    -0.360 OA
HETATM   34  H   UNL     1      23.897  44.342  46.669  1.00  0.00     0.217 HD
ENDBRANCH  28  33
ENDBRANCH  10  27
TORSDOF 7
ENDMDL
MODEL 10
REMARK VINA RESULT:      -8.4      3.441      7.431
REMARK  7 active torsions:
REMARK  status: ('A' for Active; 'I' for Inactive)
REMARK    1  A    between atoms: S_2  and  C_3 
REMARK    2  A    between atoms: C_6  and  C_7 
REMARK    3  A    between atoms: N_8  and  C_9 
REMARK    4  A    between atoms: C_9  and  C_10 
REMARK    5  A    between atoms: C_10  and  C_11 
REMARK    6  A    between atoms: C_24  and  C_25 
REMARK    7  A    between atoms: C_26  and  O_27 
ROOT
HETATM    1  C   UNL     1      24.723  44.295  48.920  1.00  0.00     0.159 A 
HETATM    2  N   UNL     1      23.386  44.939  48.917  1.00  0.00    -0.333 N 
HETATM    3  C   UNL     1      22.321  44.038  48.727  1.00  0.00     0.275 A 
HETATM    4  O   UNL     1      21.128  44.291  48.718  1.00  0.00    -0.266 OA
HETATM    5  C   UNL     1      22.965  42.750  48.585  1.00  0.00     0.155 A 
HETATM    6  C   UNL     1      24.349  42.876  48.717  1.00  0.00     0.034 A 
HETATM    7  N   UNL     1      22.563  41.491  48.434  1.00  0.00    -0.168 NA
HETATM    8  N   UNL     1      23.737  40.810  48.449  1.00  0.00    -0.276 N 
HETATM    9  H   UNL     1      23.713  39.801  48.340  1.00  0.00     0.189 HD
HETATM   10  C   UNL     1      24.853  41.600  48.673  1.00  0.00     0.074 A 
ENDROOT
BRANCH   1  11
HETATM   11  C   UNL     1      25.486  44.362  50.221  1.00  0.00    -0.031 A 
HETATM   12  C   UNL     1      24.858  44.338  51.477  1.00  0.00     0.011 A 
HETATM   13  C   UNL     1      25.613  44.348  52.653  1.00  0.00     0.019 A 
HETATM   14  C   UNL     1      27.009  44.377  52.596  1.00  0.00    -0.000 A 
HETATM   15  C   UNL     1      27.643  44.428  51.355  1.00  0.00     0.019 A 
HETATM   16  C   UNL     1      26.890  44.419  50.179  1.00  0.00     0.011 A 
BRANCH  14  17
HETATM   17  S   UNL     1      27.957  44.352  54.104  1.00  0.00    -0.134 SA
HETATM   18  C   UNL     1      29.361  43.357  53.535  1.00  0.00     0.095 C 
ENDBRANCH  14  17
ENDBRANCH   1  11
BRANCH   2  19
HETATM   19  C   UNL     1      23.155  46.339  49.243  1.00  0.00     0.132 C 
BRANCH  19  20
HETATM   20  C   UNL     1      22.768  47.255  48.075  1.00  0.00     0.058 C 
BRANCH  20  21
HETATM   21  C   UNL     1      22.347  48.667  48.411  1.00  0.00    -0.057 A 
HETATM   22  C   UNL     1      23.128  49.788  48.095  1.00  0.00     0.007 A 
HETATM   23  C   UNL     1      22.685  51.074  48.410  1.00  0.00     0.001 A 
HETATM   24  C   UNL     1      21.451  51.259  49.030  1.00  0.00     0.000 A 
HETATM   25  C   UNL     1      20.655  50.159  49.330  1.00  0.00     0.001 A 
HETATM   26  C   UNL     1      21.097  48.872  49.020  1.00  0.00     0.007 A 
ENDBRANCH  20  21
ENDBRANCH  19  20
ENDBRANCH   2  19
BRANCH  10  27
HETATM   27  C   UNL     1      26.195  41.064  48.839  1.00  0.00     0.026 A 
HETATM   28  C   UNL     1      26.705  40.731  50.103  1.00  0.00     0.078 A 
HETATM   29  C   UNL     1      27.973  40.173  50.246  1.00  0.00     0.037 A 
HETATM   30  C   UNL     1      28.768  39.970  49.120  1.00  0.00     0.003 A 
HETATM   31  C   UNL     1      28.289  40.319  47.858  1.00  0.00     0.001 A 
HETATM   32  C   UNL     1      27.008  40.860  47.717  1.00  0.00     0.016 A 
BRANCH  28  33
HETATM   33  O   UNL     1      26.004  40.960  51.257  1.00  0.00    -0.360 OA
HETATM   34  H   UNL     1      26.645  41.233  51.939  1.00  0.00     0.217 HD
ENDBRANCH  28  33
ENDBRANCH  10  27
TORSDOF 7
ENDMDL
