MODEL 1
REMARK VINA RESULT:      -8.3      0.000      0.000
REMARK  1 active torsions:
REMARK  status: ('A' for Active; 'I' for Inactive)
REMARK    1  A    between atoms: C_8  and  C_9 
ROOT
HETATM    1  C   UNL     1      22.151  45.440  48.914  1.00  0.00     0.073 C 
HETATM    2  C   UNL     1      23.538  44.911  48.963  1.00  0.00     0.062 C 
HETATM    3  N   UNL     1      23.875  43.921  48.129  1.00  0.00    -0.178 NA
HETATM    4  N   UNL     1      25.165  43.700  48.395  1.00  0.00    -0.262 N 
HETATM    5  H   UNL     1      25.645  42.983  47.863  1.00  0.00     0.191 HD
HETATM    6  C   UNL     1      25.625  44.404  49.471  1.00  0.00     0.134 C 
HETATM    7  C   UNL     1      24.638  45.317  49.792  1.00  0.00     0.032 C 
HETATM    8  C   UNL     1      24.679  46.495  50.718  1.00  0.00     0.120 C 
HETATM    9  S   UNL     1      25.448  46.321  52.359  1.00  0.00    -0.141 SA
HETATM   10  C   UNL     1      26.179  44.661  52.367  1.00  0.00     0.136 C 
HETATM   11  C   UNL     1      25.165  43.533  52.532  1.00  0.00     0.031 C 
HETATM   12  C   UNL     1      27.230  44.421  51.286  1.00  0.00     0.236 C 
HETATM   13  O   UNL     1      28.430  44.350  51.571  1.00  0.00    -0.272 OA
HETATM   14  N   UNL     1      26.866  44.163  49.996  1.00  0.00    -0.311 N 
HETATM   15  H   UNL     1      27.596  43.747  49.428  1.00  0.00     0.170 HD
ENDROOT
BRANCH   8  16
HETATM   16  C   UNL     1      25.292  47.647  49.901  1.00  0.00    -0.029 A 
HETATM   17  C   UNL     1      24.494  48.634  49.230  1.00  0.00    -0.018 A 
HETATM   18  C   UNL     1      25.150  49.621  48.440  1.00  0.00    -0.025 A 
HETATM   19  C   UNL     1      23.080  48.720  49.290  1.00  0.00     0.013 A 
HETATM   20  C   UNL     1      24.409  50.588  47.739  1.00  0.00     0.012 A 
HETATM   21  C   UNL     1      26.545  49.648  48.351  1.00  0.00     0.012 A 
HETATM   22  C   UNL     1      23.021  50.617  47.803  1.00  0.00     0.001 A 
HETATM   23  C   UNL     1      22.356  49.687  48.585  1.00  0.00     0.001 A 
HETATM   24  C   UNL     1      27.319  48.716  49.025  1.00  0.00     0.002 A 
HETATM   25  C   UNL     1      26.701  47.728  49.783  1.00  0.00     0.009 A 
ENDBRANCH   8  16
TORSDOF 1
ENDMDL
MODEL 2
REMARK VINA RESULT:      -8.2      3.445      6.432
REMARK  1 active torsions:
REMARK  status: ('A' for Active; 'I' for Inactive)
REMARK    1  A    between atoms: C_8  and  C_9 
ROOT
HETATM    1  C   UNL     1      25.760  47.443  53.381  1.00  0.00     0.073 C 
HETATM    2  C   UNL     1      26.106  46.844  52.067  1.00  0.00     0.062 C 
HETATM    3  N   UNL     1      26.443  47.659  51.061  1.00  0.00    -0.178 NA
HETATM    4  N   UNL     1      26.720  46.829  50.052  1.00  0.00    -0.262 N 
HETATM    5  H   UNL     1      27.015  47.233  49.170  1.00  0.00     0.191 HD
HETATM    6  C   UNL     1      26.428  45.524  50.327  1.00  0.00     0.134 C 
HETATM    7  C   UNL     1      26.155  45.461  51.681  1.00  0.00     0.032 C 
HETATM    8  C   UNL     1      26.006  44.272  52.581  1.00  0.00     0.120 C 
HETATM    9  S   UNL     1      25.018  42.846  52.028  1.00  0.00    -0.141 SA
HETATM   10  C   UNL     1      24.580  43.212  50.305  1.00  0.00     0.136 C 
HETATM   11  C   UNL     1      23.479  44.255  50.149  1.00  0.00     0.031 C 
HETATM   12  C   UNL     1      25.772  43.397  49.369  1.00  0.00     0.236 C 
HETATM   13  O   UNL     1      26.064  42.535  48.533  1.00  0.00    -0.272 OA
HETATM   14  N   UNL     1      26.477  44.566  49.351  1.00  0.00    -0.311 N 
HETATM   15  H   UNL     1      27.050  44.698  48.525  1.00  0.00     0.170 HD
ENDROOT
BRANCH   8  16
HETATM   16  C   UNL     1      27.436  43.873  52.987  1.00  0.00    -0.029 A 
HETATM   17  C   UNL     1      28.104  44.432  54.128  1.00  0.00    -0.018 A 
HETATM   18  C   UNL     1      29.453  44.055  54.383  1.00  0.00    -0.025 A 
HETATM   19  C   UNL     1      27.526  45.344  55.048  1.00  0.00     0.013 A 
HETATM   20  C   UNL     1      30.158  44.600  55.469  1.00  0.00     0.012 A 
HETATM   21  C   UNL     1      30.100  43.128  53.559  1.00  0.00     0.012 A 
HETATM   22  C   UNL     1      29.561  45.514  56.330  1.00  0.00     0.001 A 
HETATM   23  C   UNL     1      28.241  45.880  56.123  1.00  0.00     0.001 A 
HETATM   24  C   UNL     1      29.445  42.562  52.476  1.00  0.00     0.002 A 
HETATM   25  C   UNL     1      28.137  42.933  52.192  1.00  0.00     0.009 A 
ENDBRANCH   8  16
TORSDOF 1
ENDMDL
MODEL 3
REMARK VINA RESULT:      -8.0     10.273     12.234
REMARK  1 active torsions:
REMARK  status: ('A' for Active; 'I' for Inactive)
REMARK    1  A    between atoms: C_8  and  C_9 
ROOT
HETATM    1  C   UNL     1      31.333  47.590  40.055  1.00  0.00     0.073 C 
HETATM    2  C   UNL     1      30.274  48.379  40.734  1.00  0.00     0.062 C 
HETATM    3  N   UNL     1      29.310  47.724  41.391  1.00  0.00    -0.178 NA
HETATM    4  N   UNL     1      28.550  48.696  41.903  1.00  0.00    -0.262 N 
HETATM    5  H   UNL     1      27.748  48.429  42.462  1.00  0.00     0.191 HD
HETATM    6  C   UNL     1      28.903  49.943  41.474  1.00  0.00     0.134 C 
HETATM    7  C   UNL     1      30.113  49.804  40.818  1.00  0.00     0.032 C 
HETATM    8  C   UNL     1      31.082  50.846  40.351  1.00  0.00     0.120 C 
HETATM    9  S   UNL     1      30.463  52.326  39.489  1.00  0.00    -0.141 SA
HETATM   10  C   UNL     1      28.655  52.212  39.589  1.00  0.00     0.136 C 
HETATM   11  C   UNL     1      28.041  51.190  38.638  1.00  0.00     0.031 C 
HETATM   12  C   UNL     1      28.094  52.180  41.008  1.00  0.00     0.236 C 
HETATM   13  O   UNL     1      27.507  53.158  41.482  1.00  0.00    -0.272 OA
HETATM   14  N   UNL     1      28.124  51.034  41.751  1.00  0.00    -0.311 N 
HETATM   15  H   UNL     1      27.493  51.031  42.545  1.00  0.00     0.170 HD
ENDROOT
BRANCH   8  16
HETATM   16  C   UNL     1      31.941  51.198  41.578  1.00  0.00    -0.029 A 
HETATM   17  C   UNL     1      33.373  51.098  41.579  1.00  0.00    -0.018 A 
HETATM   18  C   UNL     1      34.077  51.376  42.785  1.00  0.00    -0.025 A 
HETATM   19  C   UNL     1      34.168  50.742  40.460  1.00  0.00     0.013 A 
HETATM   20  C   UNL     1      35.476  51.260  42.843  1.00  0.00     0.012 A 
HETATM   21  C   UNL     1      33.388  51.777  43.934  1.00  0.00     0.012 A 
HETATM   22  C   UNL     1      36.214  50.880  41.728  1.00  0.00     0.001 A 
HETATM   23  C   UNL     1      35.560  50.628  40.533  1.00  0.00     0.001 A 
HETATM   24  C   UNL     1      32.007  51.907  43.926  1.00  0.00     0.002 A 
HETATM   25  C   UNL     1      31.296  51.617  42.768  1.00  0.00     0.009 A 
ENDBRANCH   8  16
TORSDOF 1
ENDMDL
MODEL 4
REMARK VINA RESULT:      -7.9      5.823      7.964
REMARK  1 active torsions:
REMARK  status: ('A' for Active; 'I' for Inactive)
REMARK    1  A    between atoms: C_8  and  C_9 
ROOT
HETATM    1  C   UNL     1      21.269  46.006  47.060  1.00  0.00     0.073 C 
HETATM    2  C   UNL     1      19.863  46.072  47.536  1.00  0.00     0.062 C 
HETATM    3  N   UNL     1      19.381  45.048  48.249  1.00  0.00    -0.178 NA
HETATM    4  N   UNL     1      18.132  45.421  48.543  1.00  0.00    -0.262 N 
HETATM    5  H   UNL     1      17.566  44.791  49.100  1.00  0.00     0.191 HD
HETATM    6  C   UNL     1      17.748  46.573  47.919  1.00  0.00     0.134 C 
HETATM    7  C   UNL     1      18.891  47.114  47.358  1.00  0.00     0.032 C 
HETATM    8  C   UNL     1      19.124  48.469  46.763  1.00  0.00     0.120 C 
HETATM    9  S   UNL     1      17.891  49.175  45.625  1.00  0.00    -0.141 SA
HETATM   10  C   UNL     1      16.499  48.011  45.653  1.00  0.00     0.136 C 
HETATM   11  C   UNL     1      16.743  46.726  44.868  1.00  0.00     0.031 C 
HETATM   12  C   UNL     1      15.864  47.808  47.026  1.00  0.00     0.236 C 
HETATM   13  O   UNL     1      14.754  48.284  47.291  1.00  0.00    -0.272 OA
HETATM   14  N   UNL     1      16.449  47.001  47.960  1.00  0.00    -0.311 N 
HETATM   15  H   UNL     1      15.831  46.709  48.709  1.00  0.00     0.170 HD
ENDROOT
BRANCH   8  16
HETATM   16  C   UNL     1      19.427  49.400  47.951  1.00  0.00    -0.029 A 
HETATM   17  C   UNL     1      20.749  49.872  48.251  1.00  0.00    -0.018 A 
HETATM   18  C   UNL     1      20.942  50.673  49.413  1.00  0.00    -0.025 A 
HETATM   19  C   UNL     1      21.905  49.611  47.474  1.00  0.00     0.013 A 
HETATM   20  C   UNL     1      22.222  51.131  49.764  1.00  0.00     0.012 A 
HETATM   21  C   UNL     1      19.857  51.023  50.223  1.00  0.00     0.012 A 
HETATM   22  C   UNL     1      23.335  50.826  48.988  1.00  0.00     0.001 A 
HETATM   23  C   UNL     1      23.175  50.072  47.837  1.00  0.00     0.001 A 
HETATM   24  C   UNL     1      18.574  50.595  49.917  1.00  0.00     0.002 A 
HETATM   25  C   UNL     1      18.364  49.793  48.802  1.00  0.00     0.009 A 
ENDBRANCH   8  16
TORSDOF 1
ENDMDL
MODEL 5
REMARK VINA RESULT:      -7.5     19.537     22.315
REMARK  1 active torsions:
REMARK  status: ('A' for Active; 'I' for Inactive)
REMARK    1  A    between atoms: C_8  and  C_9 
ROOT
HETATM    1  C   UNL     1      42.547  43.269  66.560  1.00  0.00     0.073 C 
HETATM    2  C   UNL     1      41.808  43.958  65.472  1.00  0.00     0.062 C 
HETATM    3  N   UNL     1      42.466  44.837  64.708  1.00  0.00    -0.178 NA
HETATM    4  N   UNL     1      41.551  45.248  63.826  1.00  0.00    -0.262 N 
HETATM    5  H   UNL     1      41.834  45.923  63.126  1.00  0.00     0.191 HD
HETATM    6  C   UNL     1      40.295  44.782  64.091  1.00  0.00     0.134 C 
HETATM    7  C   UNL     1      40.434  43.821  65.075  1.00  0.00     0.032 C 
HETATM    8  C   UNL     1      39.447  42.817  65.589  1.00  0.00     0.120 C 
HETATM    9  S   UNL     1      37.738  43.336  65.941  1.00  0.00    -0.141 SA
HETATM   10  C   UNL     1      37.635  45.052  65.359  1.00  0.00     0.136 C 
HETATM   11  C   UNL     1      38.314  46.064  66.275  1.00  0.00     0.031 C 
HETATM   12  C   UNL     1      37.926  45.240  63.873  1.00  0.00     0.236 C 
HETATM   13  O   UNL     1      37.018  45.496  63.074  1.00  0.00    -0.272 OA
HETATM   14  N   UNL     1      39.208  45.246  63.402  1.00  0.00    -0.311 N 
HETATM   15  H   UNL     1      39.315  45.651  62.478  1.00  0.00     0.170 HD
ENDROOT
BRANCH   8  16
HETATM   16  C   UNL     1      39.510  41.631  64.609  1.00  0.00    -0.029 A 
HETATM   17  C   UNL     1      40.150  40.387  64.935  1.00  0.00    -0.018 A 
HETATM   18  C   UNL     1      40.220  39.373  63.938  1.00  0.00    -0.025 A 
HETATM   19  C   UNL     1      40.727  40.070  66.191  1.00  0.00     0.013 A 
HETATM   20  C   UNL     1      40.864  38.152  64.200  1.00  0.00     0.012 A 
HETATM   21  C   UNL     1      39.643  39.572  62.680  1.00  0.00     0.012 A 
HETATM   22  C   UNL     1      41.442  37.894  65.438  1.00  0.00     0.001 A 
HETATM   23  C   UNL     1      41.367  38.851  66.436  1.00  0.00     0.001 A 
HETATM   24  C   UNL     1      38.996  40.760  62.374  1.00  0.00     0.002 A 
HETATM   25  C   UNL     1      38.936  41.774  63.323  1.00  0.00     0.009 A 
ENDBRANCH   8  16
TORSDOF 1
ENDMDL
MODEL 6
REMARK VINA RESULT:      -7.4      6.030      8.414
REMARK  1 active torsions:
REMARK  status: ('A' for Active; 'I' for Inactive)
REMARK    1  A    between atoms: C_8  and  C_9 
ROOT
HETATM    1  C   UNL     1      20.158  51.584  48.650  1.00  0.00     0.073 C 
HETATM    2  C   UNL     1      19.799  50.246  49.185  1.00  0.00     0.062 C 
HETATM    3  N   UNL     1      19.775  50.073  50.512  1.00  0.00    -0.178 NA
HETATM    4  N   UNL     1      19.396  48.802  50.664  1.00  0.00    -0.262 N 
HETATM    5  H   UNL     1      19.297  48.444  51.608  1.00  0.00     0.191 HD
HETATM    6  C   UNL     1      19.323  48.112  49.488  1.00  0.00     0.134 C 
HETATM    7  C   UNL     1      19.441  49.049  48.478  1.00  0.00     0.032 C 
HETATM    8  C   UNL     1      19.201  48.914  47.005  1.00  0.00     0.120 C 
HETATM    9  S   UNL     1      19.847  47.460  46.119  1.00  0.00    -0.141 SA
HETATM   10  C   UNL     1      20.525  46.381  47.410  1.00  0.00     0.136 C 
HETATM   11  C   UNL     1      21.863  46.846  47.975  1.00  0.00     0.031 C 
HETATM   12  C   UNL     1      19.512  45.927  48.459  1.00  0.00     0.236 C 
HETATM   13  O   UNL     1      19.095  44.764  48.478  1.00  0.00    -0.272 OA
HETATM   14  N   UNL     1      19.129  46.758  49.472  1.00  0.00    -0.311 N 
HETATM   15  H   UNL     1      18.689  46.289  50.256  1.00  0.00     0.170 HD
ENDROOT
BRANCH   8  16
HETATM   16  C   UNL     1      17.684  49.093  46.811  1.00  0.00    -0.029 A 
HETATM   17  C   UNL     1      17.104  50.298  46.287  1.00  0.00    -0.018 A 
HETATM   18  C   UNL     1      15.686  50.397  46.211  1.00  0.00    -0.025 A 
HETATM   19  C   UNL     1      17.835  51.421  45.825  1.00  0.00     0.013 A 
HETATM   20  C   UNL     1      15.073  51.568  45.736  1.00  0.00     0.012 A 
HETATM   21  C   UNL     1      14.876  49.325  46.604  1.00  0.00     0.012 A 
HETATM   22  C   UNL     1      15.828  52.658  45.319  1.00  0.00     0.001 A 
HETATM   23  C   UNL     1      17.211  52.581  45.356  1.00  0.00     0.001 A 
HETATM   24  C   UNL     1      15.436  48.149  47.078  1.00  0.00     0.002 A 
HETATM   25  C   UNL     1      16.816  48.037  47.185  1.00  0.00     0.009 A 
ENDBRANCH   8  16
TORSDOF 1
ENDMDL
MODEL 7
REMARK VINA RESULT:      -7.4     11.488     12.747
REMARK  1 active torsions:
REMARK  status: ('A' for Active; 'I' for Inactive)
REMARK    1  A    between atoms: C_8  and  C_9 
ROOT
HETATM    1  C   UNL     1      28.803  53.081  40.663  1.00  0.00     0.073 C 
HETATM    2  C   UNL     1      30.049  52.512  41.239  1.00  0.00     0.062 C 
HETATM    3  N   UNL     1      30.310  52.726  42.533  1.00  0.00    -0.178 NA
HETATM    4  N   UNL     1      31.457  52.074  42.743  1.00  0.00    -0.262 N 
HETATM    5  H   UNL     1      31.849  52.089  43.677  1.00  0.00     0.191 HD
HETATM    6  C   UNL     1      32.016  51.580  41.599  1.00  0.00     0.134 C 
HETATM    7  C   UNL     1      31.064  51.717  40.606  1.00  0.00     0.032 C 
HETATM    8  C   UNL     1      31.024  51.144  39.223  1.00  0.00     0.120 C 
HETATM    9  S   UNL     1      32.521  51.192  38.187  1.00  0.00    -0.141 SA
HETATM   10  C   UNL     1      33.828  51.828  39.272  1.00  0.00     0.136 C 
HETATM   11  C   UNL     1      33.750  53.329  39.532  1.00  0.00     0.031 C 
HETATM   12  C   UNL     1      34.097  50.979  40.512  1.00  0.00     0.236 C 
HETATM   13  O   UNL     1      35.120  50.291  40.603  1.00  0.00    -0.272 OA
HETATM   14  N   UNL     1      33.276  51.045  41.602  1.00  0.00    -0.311 N 
HETATM   15  H   UNL     1      33.680  50.676  42.455  1.00  0.00     0.170 HD
ENDROOT
BRANCH   8  16
HETATM   16  C   UNL     1      30.463  49.719  39.377  1.00  0.00    -0.029 A 
HETATM   17  C   UNL     1      29.113  49.374  39.032  1.00  0.00    -0.018 A 
HETATM   18  C   UNL     1      28.663  48.045  39.277  1.00  0.00    -0.025 A 
HETATM   19  C   UNL     1      28.167  50.256  38.452  1.00  0.00     0.013 A 
HETATM   20  C   UNL     1      27.341  47.669  38.986  1.00  0.00     0.012 A 
HETATM   21  C   UNL     1      29.533  47.087  39.808  1.00  0.00     0.012 A 
HETATM   22  C   UNL     1      26.438  48.577  38.443  1.00  0.00     0.001 A 
HETATM   23  C   UNL     1      26.853  49.869  38.169  1.00  0.00     0.001 A 
HETATM   24  C   UNL     1      30.847  47.409  40.110  1.00  0.00     0.002 A 
HETATM   25  C   UNL     1      31.302  48.706  39.903  1.00  0.00     0.009 A 
ENDBRANCH   8  16
TORSDOF 1
ENDMDL
MODEL 8
REMARK VINA RESULT:      -7.1     10.416     11.651
REMARK  1 active torsions:
REMARK  status: ('A' for Active; 'I' for Inactive)
REMARK    1  A    between atoms: C_8  and  C_9 
ROOT
HETATM    1  C   UNL     1      28.668  52.758  41.122  1.00  0.00     0.073 C 
HETATM    2  C   UNL     1      28.659  51.766  40.017  1.00  0.00     0.062 C 
HETATM    3  N   UNL     1      28.637  52.214  38.756  1.00  0.00    -0.178 NA
HETATM    4  N   UNL     1      28.666  51.101  38.018  1.00  0.00    -0.262 N 
HETATM    5  H   UNL     1      28.667  51.198  37.009  1.00  0.00     0.191 HD
HETATM    6  C   UNL     1      28.552  49.957  38.756  1.00  0.00     0.134 C 
HETATM    7  C   UNL     1      28.685  50.332  40.081  1.00  0.00     0.032 C 
HETATM    8  C   UNL     1      28.880  49.490  41.305  1.00  0.00     0.120 C 
HETATM    9  S   UNL     1      27.871  47.993  41.536  1.00  0.00    -0.141 SA
HETATM   10  C   UNL     1      26.932  47.812  39.994  1.00  0.00     0.136 C 
HETATM   11  C   UNL     1      25.766  48.785  39.854  1.00  0.00     0.031 C 
HETATM   12  C   UNL     1      27.788  47.658  38.739  1.00  0.00     0.236 C 
HETATM   13  O   UNL     1      27.882  46.569  38.163  1.00  0.00    -0.272 OA
HETATM   14  N   UNL     1      28.379  48.740  38.154  1.00  0.00    -0.311 N 
HETATM   15  H   UNL     1      28.680  48.589  37.198  1.00  0.00     0.170 HD
ENDROOT
BRANCH   8  16
HETATM   16  C   UNL     1      30.390  49.197  41.375  1.00  0.00    -0.029 A 
HETATM   17  C   UNL     1      31.316  50.048  42.068  1.00  0.00    -0.018 A 
HETATM   18  C   UNL     1      32.703  49.733  42.017  1.00  0.00    -0.025 A 
HETATM   19  C   UNL     1      30.963  51.197  42.819  1.00  0.00     0.013 A 
HETATM   20  C   UNL     1      33.650  50.553  42.652  1.00  0.00     0.012 A 
HETATM   21  C   UNL     1      33.149  48.595  41.336  1.00  0.00     0.012 A 
HETATM   22  C   UNL     1      33.262  51.689  43.355  1.00  0.00     0.001 A 
HETATM   23  C   UNL     1      31.917  52.006  43.445  1.00  0.00     0.001 A 
HETATM   24  C   UNL     1      32.253  47.754  40.694  1.00  0.00     0.002 A 
HETATM   25  C   UNL     1      30.897  48.054  40.709  1.00  0.00     0.009 A 
ENDBRANCH   8  16
TORSDOF 1
ENDMDL
MODEL 9
REMARK VINA RESULT:      -7.1     19.832     21.233
REMARK  1 active torsions:
REMARK  status: ('A' for Active; 'I' for Inactive)
REMARK    1  A    between atoms: C_8  and  C_9 
ROOT
HETATM    1  C   UNL     1      35.855  45.122  66.136  1.00  0.00     0.073 C 
HETATM    2  C   UNL     1      36.910  45.193  65.093  1.00  0.00     0.062 C 
HETATM    3  N   UNL     1      36.585  44.889  63.832  1.00  0.00    -0.178 NA
HETATM    4  N   UNL     1      37.719  45.076  63.152  1.00  0.00    -0.262 N 
HETATM    5  H   UNL     1      37.707  44.912  62.152  1.00  0.00     0.191 HD
HETATM    6  C   UNL     1      38.794  45.342  63.952  1.00  0.00     0.134 C 
HETATM    7  C   UNL     1      38.291  45.568  65.220  1.00  0.00     0.032 C 
HETATM    8  C   UNL     1      38.962  46.127  66.437  1.00  0.00     0.120 C 
HETATM    9  S   UNL     1      40.626  45.545  66.893  1.00  0.00    -0.141 SA
HETATM   10  C   UNL     1      41.142  44.468  65.527  1.00  0.00     0.136 C 
HETATM   11  C   UNL     1      40.474  43.097  65.525  1.00  0.00     0.031 C 
HETATM   12  C   UNL     1      41.200  45.151  64.163  1.00  0.00     0.236 C 
HETATM   13  O   UNL     1      42.283  45.419  63.631  1.00  0.00    -0.272 OA
HETATM   14  N   UNL     1      40.063  45.380  63.442  1.00  0.00    -0.311 N 
HETATM   15  H   UNL     1      40.220  45.571  62.458  1.00  0.00     0.170 HD
ENDROOT
BRANCH   8  16
HETATM   16  C   UNL     1      38.898  47.657  66.284  1.00  0.00    -0.029 A 
HETATM   17  C   UNL     1      38.098  48.491  67.137  1.00  0.00    -0.018 A 
HETATM   18  C   UNL     1      38.047  49.889  66.874  1.00  0.00    -0.025 A 
HETATM   19  C   UNL     1      37.342  48.036  68.247  1.00  0.00     0.013 A 
HETATM   20  C   UNL     1      37.253  50.740  67.661  1.00  0.00     0.012 A 
HETATM   21  C   UNL     1      38.791  50.443  65.827  1.00  0.00     0.012 A 
HETATM   22  C   UNL     1      36.504  50.246  68.724  1.00  0.00     0.001 A 
HETATM   23  C   UNL     1      36.555  48.894  69.021  1.00  0.00     0.001 A 
HETATM   24  C   UNL     1      39.590  49.644  65.022  1.00  0.00     0.002 A 
HETATM   25  C   UNL     1      39.637  48.274  65.245  1.00  0.00     0.009 A 
ENDBRANCH   8  16
TORSDOF 1
ENDMDL
MODEL 10
REMARK VINA RESULT:      -7.0     19.545     21.192
REMARK  1 active torsions:
REMARK  status: ('A' for Active; 'I' for Inactive)
REMARK    1  A    between atoms: C_8  and  C_9 
ROOT
HETATM    1  C   UNL     1      40.886  47.687  64.950  1.00  0.00     0.073 C 
HETATM    2  C   UNL     1      40.313  46.458  65.555  1.00  0.00     0.062 C 
HETATM    3  N   UNL     1      41.115  45.665  66.274  1.00  0.00    -0.178 NA
HETATM    4  N   UNL     1      40.309  44.687  66.694  1.00  0.00    -0.262 N 
HETATM    5  H   UNL     1      40.707  43.960  67.279  1.00  0.00     0.191 HD
HETATM    6  C   UNL     1      39.059  44.741  66.148  1.00  0.00     0.134 C 
HETATM    7  C   UNL     1      38.966  45.961  65.504  1.00  0.00     0.032 C 
HETATM    8  C   UNL     1      37.770  46.664  64.938  1.00  0.00     0.120 C 
HETATM    9  S   UNL     1      36.566  45.728  63.943  1.00  0.00    -0.141 SA
HETATM   10  C   UNL     1      37.099  43.997  64.059  1.00  0.00     0.136 C 
HETATM   11  C   UNL     1      38.321  43.662  63.210  1.00  0.00     0.031 C 
HETATM   12  C   UNL     1      37.132  43.433  65.477  1.00  0.00     0.236 C 
HETATM   13  O   UNL     1      36.283  42.621  65.859  1.00  0.00    -0.272 OA
HETATM   14  N   UNL     1      38.164  43.720  66.324  1.00  0.00    -0.311 N 
HETATM   15  H   UNL     1      38.245  43.093  67.117  1.00  0.00     0.170 HD
ENDROOT
BRANCH   8  16
HETATM   16  C   UNL     1      37.112  47.391  66.124  1.00  0.00    -0.029 A 
HETATM   17  C   UNL     1      37.385  48.765  66.442  1.00  0.00    -0.018 A 
HETATM   18  C   UNL     1      36.783  49.331  67.601  1.00  0.00    -0.025 A 
HETATM   19  C   UNL     1      38.216  49.629  65.685  1.00  0.00     0.013 A 
HETATM   20  C   UNL     1      37.045  50.660  67.970  1.00  0.00     0.012 A 
HETATM   21  C   UNL     1      35.913  48.573  68.392  1.00  0.00     0.012 A 
HETATM   22  C   UNL     1      37.891  51.464  67.213  1.00  0.00     0.001 A 
HETATM   23  C   UNL     1      38.470  50.950  66.066  1.00  0.00     0.001 A 
HETATM   24  C   UNL     1      35.622  47.256  68.068  1.00  0.00     0.002 A 
HETATM   25  C   UNL     1      36.217  46.675  66.955  1.00  0.00     0.009 A 
ENDBRANCH   8  16
TORSDOF 1
ENDMDL
