MODEL 1
REMARK VINA RESULT:     -10.0      0.000      0.000
REMARK  7 active torsions:
REMARK  status: ('A' for Active; 'I' for Inactive)
REMARK    1  A    between atoms: C_4  and  N_5 
REMARK    2  A    between atoms: C_6  and  S_7 
REMARK    3  A    between atoms: S_7  and  C_8 
REMARK    4  A    between atoms: C_8  and  C_9 
REMARK       I    between atoms: C_9  and  N_10 
REMARK    5  A    between atoms: C_12  and  C_13 
REMARK    6  A    between atoms: C_13  and  N_14 
REMARK       I    between atoms: N_14  and  C_15 
REMARK       I    between atoms: C_15  and  N_16 
REMARK    7  A    between atoms: N_16  and  C_17 
ROOT
HETATM    1  C   UNL     1      27.428  46.258  55.096  1.00  0.00     0.229 C 
HETATM    2  N   UNL     1      28.386  45.231  55.121  1.00  0.00    -0.351 N 
HETATM    3  C   UNL     1      28.058  43.829  54.880  1.00  0.00     0.132 C 
HETATM    4  C   UNL     1      29.251  42.952  54.481  1.00  0.00     0.021 C 
HETATM    5  C   UNL     1      30.451  43.196  55.405  1.00  0.00     0.009 C 
HETATM    6  C   UNL     1      30.772  44.677  55.538  1.00  0.00     0.020 C 
HETATM    7  C   UNL     1      29.547  45.467  55.981  1.00  0.00     0.126 C 
HETATM    8  O   UNL     1      27.675  47.357  55.608  1.00  0.00    -0.273 OA
ENDROOT
BRANCH   1   9
HETATM    9  C   UNL     1      26.162  46.116  54.259  1.00  0.00     0.185 C 
BRANCH   9  10
HETATM   10  S   UNL     1      25.941  47.165  52.807  1.00  0.00    -0.082 SA
BRANCH  10  11
HETATM   11  C   UNL     1      26.219  46.117  51.458  1.00  0.00     0.173 A 
HETATM   12  N   UNL     1      25.778  46.375  50.163  1.00  0.00    -0.299 N 
HETATM   13  C   UNL     1      26.101  45.239  49.443  1.00  0.00     0.118 A 
HETATM   14  C   UNL     1      26.702  44.377  50.325  1.00  0.00     0.137 A 
HETATM   15  N   UNL     1      26.760  44.926  51.572  1.00  0.00    -0.235 NA
BRANCH  12  16
HETATM   16  C   UNL     1      25.206  47.561  49.606  1.00  0.00     0.047 A 
HETATM   17  C   UNL     1      23.803  47.672  49.558  1.00  0.00     0.037 A 
HETATM   18  C   UNL     1      23.178  48.831  49.082  1.00  0.00    -0.060 A 
HETATM   19  C   UNL     1      21.680  48.917  49.008  1.00  0.00     0.048 C 
HETATM   20  C   UNL     1      23.968  49.890  48.639  1.00  0.00     0.007 A 
HETATM   21  C   UNL     1      25.361  49.793  48.680  1.00  0.00     0.009 A 
HETATM   22  C   UNL     1      26.003  48.630  49.146  1.00  0.00    -0.035 A 
HETATM   23  C   UNL     1      27.506  48.601  49.073  1.00  0.00     0.050 C 
ENDBRANCH  12  16
ENDBRANCH  10  11
ENDBRANCH   9  10
ENDBRANCH   1   9
BRANCH   4  24
HETATM   24  C   UNL     1      29.570  43.162  52.989  1.00  0.00     0.130 C 
BRANCH  24  25
HETATM   25  N   UNL     1      28.767  42.349  52.094  1.00  0.00    -0.342 N 
HETATM   26  C   UNL     1      28.503  41.040  52.371  1.00  0.00     0.320 C 
HETATM   27  N   UNL     1      27.654  40.381  51.534  1.00  0.00    -0.309 N 
HETATM   28  O   UNL     1      28.945  40.457  53.358  1.00  0.00    -0.247 OA
HETATM   29  H   UNL     1      27.378  39.492  51.935  1.00  0.00     0.170 HD
HETATM   30  H   UNL     1      27.979  42.824  51.679  1.00  0.00     0.164 HD
BRANCH  27  31
HETATM   31  C   UNL     1      27.129  40.690  50.265  1.00  0.00     0.039 A 
HETATM   32  C   UNL     1      27.891  40.808  49.102  1.00  0.00     0.071 A 
HETATM   33  C   UNL     1      27.271  41.138  47.899  1.00  0.00     0.118 A 
HETATM   34  F   UNL     1      28.015  41.261  46.792  1.00  0.00    -0.206 F 
HETATM   35  C   UNL     1      25.897  41.333  47.822  1.00  0.00     0.042 A 
HETATM   36  C   UNL     1      25.125  41.180  48.968  1.00  0.00     0.005 A 
HETATM   37  C   UNL     1      25.739  40.850  50.180  1.00  0.00     0.030 A 
ENDBRANCH  27  31
ENDBRANCH  24  25
ENDBRANCH   4  24
TORSDOF 7
ENDMDL
MODEL 2
REMARK VINA RESULT:      -9.7      1.797      2.085
REMARK  7 active torsions:
REMARK  status: ('A' for Active; 'I' for Inactive)
REMARK    1  A    between atoms: C_4  and  N_5 
REMARK    2  A    between atoms: C_6  and  S_7 
REMARK    3  A    between atoms: S_7  and  C_8 
REMARK    4  A    between atoms: C_8  and  C_9 
REMARK       I    between atoms: C_9  and  N_10 
REMARK    5  A    between atoms: C_12  and  C_13 
REMARK    6  A    between atoms: C_13  and  N_14 
REMARK       I    between atoms: N_14  and  C_15 
REMARK       I    between atoms: C_15  and  N_16 
REMARK    7  A    between atoms: N_16  and  C_17 
ROOT
HETATM    1  C   UNL     1      27.323  45.886  54.909  1.00  0.00     0.229 C 
HETATM    2  N   UNL     1      28.347  44.928  54.967  1.00  0.00    -0.351 N 
HETATM    3  C   UNL     1      28.127  43.509  54.708  1.00  0.00     0.132 C 
HETATM    4  C   UNL     1      29.391  42.718  54.352  1.00  0.00     0.021 C 
HETATM    5  C   UNL     1      30.536  43.038  55.323  1.00  0.00     0.009 C 
HETATM    6  C   UNL     1      30.748  44.537  55.474  1.00  0.00     0.020 C 
HETATM    7  C   UNL     1      29.455  45.238  55.873  1.00  0.00     0.126 C 
HETATM    8  O   UNL     1      27.473  46.997  55.435  1.00  0.00    -0.273 OA
ENDROOT
BRANCH   1   9
HETATM    9  C   UNL     1      26.103  45.664  54.023  1.00  0.00     0.185 C 
BRANCH   9  10
HETATM   10  S   UNL     1      25.715  46.866  52.734  1.00  0.00    -0.082 SA
BRANCH  10  11
HETATM   11  C   UNL     1      24.910  45.951  51.504  1.00  0.00     0.173 A 
HETATM   12  N   UNL     1      24.643  46.429  50.224  1.00  0.00    -0.299 N 
HETATM   13  C   UNL     1      23.888  45.437  49.624  1.00  0.00     0.118 A 
HETATM   14  C   UNL     1      23.742  44.441  50.557  1.00  0.00     0.137 A 
HETATM   15  N   UNL     1      24.370  44.774  51.720  1.00  0.00    -0.235 NA
BRANCH  12  16
HETATM   16  C   UNL     1      25.097  47.617  49.572  1.00  0.00     0.047 A 
HETATM   17  C   UNL     1      24.151  48.605  49.238  1.00  0.00     0.037 A 
HETATM   18  C   UNL     1      24.535  49.818  48.655  1.00  0.00    -0.060 A 
HETATM   19  C   UNL     1      23.507  50.845  48.276  1.00  0.00     0.048 C 
HETATM   20  C   UNL     1      25.885  50.041  48.392  1.00  0.00     0.007 A 
HETATM   21  C   UNL     1      26.835  49.070  48.718  1.00  0.00     0.009 A 
HETATM   22  C   UNL     1      26.461  47.842  49.295  1.00  0.00    -0.035 A 
HETATM   23  C   UNL     1      27.555  46.836  49.532  1.00  0.00     0.050 C 
ENDBRANCH  12  16
ENDBRANCH  10  11
ENDBRANCH   9  10
ENDBRANCH   1   9
BRANCH   4  24
HETATM   24  C   UNL     1      29.753  42.960  52.875  1.00  0.00     0.130 C 
BRANCH  24  25
HETATM   25  N   UNL     1      29.085  42.062  51.949  1.00  0.00    -0.342 N 
HETATM   26  C   UNL     1      28.013  42.471  51.214  1.00  0.00     0.320 C 
HETATM   27  N   UNL     1      27.515  41.599  50.294  1.00  0.00    -0.309 N 
HETATM   28  O   UNL     1      27.521  43.594  51.304  1.00  0.00    -0.247 OA
HETATM   29  H   UNL     1      26.859  42.067  49.678  1.00  0.00     0.170 HD
HETATM   30  H   UNL     1      29.700  41.451  51.432  1.00  0.00     0.164 HD
BRANCH  27  31
HETATM   31  C   UNL     1      27.724  40.226  50.064  1.00  0.00     0.039 A 
HETATM   32  C   UNL     1      28.979  39.618  49.997  1.00  0.00     0.071 A 
HETATM   33  C   UNL     1      29.073  38.252  49.744  1.00  0.00     0.118 A 
HETATM   34  F   UNL     1      30.282  37.682  49.669  1.00  0.00    -0.206 F 
HETATM   35  C   UNL     1      27.939  37.467  49.574  1.00  0.00     0.042 A 
HETATM   36  C   UNL     1      26.683  38.056  49.677  1.00  0.00     0.005 A 
HETATM   37  C   UNL     1      26.579  39.428  49.930  1.00  0.00     0.030 A 
ENDBRANCH  27  31
ENDBRANCH  24  25
ENDBRANCH   4  24
TORSDOF 7
ENDMDL
MODEL 3
REMARK VINA RESULT:      -9.5      3.724      6.722
REMARK  7 active torsions:
REMARK  status: ('A' for Active; 'I' for Inactive)
REMARK    1  A    between atoms: C_4  and  N_5 
REMARK    2  A    between atoms: C_6  and  S_7 
REMARK    3  A    between atoms: S_7  and  C_8 
REMARK    4  A    between atoms: C_8  and  C_9 
REMARK       I    between atoms: C_9  and  N_10 
REMARK    5  A    between atoms: C_12  and  C_13 
REMARK    6  A    between atoms: C_13  and  N_14 
REMARK       I    between atoms: N_14  and  C_15 
REMARK       I    between atoms: C_15  and  N_16 
REMARK    7  A    between atoms: N_16  and  C_17 
ROOT
HETATM    1  C   UNL     1      21.943  44.213  48.285  1.00  0.00     0.229 C 
HETATM    2  N   UNL     1      23.256  44.211  48.780  1.00  0.00    -0.351 N 
HETATM    3  C   UNL     1      23.897  45.393  49.346  1.00  0.00     0.132 C 
HETATM    4  C   UNL     1      25.105  45.100  50.244  1.00  0.00     0.021 C 
HETATM    5  C   UNL     1      26.055  44.092  49.583  1.00  0.00     0.009 C 
HETATM    6  C   UNL     1      25.316  42.856  49.092  1.00  0.00     0.020 C 
HETATM    7  C   UNL     1      24.162  43.234  48.171  1.00  0.00     0.126 C 
HETATM    8  O   UNL     1      21.553  43.306  47.538  1.00  0.00    -0.273 OA
ENDROOT
BRANCH   1   9
HETATM    9  C   UNL     1      20.915  45.203  48.821  1.00  0.00     0.185 C 
BRANCH   9  10
HETATM   10  S   UNL     1      20.497  46.660  47.842  1.00  0.00    -0.082 SA
BRANCH  10  11
HETATM   11  C   UNL     1      19.746  47.745  48.963  1.00  0.00     0.173 A 
HETATM   12  N   UNL     1      20.357  48.887  49.474  1.00  0.00    -0.299 N 
HETATM   13  C   UNL     1      19.467  49.379  50.411  1.00  0.00     0.118 A 
HETATM   14  C   UNL     1      18.395  48.522  50.416  1.00  0.00     0.137 A 
HETATM   15  N   UNL     1      18.583  47.509  49.524  1.00  0.00    -0.235 NA
BRANCH  12  16
HETATM   16  C   UNL     1      21.578  49.525  49.092  1.00  0.00     0.047 A 
HETATM   17  C   UNL     1      22.790  48.839  49.300  1.00  0.00     0.037 A 
HETATM   18  C   UNL     1      24.015  49.380  48.894  1.00  0.00    -0.060 A 
HETATM   19  C   UNL     1      25.300  48.646  49.154  1.00  0.00     0.048 C 
HETATM   20  C   UNL     1      24.030  50.630  48.280  1.00  0.00     0.007 A 
HETATM   21  C   UNL     1      22.835  51.323  48.068  1.00  0.00     0.009 A 
HETATM   22  C   UNL     1      21.597  50.796  48.480  1.00  0.00    -0.035 A 
HETATM   23  C   UNL     1      20.382  51.660  48.275  1.00  0.00     0.050 C 
ENDBRANCH  12  16
ENDBRANCH  10  11
ENDBRANCH   9  10
ENDBRANCH   1   9
BRANCH   4  24
HETATM   24  C   UNL     1      24.618  44.662  51.638  1.00  0.00     0.130 C 
BRANCH  24  25
HETATM   25  N   UNL     1      25.679  44.197  52.514  1.00  0.00    -0.342 N 
HETATM   26  C   UNL     1      25.465  44.012  53.848  1.00  0.00     0.320 C 
HETATM   27  N   UNL     1      26.482  43.472  54.576  1.00  0.00    -0.309 N 
HETATM   28  O   UNL     1      24.395  44.255  54.401  1.00  0.00    -0.247 OA
HETATM   29  H   UNL     1      26.156  43.200  55.496  1.00  0.00     0.170 HD
HETATM   30  H   UNL     1      26.279  43.490  52.116  1.00  0.00     0.164 HD
BRANCH  27  31
HETATM   31  C   UNL     1      27.844  43.248  54.300  1.00  0.00     0.039 A 
HETATM   32  C   UNL     1      28.899  43.850  54.986  1.00  0.00     0.071 A 
HETATM   33  C   UNL     1      30.213  43.572  54.617  1.00  0.00     0.118 A 
HETATM   34  F   UNL     1      31.218  44.166  55.274  1.00  0.00    -0.206 F 
HETATM   35  C   UNL     1      30.504  42.686  53.587  1.00  0.00     0.042 A 
HETATM   36  C   UNL     1      29.460  42.051  52.922  1.00  0.00     0.005 A 
HETATM   37  C   UNL     1      28.137  42.325  53.285  1.00  0.00     0.030 A 
ENDBRANCH  27  31
ENDBRANCH  24  25
ENDBRANCH   4  24
TORSDOF 7
ENDMDL
MODEL 4
REMARK VINA RESULT:      -9.5      3.445      6.932
REMARK  7 active torsions:
REMARK  status: ('A' for Active; 'I' for Inactive)
REMARK    1  A    between atoms: C_4  and  N_5 
REMARK    2  A    between atoms: C_6  and  S_7 
REMARK    3  A    between atoms: S_7  and  C_8 
REMARK    4  A    between atoms: C_8  and  C_9 
REMARK       I    between atoms: C_9  and  N_10 
REMARK    5  A    between atoms: C_12  and  C_13 
REMARK    6  A    between atoms: C_13  and  N_14 
REMARK       I    between atoms: N_14  and  C_15 
REMARK       I    between atoms: C_15  and  N_16 
REMARK    7  A    between atoms: N_16  and  C_17 
ROOT
HETATM    1  C   UNL     1      22.412  44.780  48.661  1.00  0.00     0.229 C 
HETATM    2  N   UNL     1      23.567  44.421  49.374  1.00  0.00    -0.351 N 
HETATM    3  C   UNL     1      24.904  44.876  49.006  1.00  0.00     0.132 C 
HETATM    4  C   UNL     1      25.943  44.791  50.131  1.00  0.00     0.021 C 
HETATM    5  C   UNL     1      25.883  43.430  50.838  1.00  0.00     0.009 C 
HETATM    6  C   UNL     1      24.466  43.071  51.256  1.00  0.00     0.020 C 
HETATM    7  C   UNL     1      23.509  43.135  50.072  1.00  0.00     0.126 C 
HETATM    8  O   UNL     1      21.364  44.135  48.801  1.00  0.00    -0.273 OA
ENDROOT
BRANCH   1   9
HETATM    9  C   UNL     1      22.362  46.083  47.872  1.00  0.00     0.185 C 
BRANCH   9  10
HETATM   10  S   UNL     1      21.479  47.498  48.559  1.00  0.00    -0.082 SA
BRANCH  10  11
HETATM   11  C   UNL     1      22.569  48.830  48.377  1.00  0.00     0.173 A 
HETATM   12  N   UNL     1      22.168  50.159  48.264  1.00  0.00    -0.299 N 
HETATM   13  C   UNL     1      23.332  50.862  48.013  1.00  0.00     0.118 A 
HETATM   14  C   UNL     1      24.347  49.938  47.985  1.00  0.00     0.137 A 
HETATM   15  N   UNL     1      23.862  48.683  48.201  1.00  0.00    -0.235 NA
BRANCH  12  16
HETATM   16  C   UNL     1      20.881  50.750  48.454  1.00  0.00     0.047 A 
HETATM   17  C   UNL     1      20.033  50.889  47.338  1.00  0.00     0.037 A 
HETATM   18  C   UNL     1      18.738  51.402  47.464  1.00  0.00    -0.060 A 
HETATM   19  C   UNL     1      17.861  51.573  46.256  1.00  0.00     0.048 C 
HETATM   20  C   UNL     1      18.287  51.793  48.723  1.00  0.00     0.007 A 
HETATM   21  C   UNL     1      19.117  51.661  49.839  1.00  0.00     0.009 A 
HETATM   22  C   UNL     1      20.426  51.156  49.725  1.00  0.00    -0.035 A 
HETATM   23  C   UNL     1      21.261  51.132  50.976  1.00  0.00     0.050 C 
ENDBRANCH  12  16
ENDBRANCH  10  11
ENDBRANCH   9  10
ENDBRANCH   1   9
BRANCH   4  24
HETATM   24  C   UNL     1      25.769  45.987  51.086  1.00  0.00     0.130 C 
BRANCH  24  25
HETATM   25  N   UNL     1      26.522  45.870  52.322  1.00  0.00    -0.342 N 
HETATM   26  C   UNL     1      26.290  46.705  53.374  1.00  0.00     0.320 C 
HETATM   27  N   UNL     1      26.966  46.458  54.531  1.00  0.00    -0.309 N 
HETATM   28  O   UNL     1      25.471  47.620  53.342  1.00  0.00    -0.247 OA
HETATM   29  H   UNL     1      26.580  47.005  55.292  1.00  0.00     0.170 HD
HETATM   30  H   UNL     1      26.716  44.924  52.613  1.00  0.00     0.164 HD
BRANCH  27  31
HETATM   31  C   UNL     1      28.061  45.631  54.842  1.00  0.00     0.039 A 
HETATM   32  C   UNL     1      28.228  44.329  54.368  1.00  0.00     0.071 A 
HETATM   33  C   UNL     1      29.343  43.589  54.756  1.00  0.00     0.118 A 
HETATM   34  F   UNL     1      29.486  42.336  54.305  1.00  0.00    -0.206 F 
HETATM   35  C   UNL     1      30.313  44.126  55.593  1.00  0.00     0.042 A 
HETATM   36  C   UNL     1      30.175  45.436  56.040  1.00  0.00     0.005 A 
HETATM   37  C   UNL     1      29.058  46.186  55.657  1.00  0.00     0.030 A 
ENDBRANCH  27  31
ENDBRANCH  24  25
ENDBRANCH   4  24
TORSDOF 7
ENDMDL
MODEL 5
REMARK VINA RESULT:      -9.4      3.558      6.304
REMARK  7 active torsions:
REMARK  status: ('A' for Active; 'I' for Inactive)
REMARK    1  A    between atoms: C_4  and  N_5 
REMARK    2  A    between atoms: C_6  and  S_7 
REMARK    3  A    between atoms: S_7  and  C_8 
REMARK    4  A    between atoms: C_8  and  C_9 
REMARK       I    between atoms: C_9  and  N_10 
REMARK    5  A    between atoms: C_12  and  C_13 
REMARK    6  A    between atoms: C_13  and  N_14 
REMARK       I    between atoms: N_14  and  C_15 
REMARK       I    between atoms: C_15  and  N_16 
REMARK    7  A    between atoms: N_16  and  C_17 
ROOT
HETATM    1  C   UNL     1      24.885  46.530  50.505  1.00  0.00     0.229 C 
HETATM    2  N   UNL     1      25.310  46.094  51.771  1.00  0.00    -0.351 N 
HETATM    3  C   UNL     1      24.938  44.800  52.334  1.00  0.00     0.132 C 
HETATM    4  C   UNL     1      25.850  44.309  53.465  1.00  0.00     0.021 C 
HETATM    5  C   UNL     1      26.109  45.420  54.490  1.00  0.00     0.009 C 
HETATM    6  C   UNL     1      26.566  46.709  53.824  1.00  0.00     0.020 C 
HETATM    7  C   UNL     1      25.583  47.151  52.747  1.00  0.00     0.126 C 
HETATM    8  O   UNL     1      24.948  47.728  50.201  1.00  0.00    -0.273 OA
ENDROOT
BRANCH   1   9
HETATM    9  C   UNL     1      24.544  45.523  49.413  1.00  0.00     0.185 C 
BRANCH   9  10
HETATM   10  S   UNL     1      22.848  44.926  49.260  1.00  0.00    -0.082 SA
BRANCH  10  11
HETATM   11  C   UNL     1      22.397  45.290  47.629  1.00  0.00     0.173 A 
HETATM   12  N   UNL     1      21.727  46.448  47.243  1.00  0.00    -0.299 N 
HETATM   13  C   UNL     1      21.459  46.273  45.897  1.00  0.00     0.118 A 
HETATM   14  C   UNL     1      21.969  45.045  45.555  1.00  0.00     0.137 A 
HETATM   15  N   UNL     1      22.538  44.441  46.637  1.00  0.00    -0.235 NA
BRANCH  12  16
HETATM   16  C   UNL     1      21.436  47.633  47.987  1.00  0.00     0.047 A 
HETATM   17  C   UNL     1      22.405  48.653  48.033  1.00  0.00     0.037 A 
HETATM   18  C   UNL     1      22.161  49.864  48.692  1.00  0.00    -0.060 A 
HETATM   19  C   UNL     1      23.221  50.927  48.758  1.00  0.00     0.048 C 
HETATM   20  C   UNL     1      20.933  50.053  49.323  1.00  0.00     0.007 A 
HETATM   21  C   UNL     1      19.963  49.049  49.285  1.00  0.00     0.009 A 
HETATM   22  C   UNL     1      20.198  47.823  48.636  1.00  0.00    -0.035 A 
HETATM   23  C   UNL     1      19.116  46.782  48.725  1.00  0.00     0.050 C 
ENDBRANCH  12  16
ENDBRANCH  10  11
ENDBRANCH   9  10
ENDBRANCH   1   9
BRANCH   4  24
HETATM   24  C   UNL     1      27.137  43.710  52.868  1.00  0.00     0.130 C 
BRANCH  24  25
HETATM   25  N   UNL     1      28.285  43.778  53.755  1.00  0.00    -0.342 N 
HETATM   26  C   UNL     1      29.453  43.143  53.451  1.00  0.00     0.320 C 
HETATM   27  N   UNL     1      30.511  43.346  54.284  1.00  0.00    -0.309 N 
HETATM   28  O   UNL     1      29.604  42.452  52.447  1.00  0.00    -0.247 OA
HETATM   29  H   UNL     1      31.365  42.994  53.867  1.00  0.00     0.170 HD
HETATM   30  H   UNL     1      28.435  44.677  54.189  1.00  0.00     0.164 HD
BRANCH  27  31
HETATM   31  C   UNL     1      30.626  43.917  55.565  1.00  0.00     0.039 A 
HETATM   32  C   UNL     1      29.895  45.020  56.008  1.00  0.00     0.071 A 
HETATM   33  C   UNL     1      30.102  45.518  57.292  1.00  0.00     0.118 A 
HETATM   34  F   UNL     1      29.404  46.585  57.701  1.00  0.00    -0.206 F 
HETATM   35  C   UNL     1      31.012  44.925  58.161  1.00  0.00     0.042 A 
HETATM   36  C   UNL     1      31.717  43.802  57.743  1.00  0.00     0.005 A 
HETATM   37  C   UNL     1      31.517  43.296  56.454  1.00  0.00     0.030 A 
ENDBRANCH  27  31
ENDBRANCH  24  25
ENDBRANCH   4  24
TORSDOF 7
ENDMDL
MODEL 6
REMARK VINA RESULT:      -9.3      3.119      6.611
REMARK  7 active torsions:
REMARK  status: ('A' for Active; 'I' for Inactive)
REMARK    1  A    between atoms: C_4  and  N_5 
REMARK    2  A    between atoms: C_6  and  S_7 
REMARK    3  A    between atoms: S_7  and  C_8 
REMARK    4  A    between atoms: C_8  and  C_9 
REMARK       I    between atoms: C_9  and  N_10 
REMARK    5  A    between atoms: C_12  and  C_13 
REMARK    6  A    between atoms: C_13  and  N_14 
REMARK       I    between atoms: N_14  and  C_15 
REMARK       I    between atoms: C_15  and  N_16 
REMARK    7  A    between atoms: N_16  and  C_17 
ROOT
HETATM    1  C   UNL     1      22.830  43.399  48.493  1.00  0.00     0.229 C 
HETATM    2  N   UNL     1      24.115  43.191  49.018  1.00  0.00    -0.351 N 
HETATM    3  C   UNL     1      25.000  44.281  49.415  1.00  0.00     0.132 C 
HETATM    4  C   UNL     1      26.122  43.877  50.379  1.00  0.00     0.021 C 
HETATM    5  C   UNL     1      26.827  42.600  49.904  1.00  0.00     0.009 C 
HETATM    6  C   UNL     1      25.836  41.491  49.587  1.00  0.00     0.020 C 
HETATM    7  C   UNL     1      24.785  41.961  48.589  1.00  0.00     0.126 C 
HETATM    8  O   UNL     1      22.248  42.492  47.882  1.00  0.00    -0.273 OA
ENDROOT
BRANCH   1   9
HETATM    9  C   UNL     1      22.043  44.656  48.844  1.00  0.00     0.185 C 
BRANCH   9  10
HETATM   10  S   UNL     1      21.805  45.929  47.588  1.00  0.00    -0.082 SA
BRANCH  10  11
HETATM   11  C   UNL     1      20.986  47.213  48.411  1.00  0.00     0.173 A 
HETATM   12  N   UNL     1      21.629  48.294  49.011  1.00  0.00    -0.299 N 
HETATM   13  C   UNL     1      20.624  48.998  49.648  1.00  0.00     0.118 A 
HETATM   14  C   UNL     1      19.457  48.316  49.406  1.00  0.00     0.137 A 
HETATM   15  N   UNL     1      19.695  47.208  48.648  1.00  0.00    -0.235 NA
BRANCH  12  16
HETATM   16  C   UNL     1      22.996  48.703  48.942  1.00  0.00     0.047 A 
HETATM   17  C   UNL     1      23.950  47.992  49.695  1.00  0.00     0.037 A 
HETATM   18  C   UNL     1      25.314  48.301  49.626  1.00  0.00    -0.060 A 
HETATM   19  C   UNL     1      26.311  47.553  50.464  1.00  0.00     0.048 C 
HETATM   20  C   UNL     1      25.728  49.343  48.799  1.00  0.00     0.007 A 
HETATM   21  C   UNL     1      24.793  50.057  48.046  1.00  0.00     0.009 A 
HETATM   22  C   UNL     1      23.418  49.764  48.114  1.00  0.00    -0.035 A 
HETATM   23  C   UNL     1      22.490  50.646  47.323  1.00  0.00     0.050 C 
ENDBRANCH  12  16
ENDBRANCH  10  11
ENDBRANCH   9  10
ENDBRANCH   1   9
BRANCH   4  24
HETATM   24  C   UNL     1      25.562  43.775  51.810  1.00  0.00     0.130 C 
BRANCH  24  25
HETATM   25  N   UNL     1      26.496  44.192  52.840  1.00  0.00    -0.342 N 
HETATM   26  C   UNL     1      26.271  45.309  53.589  1.00  0.00     0.320 C 
HETATM   27  N   UNL     1      27.142  45.568  54.604  1.00  0.00    -0.309 N 
HETATM   28  O   UNL     1      25.303  46.048  53.426  1.00  0.00    -0.247 OA
HETATM   29  H   UNL     1      26.778  46.296  55.208  1.00  0.00     0.170 HD
HETATM   30  H   UNL     1      26.899  43.440  53.378  1.00  0.00     0.164 HD
BRANCH  27  31
HETATM   31  C   UNL     1      28.403  45.042  54.942  1.00  0.00     0.039 A 
HETATM   32  C   UNL     1      29.024  43.987  54.273  1.00  0.00     0.071 A 
HETATM   33  C   UNL     1      30.268  43.531  54.704  1.00  0.00     0.118 A 
HETATM   34  F   UNL     1      30.848  42.509  54.062  1.00  0.00    -0.206 F 
HETATM   35  C   UNL     1      30.922  44.118  55.780  1.00  0.00     0.042 A 
HETATM   36  C   UNL     1      30.328  45.195  56.429  1.00  0.00     0.005 A 
HETATM   37  C   UNL     1      29.079  45.660  56.004  1.00  0.00     0.030 A 
ENDBRANCH  27  31
ENDBRANCH  24  25
ENDBRANCH   4  24
TORSDOF 7
ENDMDL
MODEL 7
REMARK VINA RESULT:      -9.2      2.924      5.919
REMARK  7 active torsions:
REMARK  status: ('A' for Active; 'I' for Inactive)
REMARK    1  A    between atoms: C_4  and  N_5 
REMARK    2  A    between atoms: C_6  and  S_7 
REMARK    3  A    between atoms: S_7  and  C_8 
REMARK    4  A    between atoms: C_8  and  C_9 
REMARK       I    between atoms: C_9  and  N_10 
REMARK    5  A    between atoms: C_12  and  C_13 
REMARK    6  A    between atoms: C_13  and  N_14 
REMARK       I    between atoms: N_14  and  C_15 
REMARK       I    between atoms: C_15  and  N_16 
REMARK    7  A    between atoms: N_16  and  C_17 
ROOT
HETATM    1  C   UNL     1      22.804  42.540  48.155  1.00  0.00     0.229 C 
HETATM    2  N   UNL     1      23.928  41.722  47.960  1.00  0.00    -0.351 N 
HETATM    3  C   UNL     1      25.287  42.146  48.281  1.00  0.00     0.132 C 
HETATM    4  C   UNL     1      26.291  41.000  48.455  1.00  0.00     0.021 C 
HETATM    5  C   UNL     1      26.174  39.983  47.312  1.00  0.00     0.009 C 
HETATM    6  C   UNL     1      24.736  39.536  47.096  1.00  0.00     0.020 C 
HETATM    7  C   UNL     1      23.814  40.732  46.887  1.00  0.00     0.126 C 
HETATM    8  O   UNL     1      21.734  42.281  47.587  1.00  0.00    -0.273 OA
ENDROOT
BRANCH   1   9
HETATM    9  C   UNL     1      22.812  43.626  49.223  1.00  0.00     0.185 C 
BRANCH   9  10
HETATM   10  S   UNL     1      23.465  45.259  48.819  1.00  0.00    -0.082 SA
BRANCH  10  11
HETATM   11  C   UNL     1      24.240  45.797  50.270  1.00  0.00     0.173 A 
HETATM   12  N   UNL     1      24.849  47.041  50.417  1.00  0.00    -0.299 N 
HETATM   13  C   UNL     1      25.440  47.003  51.666  1.00  0.00     0.118 A 
HETATM   14  C   UNL     1      25.164  45.765  52.191  1.00  0.00     0.137 A 
HETATM   15  N   UNL     1      24.429  45.024  51.314  1.00  0.00    -0.235 NA
BRANCH  12  16
HETATM   16  C   UNL     1      24.826  48.182  49.557  1.00  0.00     0.047 A 
HETATM   17  C   UNL     1      23.586  48.786  49.274  1.00  0.00     0.037 A 
HETATM   18  C   UNL     1      23.498  49.943  48.491  1.00  0.00    -0.060 A 
HETATM   19  C   UNL     1      22.163  50.553  48.173  1.00  0.00     0.048 C 
HETATM   20  C   UNL     1      24.667  50.497  47.974  1.00  0.00     0.007 A 
HETATM   21  C   UNL     1      25.904  49.908  48.246  1.00  0.00     0.009 A 
HETATM   22  C   UNL     1      26.007  48.739  49.023  1.00  0.00    -0.035 A 
HETATM   23  C   UNL     1      27.379  48.144  49.188  1.00  0.00     0.050 C 
ENDBRANCH  12  16
ENDBRANCH  10  11
ENDBRANCH   9  10
ENDBRANCH   1   9
BRANCH   4  24
HETATM   24  C   UNL     1      26.126  40.375  49.853  1.00  0.00     0.130 C 
BRANCH  24  25
HETATM   25  N   UNL     1      27.083  40.859  50.832  1.00  0.00    -0.342 N 
HETATM   26  C   UNL     1      28.303  40.270  50.980  1.00  0.00     0.320 C 
HETATM   27  N   UNL     1      29.179  40.853  51.845  1.00  0.00    -0.309 N 
HETATM   28  O   UNL     1      28.661  39.286  50.336  1.00  0.00    -0.247 OA
HETATM   29  H   UNL     1      30.106  40.457  51.733  1.00  0.00     0.170 HD
HETATM   30  H   UNL     1      27.123  41.863  50.927  1.00  0.00     0.164 HD
BRANCH  27  31
HETATM   31  C   UNL     1      29.034  41.847  52.831  1.00  0.00     0.039 A 
HETATM   32  C   UNL     1      27.819  42.209  53.415  1.00  0.00     0.071 A 
HETATM   33  C   UNL     1      27.786  43.223  54.369  1.00  0.00     0.118 A 
HETATM   34  F   UNL     1      26.612  43.571  54.913  1.00  0.00    -0.206 F 
HETATM   35  C   UNL     1      28.944  43.876  54.774  1.00  0.00     0.042 A 
HETATM   36  C   UNL     1      30.164  43.495  54.226  1.00  0.00     0.005 A 
HETATM   37  C   UNL     1      30.208  42.479  53.266  1.00  0.00     0.030 A 
ENDBRANCH  27  31
ENDBRANCH  24  25
ENDBRANCH   4  24
TORSDOF 7
ENDMDL
MODEL 8
REMARK VINA RESULT:      -9.2      4.443      7.430
REMARK  7 active torsions:
REMARK  status: ('A' for Active; 'I' for Inactive)
REMARK    1  A    between atoms: C_4  and  N_5 
REMARK    2  A    between atoms: C_6  and  S_7 
REMARK    3  A    between atoms: S_7  and  C_8 
REMARK    4  A    between atoms: C_8  and  C_9 
REMARK       I    between atoms: C_9  and  N_10 
REMARK    5  A    between atoms: C_12  and  C_13 
REMARK    6  A    between atoms: C_13  and  N_14 
REMARK       I    between atoms: N_14  and  C_15 
REMARK       I    between atoms: C_15  and  N_16 
REMARK    7  A    between atoms: N_16  and  C_17 
ROOT
HETATM    1  C   UNL     1      22.936  48.262  48.366  1.00  0.00     0.229 C 
HETATM    2  N   UNL     1      24.124  48.142  49.105  1.00  0.00    -0.351 N 
HETATM    3  C   UNL     1      24.162  47.647  50.478  1.00  0.00     0.132 C 
HETATM    4  C   UNL     1      25.535  47.144  50.940  1.00  0.00     0.021 C 
HETATM    5  C   UNL     1      26.642  48.139  50.570  1.00  0.00     0.009 C 
HETATM    6  C   UNL     1      26.576  48.541  49.105  1.00  0.00     0.020 C 
HETATM    7  C   UNL     1      25.195  49.072  48.742  1.00  0.00     0.126 C 
HETATM    8  O   UNL     1      22.899  48.968  47.350  1.00  0.00    -0.273 OA
ENDROOT
BRANCH   1   9
HETATM    9  C   UNL     1      21.740  47.368  48.671  1.00  0.00     0.185 C 
BRANCH   9  10
HETATM   10  S   UNL     1      20.155  48.123  49.084  1.00  0.00    -0.082 SA
BRANCH  10  11
HETATM   11  C   UNL     1      19.401  48.433  47.557  1.00  0.00     0.173 A 
HETATM   12  N   UNL     1      18.518  49.483  47.319  1.00  0.00    -0.299 N 
HETATM   13  C   UNL     1      18.067  49.285  46.027  1.00  0.00     0.118 A 
HETATM   14  C   UNL     1      18.686  48.149  45.569  1.00  0.00     0.137 A 
HETATM   15  N   UNL     1      19.502  47.624  46.527  1.00  0.00    -0.235 NA
BRANCH  12  16
HETATM   16  C   UNL     1      18.182  50.605  48.139  1.00  0.00     0.047 A 
HETATM   17  C   UNL     1      16.831  50.810  48.479  1.00  0.00     0.037 A 
HETATM   18  C   UNL     1      16.441  51.852  49.328  1.00  0.00    -0.060 A 
HETATM   19  C   UNL     1      14.991  52.073  49.652  1.00  0.00     0.048 C 
HETATM   20  C   UNL     1      17.416  52.709  49.835  1.00  0.00     0.007 A 
HETATM   21  C   UNL     1      18.759  52.518  49.506  1.00  0.00     0.009 A 
HETATM   22  C   UNL     1      19.165  51.481  48.645  1.00  0.00    -0.035 A 
HETATM   23  C   UNL     1      20.627  51.415  48.293  1.00  0.00     0.050 C 
ENDBRANCH  12  16
ENDBRANCH  10  11
ENDBRANCH   9  10
ENDBRANCH   1   9
BRANCH   4  24
HETATM   24  C   UNL     1      25.775  45.724  50.392  1.00  0.00     0.130 C 
BRANCH  24  25
HETATM   25  N   UNL     1      26.450  44.839  51.325  1.00  0.00    -0.342 N 
HETATM   26  C   UNL     1      25.813  43.761  51.864  1.00  0.00     0.320 C 
HETATM   27  N   UNL     1      26.552  42.924  52.645  1.00  0.00    -0.309 N 
HETATM   28  O   UNL     1      24.638  43.487  51.635  1.00  0.00    -0.247 OA
HETATM   29  H   UNL     1      26.042  42.067  52.830  1.00  0.00     0.170 HD
HETATM   30  H   UNL     1      27.417  44.649  51.107  1.00  0.00     0.164 HD
BRANCH  27  31
HETATM   31  C   UNL     1      27.828  43.034  53.228  1.00  0.00     0.039 A 
HETATM   32  C   UNL     1      28.114  43.785  54.369  1.00  0.00     0.071 A 
HETATM   33  C   UNL     1      29.420  43.842  54.851  1.00  0.00     0.118 A 
HETATM   34  F   UNL     1      29.684  44.576  55.939  1.00  0.00    -0.206 F 
HETATM   35  C   UNL     1      30.451  43.147  54.231  1.00  0.00     0.042 A 
HETATM   36  C   UNL     1      30.170  42.365  53.116  1.00  0.00     0.005 A 
HETATM   37  C   UNL     1      28.861  42.303  52.624  1.00  0.00     0.030 A 
ENDBRANCH  27  31
ENDBRANCH  24  25
ENDBRANCH   4  24
TORSDOF 7
ENDMDL
MODEL 9
REMARK VINA RESULT:      -9.0      4.036      7.507
REMARK  7 active torsions:
REMARK  status: ('A' for Active; 'I' for Inactive)
REMARK    1  A    between atoms: C_4  and  N_5 
REMARK    2  A    between atoms: C_6  and  S_7 
REMARK    3  A    between atoms: S_7  and  C_8 
REMARK    4  A    between atoms: C_8  and  C_9 
REMARK       I    between atoms: C_9  and  N_10 
REMARK    5  A    between atoms: C_12  and  C_13 
REMARK    6  A    between atoms: C_13  and  N_14 
REMARK       I    between atoms: N_14  and  C_15 
REMARK       I    between atoms: C_15  and  N_16 
REMARK    7  A    between atoms: N_16  and  C_17 
ROOT
HETATM    1  C   UNL     1      22.223  45.017  48.835  1.00  0.00     0.229 C 
HETATM    2  N   UNL     1      23.452  44.746  49.458  1.00  0.00    -0.351 N 
HETATM    3  C   UNL     1      24.634  45.586  49.288  1.00  0.00     0.132 C 
HETATM    4  C   UNL     1      25.698  45.421  50.380  1.00  0.00     0.021 C 
HETATM    5  C   UNL     1      25.981  43.940  50.659  1.00  0.00     0.009 C 
HETATM    6  C   UNL     1      24.700  43.155  50.901  1.00  0.00     0.020 C 
HETATM    7  C   UNL     1      23.718  43.337  49.750  1.00  0.00     0.126 C 
HETATM    8  O   UNL     1      21.360  44.135  48.742  1.00  0.00    -0.273 OA
ENDROOT
BRANCH   1   9
HETATM    9  C   UNL     1      21.845  46.444  48.455  1.00  0.00     0.185 C 
BRANCH   9  10
HETATM   10  S   UNL     1      20.153  47.011  48.724  1.00  0.00    -0.082 SA
BRANCH  10  11
HETATM   11  C   UNL     1      19.612  47.542  47.168  1.00  0.00     0.173 A 
HETATM   12  N   UNL     1      19.034  48.785  46.924  1.00  0.00    -0.299 N 
HETATM   13  C   UNL     1      18.644  48.743  45.598  1.00  0.00     0.118 A 
HETATM   14  C   UNL     1      18.997  47.502  45.128  1.00  0.00     0.137 A 
HETATM   15  N   UNL     1      19.586  46.764  46.111  1.00  0.00    -0.235 NA
BRANCH  12  16
HETATM   16  C   UNL     1      18.926  49.931  47.771  1.00  0.00     0.047 A 
HETATM   17  C   UNL     1      17.650  50.307  48.235  1.00  0.00     0.037 A 
HETATM   18  C   UNL     1      17.480  51.380  49.117  1.00  0.00    -0.060 A 
HETATM   19  C   UNL     1      16.108  51.785  49.574  1.00  0.00     0.048 C 
HETATM   20  C   UNL     1      18.601  52.096  49.532  1.00  0.00     0.007 A 
HETATM   21  C   UNL     1      19.872  51.735  49.079  1.00  0.00     0.009 A 
HETATM   22  C   UNL     1      20.057  50.664  48.185  1.00  0.00    -0.035 A 
HETATM   23  C   UNL     1      21.459  50.412  47.699  1.00  0.00     0.050 C 
ENDBRANCH  12  16
ENDBRANCH  10  11
ENDBRANCH   9  10
ENDBRANCH   1   9
BRANCH   4  24
HETATM   24  C   UNL     1      25.280  46.215  51.632  1.00  0.00     0.130 C 
BRANCH  24  25
HETATM   25  N   UNL     1      26.186  46.062  52.757  1.00  0.00    -0.342 N 
HETATM   26  C   UNL     1      26.151  46.920  53.816  1.00  0.00     0.320 C 
HETATM   27  N   UNL     1      26.962  46.641  54.875  1.00  0.00    -0.309 N 
HETATM   28  O   UNL     1      25.393  47.885  53.879  1.00  0.00    -0.247 OA
HETATM   29  H   UNL     1      26.718  47.218  55.671  1.00  0.00     0.170 HD
HETATM   30  H   UNL     1      26.360  45.108  53.036  1.00  0.00     0.164 HD
BRANCH  27  31
HETATM   31  C   UNL     1      28.036  45.749  55.050  1.00  0.00     0.039 A 
HETATM   32  C   UNL     1      28.076  44.450  54.541  1.00  0.00     0.071 A 
HETATM   33  C   UNL     1      29.184  43.643  54.791  1.00  0.00     0.118 A 
HETATM   34  F   UNL     1      29.205  42.394  54.308  1.00  0.00    -0.206 F 
HETATM   35  C   UNL     1      30.269  44.108  55.523  1.00  0.00     0.042 A 
HETATM   36  C   UNL     1      30.255  45.414  56.002  1.00  0.00     0.005 A 
HETATM   37  C   UNL     1      29.147  46.232  55.757  1.00  0.00     0.030 A 
ENDBRANCH  27  31
ENDBRANCH  24  25
ENDBRANCH   4  24
TORSDOF 7
ENDMDL
MODEL 10
REMARK VINA RESULT:      -9.0      3.622      7.236
REMARK  7 active torsions:
REMARK  status: ('A' for Active; 'I' for Inactive)
REMARK    1  A    between atoms: C_4  and  N_5 
REMARK    2  A    between atoms: C_6  and  S_7 
REMARK    3  A    between atoms: S_7  and  C_8 
REMARK    4  A    between atoms: C_8  and  C_9 
REMARK       I    between atoms: C_9  and  N_10 
REMARK    5  A    between atoms: C_12  and  C_13 
REMARK    6  A    between atoms: C_13  and  N_14 
REMARK       I    between atoms: N_14  and  C_15 
REMARK       I    between atoms: C_15  and  N_16 
REMARK    7  A    between atoms: N_16  and  C_17 
ROOT
HETATM    1  C   UNL     1      22.284  44.799  48.605  1.00  0.00     0.229 C 
HETATM    2  N   UNL     1      23.570  44.685  49.157  1.00  0.00    -0.351 N 
HETATM    3  C   UNL     1      24.546  45.770  49.133  1.00  0.00     0.132 C 
HETATM    4  C   UNL     1      25.671  45.641  50.167  1.00  0.00     0.021 C 
HETATM    5  C   UNL     1      26.263  44.226  50.168  1.00  0.00     0.009 C 
HETATM    6  C   UNL     1      25.183  43.160  50.274  1.00  0.00     0.020 C 
HETATM    7  C   UNL     1      24.131  43.333  49.185  1.00  0.00     0.126 C 
HETATM    8  O   UNL     1      21.615  43.786  48.360  1.00  0.00    -0.273 OA
ENDROOT
BRANCH   1   9
HETATM    9  C   UNL     1      21.605  46.159  48.496  1.00  0.00     0.185 C 
BRANCH   9  10
HETATM   10  S   UNL     1      19.819  46.276  48.724  1.00  0.00    -0.082 SA
BRANCH  10  11
HETATM   11  C   UNL     1      19.282  47.342  47.470  1.00  0.00     0.173 A 
HETATM   12  N   UNL     1      19.559  48.706  47.432  1.00  0.00    -0.299 N 
HETATM   13  C   UNL     1      18.846  49.185  46.348  1.00  0.00     0.118 A 
HETATM   14  C   UNL     1      18.189  48.107  45.808  1.00  0.00     0.137 A 
HETATM   15  N   UNL     1      18.458  46.974  46.516  1.00  0.00    -0.235 NA
BRANCH  12  16
HETATM   16  C   UNL     1      20.449  49.486  48.234  1.00  0.00     0.047 A 
HETATM   17  C   UNL     1      21.766  49.685  47.777  1.00  0.00     0.037 A 
HETATM   18  C   UNL     1      22.670  50.489  48.482  1.00  0.00    -0.060 A 
HETATM   19  C   UNL     1      24.081  50.662  47.996  1.00  0.00     0.048 C 
HETATM   20  C   UNL     1      22.254  51.093  49.667  1.00  0.00     0.007 A 
HETATM   21  C   UNL     1      20.950  50.903  50.131  1.00  0.00     0.009 A 
HETATM   22  C   UNL     1      20.034  50.090  49.439  1.00  0.00    -0.035 A 
HETATM   23  C   UNL     1      18.682  49.890  50.069  1.00  0.00     0.050 C 
ENDBRANCH  12  16
ENDBRANCH  10  11
ENDBRANCH   9  10
ENDBRANCH   1   9
BRANCH   4  24
HETATM   24  C   UNL     1      25.159  46.095  51.547  1.00  0.00     0.130 C 
BRANCH  24  25
HETATM   25  N   UNL     1      26.107  45.882  52.627  1.00  0.00    -0.342 N 
HETATM   26  C   UNL     1      26.199  46.755  53.670  1.00  0.00     0.320 C 
HETATM   27  N   UNL     1      27.038  46.424  54.691  1.00  0.00    -0.309 N 
HETATM   28  O   UNL     1      25.529  47.782  53.753  1.00  0.00    -0.247 OA
HETATM   29  H   UNL     1      26.885  47.031  55.488  1.00  0.00     0.170 HD
HETATM   30  H   UNL     1      26.214  44.921  52.915  1.00  0.00     0.164 HD
BRANCH  27  31
HETATM   31  C   UNL     1      28.041  45.447  54.828  1.00  0.00     0.039 A 
HETATM   32  C   UNL     1      27.993  44.178  54.249  1.00  0.00     0.071 A 
HETATM   33  C   UNL     1      29.034  43.278  54.466  1.00  0.00     0.118 A 
HETATM   34  F   UNL     1      28.971  42.059  53.915  1.00  0.00    -0.206 F 
HETATM   35  C   UNL     1      30.140  43.622  55.235  1.00  0.00     0.042 A 
HETATM   36  C   UNL     1      30.215  44.896  55.785  1.00  0.00     0.005 A 
HETATM   37  C   UNL     1      29.173  45.806  55.573  1.00  0.00     0.030 A 
ENDBRANCH  27  31
ENDBRANCH  24  25
ENDBRANCH   4  24
TORSDOF 7
ENDMDL
