MODEL 1
REMARK VINA RESULT:      -9.0      0.000      0.000
REMARK  6 active torsions:
REMARK  status: ('A' for Active; 'I' for Inactive)
REMARK    1  A    between atoms: C_2  and  S_3 
REMARK    2  A    between atoms: C_2  and  C_18 
REMARK    3  A    between atoms: S_3  and  C_4 
REMARK    4  A    between atoms: C_4  and  C_5 
REMARK       I    between atoms: C_5  and  N_6 
REMARK    5  A    between atoms: N_6  and  C_7 
REMARK    6  A    between atoms: C_10  and  C_11 
REMARK       I    between atoms: C_11  and  N_12 
ROOT
HETATM    1  C   UNL     1      26.721  44.452  50.120  1.00  0.00     0.231 C 
HETATM    2  N   UNL     1      26.652  43.851  51.365  1.00  0.00    -0.327 N 
HETATM    3  O   UNL     1      27.660  45.116  49.686  1.00  0.00    -0.272 OA
HETATM    4  H   UNL     1      25.906  43.180  51.507  1.00  0.00     0.169 HD
ENDROOT
BRANCH   1   5
HETATM    5  C   UNL     1      25.456  44.241  49.295  1.00  0.00     0.177 C 
BRANCH   5   6
HETATM    6  S   UNL     1      24.014  45.111  49.991  1.00  0.00    -0.147 SA
BRANCH   6   7
HETATM    7  C   UNL     1      24.645  46.829  50.163  1.00  0.00     0.113 C 
HETATM    8  C   UNL     1      25.140  47.111  51.580  1.00  0.00     0.029 C 
BRANCH   7   9
HETATM    9  C   UNL     1      23.660  47.850  49.686  1.00  0.00     0.118 A 
HETATM   10  N   UNL     1      23.794  49.163  49.704  1.00  0.00    -0.232 NA
HETATM   11  C   UNL     1      22.646  49.662  49.131  1.00  0.00     0.085 A 
HETATM   12  C   UNL     1      21.783  48.633  48.773  1.00  0.00     0.062 A 
HETATM   13  C   UNL     1      22.262  50.988  48.893  1.00  0.00     0.034 A 
HETATM   14  N   UNL     1      22.447  47.493  49.138  1.00  0.00    -0.342 N 
HETATM   15  C   UNL     1      20.534  48.845  48.190  1.00  0.00     0.032 A 
HETATM   16  H   UNL     1      22.093  46.549  49.066  1.00  0.00     0.167 HD
HETATM   17  C   UNL     1      20.164  50.176  47.964  1.00  0.00     0.002 A 
HETATM   18  C   UNL     1      21.011  51.233  48.309  1.00  0.00     0.002 A 
ENDBRANCH   7   9
ENDBRANCH   6   7
ENDBRANCH   5   6
ENDBRANCH   1   5
BRANCH   2  19
HETATM   19  C   UNL     1      27.601  43.905  52.406  1.00  0.00     0.034 A 
HETATM   20  C   UNL     1      28.747  43.110  52.466  1.00  0.00     0.030 A 
HETATM   21  C   UNL     1      29.637  43.222  53.544  1.00  0.00     0.019 A 
HETATM   22  C   UNL     1      29.394  44.145  54.567  1.00  0.00     0.032 A 
HETATM   23  C   UNL     1      28.243  44.936  54.513  1.00  0.00     0.019 A 
HETATM   24  C   UNL     1      27.357  44.818  53.439  1.00  0.00     0.030 A 
BRANCH  22  25
HETATM   25  C   UNL     1      30.304  44.304  55.735  1.00  0.00     0.251 C 
HETATM   26  N   UNL     1      31.061  43.205  56.082  1.00  0.00    -0.361 N 
HETATM   27  C   UNL     1      31.970  43.233  57.200  1.00  0.00     0.149 C 
HETATM   28  H   UNL     1      31.011  42.359  55.532  1.00  0.00     0.162 HD
HETATM   29  O   UNL     1      30.371  45.382  56.315  1.00  0.00    -0.268 OA
ENDBRANCH  22  25
ENDBRANCH   2  19
TORSDOF 6
ENDMDL
MODEL 2
REMARK VINA RESULT:      -8.9      4.291      8.222
REMARK  6 active torsions:
REMARK  status: ('A' for Active; 'I' for Inactive)
REMARK    1  A    between atoms: C_2  and  S_3 
REMARK    2  A    between atoms: C_2  and  C_18 
REMARK    3  A    between atoms: S_3  and  C_4 
REMARK    4  A    between atoms: C_4  and  C_5 
REMARK       I    between atoms: C_5  and  N_6 
REMARK    5  A    between atoms: N_6  and  C_7 
REMARK    6  A    between atoms: C_10  and  C_11 
REMARK       I    between atoms: C_11  and  N_12 
ROOT
HETATM    1  C   UNL     1      25.543  45.154  52.410  1.00  0.00     0.231 C 
HETATM    2  N   UNL     1      26.804  44.786  51.971  1.00  0.00    -0.327 N 
HETATM    3  O   UNL     1      24.617  44.391  52.676  1.00  0.00    -0.272 OA
HETATM    4  H   UNL     1      27.517  45.506  51.980  1.00  0.00     0.169 HD
ENDROOT
BRANCH   1   5
HETATM    5  C   UNL     1      25.373  46.666  52.511  1.00  0.00     0.177 C 
BRANCH   5   6
HETATM    6  S   UNL     1      26.859  47.495  53.164  1.00  0.00    -0.147 SA
BRANCH   6   7
HETATM    7  C   UNL     1      26.755  47.119  54.960  1.00  0.00     0.113 C 
HETATM    8  C   UNL     1      26.581  48.386  55.795  1.00  0.00     0.029 C 
BRANCH   7   9
HETATM    9  C   UNL     1      27.892  46.270  55.434  1.00  0.00     0.118 A 
HETATM   10  N   UNL     1      28.483  45.285  54.783  1.00  0.00    -0.232 NA
HETATM   11  C   UNL     1      29.487  44.841  55.612  1.00  0.00     0.085 A 
HETATM   12  C   UNL     1      29.500  45.556  56.803  1.00  0.00     0.062 A 
HETATM   13  C   UNL     1      30.426  43.818  55.421  1.00  0.00     0.034 A 
HETATM   14  N   UNL     1      28.476  46.455  56.668  1.00  0.00    -0.342 N 
HETATM   15  C   UNL     1      30.399  45.308  57.841  1.00  0.00     0.032 A 
HETATM   16  H   UNL     1      28.165  47.113  57.369  1.00  0.00     0.167 HD
HETATM   17  C   UNL     1      31.325  44.279  57.635  1.00  0.00     0.002 A 
HETATM   18  C   UNL     1      31.341  43.544  56.447  1.00  0.00     0.002 A 
ENDBRANCH   7   9
ENDBRANCH   6   7
ENDBRANCH   5   6
ENDBRANCH   1   5
BRANCH   2  19
HETATM   19  C   UNL     1      27.279  43.489  51.695  1.00  0.00     0.034 A 
HETATM   20  C   UNL     1      28.024  42.717  52.589  1.00  0.00     0.030 A 
HETATM   21  C   UNL     1      28.467  41.437  52.229  1.00  0.00     0.019 A 
HETATM   22  C   UNL     1      28.153  40.909  50.971  1.00  0.00     0.032 A 
HETATM   23  C   UNL     1      27.416  41.682  50.071  1.00  0.00     0.019 A 
HETATM   24  C   UNL     1      26.980  42.960  50.433  1.00  0.00     0.030 A 
BRANCH  22  25
HETATM   25  C   UNL     1      28.598  39.556  50.536  1.00  0.00     0.251 C 
HETATM   26  N   UNL     1      29.477  38.898  51.371  1.00  0.00    -0.361 N 
HETATM   27  C   UNL     1      29.987  37.588  51.052  1.00  0.00     0.149 C 
HETATM   28  H   UNL     1      29.759  39.318  52.245  1.00  0.00     0.162 HD
HETATM   29  O   UNL     1      28.160  39.073  49.498  1.00  0.00    -0.268 OA
ENDBRANCH  22  25
ENDBRANCH   2  19
TORSDOF 6
ENDMDL
MODEL 3
REMARK VINA RESULT:      -8.5      1.052      1.458
REMARK  6 active torsions:
REMARK  status: ('A' for Active; 'I' for Inactive)
REMARK    1  A    between atoms: C_2  and  S_3 
REMARK    2  A    between atoms: C_2  and  C_18 
REMARK    3  A    between atoms: S_3  and  C_4 
REMARK    4  A    between atoms: C_4  and  C_5 
REMARK       I    between atoms: C_5  and  N_6 
REMARK    5  A    between atoms: N_6  and  C_7 
REMARK    6  A    between atoms: C_10  and  C_11 
REMARK       I    between atoms: C_11  and  N_12 
ROOT
HETATM    1  C   UNL     1      26.723  44.455  50.189  1.00  0.00     0.231 C 
HETATM    2  N   UNL     1      26.681  43.816  51.418  1.00  0.00    -0.327 N 
HETATM    3  O   UNL     1      27.631  45.173  49.776  1.00  0.00    -0.272 OA
HETATM    4  H   UNL     1      25.966  43.108  51.539  1.00  0.00     0.169 HD
ENDROOT
BRANCH   1   5
HETATM    5  C   UNL     1      25.469  44.211  49.357  1.00  0.00     0.177 C 
BRANCH   5   6
HETATM    6  S   UNL     1      23.937  44.548  50.284  1.00  0.00    -0.147 SA
BRANCH   6   7
HETATM    7  C   UNL     1      22.807  45.142  48.961  1.00  0.00     0.113 C 
HETATM    8  C   UNL     1      23.138  44.513  47.609  1.00  0.00     0.029 C 
BRANCH   7   9
HETATM    9  C   UNL     1      22.737  46.636  48.898  1.00  0.00     0.118 A 
HETATM   10  N   UNL     1      23.747  47.483  48.827  1.00  0.00    -0.232 NA
HETATM   11  C   UNL     1      23.178  48.734  48.756  1.00  0.00     0.085 A 
HETATM   12  C   UNL     1      21.792  48.652  48.804  1.00  0.00     0.062 A 
HETATM   13  C   UNL     1      23.783  49.995  48.661  1.00  0.00     0.034 A 
HETATM   14  N   UNL     1      21.536  47.310  48.898  1.00  0.00    -0.342 N 
HETATM   15  C   UNL     1      20.953  49.767  48.771  1.00  0.00     0.032 A 
HETATM   16  H   UNL     1      20.626  46.883  48.998  1.00  0.00     0.167 HD
HETATM   17  C   UNL     1      21.576  51.017  48.681  1.00  0.00     0.002 A 
HETATM   18  C   UNL     1      22.967  51.133  48.628  1.00  0.00     0.002 A 
ENDBRANCH   7   9
ENDBRANCH   6   7
ENDBRANCH   5   6
ENDBRANCH   1   5
BRANCH   2  19
HETATM   19  C   UNL     1      27.626  43.883  52.460  1.00  0.00     0.034 A 
HETATM   20  C   UNL     1      28.753  43.064  52.554  1.00  0.00     0.030 A 
HETATM   21  C   UNL     1      29.639  43.192  53.633  1.00  0.00     0.019 A 
HETATM   22  C   UNL     1      29.414  44.155  54.622  1.00  0.00     0.032 A 
HETATM   23  C   UNL     1      28.282  44.970  54.536  1.00  0.00     0.019 A 
HETATM   24  C   UNL     1      27.399  44.837  53.461  1.00  0.00     0.030 A 
BRANCH  22  25
HETATM   25  C   UNL     1      30.322  44.333  55.789  1.00  0.00     0.251 C 
HETATM   26  N   UNL     1      31.077  43.238  56.156  1.00  0.00    -0.361 N 
HETATM   27  C   UNL     1      31.984  43.284  57.275  1.00  0.00     0.149 C 
HETATM   28  H   UNL     1      31.027  42.384  55.620  1.00  0.00     0.162 HD
HETATM   29  O   UNL     1      30.388  45.420  56.352  1.00  0.00    -0.268 OA
ENDBRANCH  22  25
ENDBRANCH   2  19
TORSDOF 6
ENDMDL
MODEL 4
REMARK VINA RESULT:      -8.3     11.698     12.804
REMARK  6 active torsions:
REMARK  status: ('A' for Active; 'I' for Inactive)
REMARK    1  A    between atoms: C_2  and  S_3 
REMARK    2  A    between atoms: C_2  and  C_18 
REMARK    3  A    between atoms: S_3  and  C_4 
REMARK    4  A    between atoms: C_4  and  C_5 
REMARK       I    between atoms: C_5  and  N_6 
REMARK    5  A    between atoms: N_6  and  C_7 
REMARK    6  A    between atoms: C_10  and  C_11 
REMARK       I    between atoms: C_11  and  N_12 
ROOT
HETATM    1  C   UNL     1      28.937  46.684  40.060  1.00  0.00     0.231 C 
HETATM    2  N   UNL     1      28.996  47.897  40.726  1.00  0.00    -0.327 N 
HETATM    3  O   UNL     1      29.893  45.970  39.768  1.00  0.00    -0.272 OA
HETATM    4  H   UNL     1      28.118  48.273  41.066  1.00  0.00     0.169 HD
ENDROOT
BRANCH   1   5
HETATM    5  C   UNL     1      27.515  46.298  39.666  1.00  0.00     0.177 C 
BRANCH   5   6
HETATM    6  S   UNL     1      27.027  46.982  38.049  1.00  0.00    -0.147 SA
BRANCH   6   7
HETATM    7  C   UNL     1      25.916  48.364  38.533  1.00  0.00     0.113 C 
HETATM    8  C   UNL     1      24.908  48.691  37.433  1.00  0.00     0.029 C 
BRANCH   7   9
HETATM    9  C   UNL     1      26.672  49.570  38.996  1.00  0.00     0.118 A 
HETATM   10  N   UNL     1      26.845  49.978  40.239  1.00  0.00    -0.232 NA
HETATM   11  C   UNL     1      27.633  51.104  40.154  1.00  0.00     0.085 A 
HETATM   12  C   UNL     1      27.932  51.401  38.830  1.00  0.00     0.062 A 
HETATM   13  C   UNL     1      28.126  51.937  41.168  1.00  0.00     0.034 A 
HETATM   14  N   UNL     1      27.307  50.415  38.114  1.00  0.00    -0.342 N 
HETATM   15  C   UNL     1      28.697  52.501  38.442  1.00  0.00     0.032 A 
HETATM   16  H   UNL     1      27.274  50.342  37.106  1.00  0.00     0.167 HD
HETATM   17  C   UNL     1      29.177  53.324  39.468  1.00  0.00     0.002 A 
HETATM   18  C   UNL     1      28.897  53.050  40.809  1.00  0.00     0.002 A 
ENDBRANCH   7   9
ENDBRANCH   6   7
ENDBRANCH   5   6
ENDBRANCH   1   5
BRANCH   2  19
HETATM   19  C   UNL     1      30.143  48.587  41.165  1.00  0.00     0.034 A 
HETATM   20  C   UNL     1      30.582  48.619  42.490  1.00  0.00     0.030 A 
HETATM   21  C   UNL     1      31.731  49.341  42.843  1.00  0.00     0.019 A 
HETATM   22  C   UNL     1      32.462  50.025  41.867  1.00  0.00     0.032 A 
HETATM   23  C   UNL     1      32.020  50.002  40.542  1.00  0.00     0.019 A 
HETATM   24  C   UNL     1      30.872  49.285  40.195  1.00  0.00     0.030 A 
BRANCH  22  25
HETATM   25  C   UNL     1      33.689  50.808  42.186  1.00  0.00     0.251 C 
HETATM   26  N   UNL     1      34.890  50.137  42.094  1.00  0.00    -0.361 N 
HETATM   27  C   UNL     1      36.144  50.784  42.388  1.00  0.00     0.149 C 
HETATM   28  H   UNL     1      34.913  49.175  41.786  1.00  0.00     0.162 HD
HETATM   29  O   UNL     1      33.598  51.993  42.483  1.00  0.00    -0.268 OA
ENDBRANCH  22  25
ENDBRANCH   2  19
TORSDOF 6
ENDMDL
MODEL 5
REMARK VINA RESULT:      -8.3      1.404      1.946
REMARK  6 active torsions:
REMARK  status: ('A' for Active; 'I' for Inactive)
REMARK    1  A    between atoms: C_2  and  S_3 
REMARK    2  A    between atoms: C_2  and  C_18 
REMARK    3  A    between atoms: S_3  and  C_4 
REMARK    4  A    between atoms: C_4  and  C_5 
REMARK       I    between atoms: C_5  and  N_6 
REMARK    5  A    between atoms: N_6  and  C_7 
REMARK    6  A    between atoms: C_10  and  C_11 
REMARK       I    between atoms: C_11  and  N_12 
ROOT
HETATM    1  C   UNL     1      26.456  44.966  50.196  1.00  0.00     0.231 C 
HETATM    2  N   UNL     1      26.136  44.845  51.538  1.00  0.00    -0.327 N 
HETATM    3  O   UNL     1      27.579  45.151  49.732  1.00  0.00    -0.272 OA
HETATM    4  H   UNL     1      25.207  44.504  51.755  1.00  0.00     0.169 HD
ENDROOT
BRANCH   1   5
HETATM    5  C   UNL     1      25.233  44.883  49.290  1.00  0.00     0.177 C 
BRANCH   5   6
HETATM    6  S   UNL     1      23.904  46.020  49.802  1.00  0.00    -0.147 SA
BRANCH   6   7
HETATM    7  C   UNL     1      24.394  47.586  48.973  1.00  0.00     0.113 C 
HETATM    8  C   UNL     1      25.600  48.232  49.651  1.00  0.00     0.029 C 
BRANCH   7   9
HETATM    9  C   UNL     1      23.246  48.534  48.818  1.00  0.00     0.118 A 
HETATM   10  N   UNL     1      22.552  48.780  47.723  1.00  0.00    -0.232 NA
HETATM   11  C   UNL     1      21.587  49.691  48.091  1.00  0.00     0.085 A 
HETATM   12  C   UNL     1      21.707  50.023  49.435  1.00  0.00     0.062 A 
HETATM   13  C   UNL     1      20.578  50.291  47.326  1.00  0.00     0.034 A 
HETATM   14  N   UNL     1      22.769  49.279  49.874  1.00  0.00    -0.342 N 
HETATM   15  C   UNL     1      20.875  50.941  50.077  1.00  0.00     0.032 A 
HETATM   16  H   UNL     1      23.170  49.304  50.801  1.00  0.00     0.167 HD
HETATM   17  C   UNL     1      19.876  51.535  49.296  1.00  0.00     0.002 A 
HETATM   18  C   UNL     1      19.728  51.219  47.943  1.00  0.00     0.002 A 
ENDBRANCH   7   9
ENDBRANCH   6   7
ENDBRANCH   5   6
ENDBRANCH   1   5
BRANCH   2  19
HETATM   19  C   UNL     1      27.000  44.949  52.646  1.00  0.00     0.034 A 
HETATM   20  C   UNL     1      26.948  45.978  53.589  1.00  0.00     0.030 A 
HETATM   21  C   UNL     1      27.854  46.011  54.658  1.00  0.00     0.019 A 
HETATM   22  C   UNL     1      28.813  45.001  54.803  1.00  0.00     0.032 A 
HETATM   23  C   UNL     1      28.872  43.976  53.856  1.00  0.00     0.019 A 
HETATM   24  C   UNL     1      27.970  43.949  52.789  1.00  0.00     0.030 A 
BRANCH  22  25
HETATM   25  C   UNL     1      29.800  44.988  55.919  1.00  0.00     0.251 C 
HETATM   26  N   UNL     1      29.525  45.805  56.995  1.00  0.00    -0.361 N 
HETATM   27  C   UNL     1      30.410  45.885  58.130  1.00  0.00     0.149 C 
HETATM   28  H   UNL     1      28.673  46.346  57.018  1.00  0.00     0.162 HD
HETATM   29  O   UNL     1      30.778  44.252  55.859  1.00  0.00    -0.268 OA
ENDBRANCH  22  25
ENDBRANCH   2  19
TORSDOF 6
ENDMDL
MODEL 6
REMARK VINA RESULT:      -8.2      3.512      4.811
REMARK  6 active torsions:
REMARK  status: ('A' for Active; 'I' for Inactive)
REMARK    1  A    between atoms: C_2  and  S_3 
REMARK    2  A    between atoms: C_2  and  C_18 
REMARK    3  A    between atoms: S_3  and  C_4 
REMARK    4  A    between atoms: C_4  and  C_5 
REMARK       I    between atoms: C_5  and  N_6 
REMARK    5  A    between atoms: N_6  and  C_7 
REMARK    6  A    between atoms: C_10  and  C_11 
REMARK       I    between atoms: C_11  and  N_12 
ROOT
HETATM    1  C   UNL     1      28.056  40.926  51.576  1.00  0.00     0.231 C 
HETATM    2  N   UNL     1      29.048  41.875  51.761  1.00  0.00    -0.327 N 
HETATM    3  O   UNL     1      27.120  40.697  52.340  1.00  0.00    -0.272 OA
HETATM    4  H   UNL     1      29.635  42.081  50.961  1.00  0.00     0.169 HD
ENDROOT
BRANCH   1   5
HETATM    5  C   UNL     1      28.245  40.120  50.296  1.00  0.00     0.177 C 
BRANCH   5   6
HETATM    6  S   UNL     1      26.668  39.768  49.451  1.00  0.00    -0.147 SA
BRANCH   6   7
HETATM    7  C   UNL     1      26.626  41.070  48.154  1.00  0.00     0.113 C 
HETATM    8  C   UNL     1      27.907  41.083  47.324  1.00  0.00     0.029 C 
BRANCH   7   9
HETATM    9  C   UNL     1      26.286  42.417  48.708  1.00  0.00     0.118 A 
HETATM   10  N   UNL     1      27.091  43.249  49.342  1.00  0.00    -0.232 NA
HETATM   11  C   UNL     1      26.331  44.363  49.621  1.00  0.00     0.085 A 
HETATM   12  C   UNL     1      25.028  44.200  49.165  1.00  0.00     0.062 A 
HETATM   13  C   UNL     1      26.681  45.552  50.275  1.00  0.00     0.034 A 
HETATM   14  N   UNL     1      25.024  42.956  48.592  1.00  0.00    -0.342 N 
HETATM   15  C   UNL     1      24.030  45.161  49.329  1.00  0.00     0.032 A 
HETATM   16  H   UNL     1      24.222  42.488  48.194  1.00  0.00     0.167 HD
HETATM   17  C   UNL     1      24.397  46.340  49.988  1.00  0.00     0.002 A 
HETATM   18  C   UNL     1      25.699  46.535  50.455  1.00  0.00     0.002 A 
ENDBRANCH   7   9
ENDBRANCH   6   7
ENDBRANCH   5   6
ENDBRANCH   1   5
BRANCH   2  19
HETATM   19  C   UNL     1      29.226  42.737  52.861  1.00  0.00     0.034 A 
HETATM   20  C   UNL     1      30.285  42.646  53.766  1.00  0.00     0.030 A 
HETATM   21  C   UNL     1      30.382  43.540  54.842  1.00  0.00     0.019 A 
HETATM   22  C   UNL     1      29.426  44.546  55.012  1.00  0.00     0.032 A 
HETATM   23  C   UNL     1      28.360  44.634  54.113  1.00  0.00     0.019 A 
HETATM   24  C   UNL     1      28.265  43.738  53.045  1.00  0.00     0.030 A 
BRANCH  22  25
HETATM   25  C   UNL     1      29.479  45.522  56.137  1.00  0.00     0.251 C 
HETATM   26  N   UNL     1      30.423  45.284  57.115  1.00  0.00    -0.361 N 
HETATM   27  C   UNL     1      30.564  46.151  58.257  1.00  0.00     0.149 C 
HETATM   28  H   UNL     1      31.058  44.504  57.029  1.00  0.00     0.162 HD
HETATM   29  O   UNL     1      28.727  46.489  56.143  1.00  0.00    -0.268 OA
ENDBRANCH  22  25
ENDBRANCH   2  19
TORSDOF 6
ENDMDL
MODEL 7
REMARK VINA RESULT:      -8.1     12.893     15.485
REMARK  6 active torsions:
REMARK  status: ('A' for Active; 'I' for Inactive)
REMARK    1  A    between atoms: C_2  and  S_3 
REMARK    2  A    between atoms: C_2  and  C_18 
REMARK    3  A    between atoms: S_3  and  C_4 
REMARK    4  A    between atoms: C_4  and  C_5 
REMARK       I    between atoms: C_5  and  N_6 
REMARK    5  A    between atoms: N_6  and  C_7 
REMARK    6  A    between atoms: C_10  and  C_11 
REMARK       I    between atoms: C_11  and  N_12 
ROOT
HETATM    1  C   UNL     1      34.008  52.857  39.264  1.00  0.00     0.231 C 
HETATM    2  N   UNL     1      32.978  53.331  40.060  1.00  0.00    -0.327 N 
HETATM    3  O   UNL     1      33.975  51.852  38.558  1.00  0.00    -0.272 OA
HETATM    4  H   UNL     1      33.083  54.268  40.430  1.00  0.00     0.169 HD
ENDROOT
BRANCH   1   5
HETATM    5  C   UNL     1      35.268  53.710  39.365  1.00  0.00     0.177 C 
BRANCH   5   6
HETATM    6  S   UNL     1      36.775  52.708  39.584  1.00  0.00    -0.147 SA
BRANCH   6   7
HETATM    7  C   UNL     1      36.695  52.274  41.368  1.00  0.00     0.113 C 
HETATM    8  C   UNL     1      37.970  51.575  41.838  1.00  0.00     0.029 C 
BRANCH   7   9
HETATM    9  C   UNL     1      35.458  51.506  41.714  1.00  0.00     0.118 A 
HETATM   10  N   UNL     1      34.534  51.832  42.598  1.00  0.00    -0.232 NA
HETATM   11  C   UNL     1      33.587  50.836  42.530  1.00  0.00     0.085 A 
HETATM   12  C   UNL     1      33.948  49.871  41.598  1.00  0.00     0.062 A 
HETATM   13  C   UNL     1      32.391  50.680  43.245  1.00  0.00     0.034 A 
HETATM   14  N   UNL     1      35.142  50.316  41.096  1.00  0.00    -0.342 N 
HETATM   15  C   UNL     1      33.186  48.733  41.333  1.00  0.00     0.032 A 
HETATM   16  H   UNL     1      35.721  49.835  40.423  1.00  0.00     0.167 HD
HETATM   17  C   UNL     1      31.998  48.591  42.060  1.00  0.00     0.002 A 
HETATM   18  C   UNL     1      31.604  49.546  43.001  1.00  0.00     0.002 A 
ENDBRANCH   7   9
ENDBRANCH   6   7
ENDBRANCH   5   6
ENDBRANCH   1   5
BRANCH   2  19
HETATM   19  C   UNL     1      31.710  52.754  40.267  1.00  0.00     0.034 A 
HETATM   20  C   UNL     1      30.742  53.272  41.130  1.00  0.00     0.030 A 
HETATM   21  C   UNL     1      29.506  52.627  41.284  1.00  0.00     0.019 A 
HETATM   22  C   UNL     1      29.222  51.463  40.562  1.00  0.00     0.032 A 
HETATM   23  C   UNL     1      30.192  50.938  39.705  1.00  0.00     0.019 A 
HETATM   24  C   UNL     1      31.424  51.581  39.557  1.00  0.00     0.030 A 
BRANCH  22  25
HETATM   25  C   UNL     1      27.927  50.738  40.688  1.00  0.00     0.251 C 
HETATM   26  N   UNL     1      27.282  50.417  39.512  1.00  0.00    -0.361 N 
HETATM   27  C   UNL     1      26.018  49.725  39.505  1.00  0.00     0.149 C 
HETATM   28  H   UNL     1      27.707  50.639  38.623  1.00  0.00     0.162 HD
HETATM   29  O   UNL     1      27.503  50.434  41.797  1.00  0.00    -0.268 OA
ENDBRANCH  22  25
ENDBRANCH   2  19
TORSDOF 6
ENDMDL
MODEL 8
REMARK VINA RESULT:      -8.1      2.744     10.292
REMARK  6 active torsions:
REMARK  status: ('A' for Active; 'I' for Inactive)
REMARK    1  A    between atoms: C_2  and  S_3 
REMARK    2  A    between atoms: C_2  and  C_18 
REMARK    3  A    between atoms: S_3  and  C_4 
REMARK    4  A    between atoms: C_4  and  C_5 
REMARK       I    between atoms: C_5  and  N_6 
REMARK    5  A    between atoms: N_6  and  C_7 
REMARK    6  A    between atoms: C_10  and  C_11 
REMARK       I    between atoms: C_11  and  N_12 
ROOT
HETATM    1  C   UNL     1      25.229  46.967  50.702  1.00  0.00     0.231 C 
HETATM    2  N   UNL     1      24.614  47.078  49.466  1.00  0.00    -0.327 N 
HETATM    3  O   UNL     1      24.995  47.655  51.694  1.00  0.00    -0.272 OA
HETATM    4  H   UNL     1      24.771  46.323  48.810  1.00  0.00     0.169 HD
ENDROOT
BRANCH   1   5
HETATM    5  C   UNL     1      26.305  45.887  50.727  1.00  0.00     0.177 C 
BRANCH   5   6
HETATM    6  S   UNL     1      25.784  44.401  51.644  1.00  0.00    -0.147 SA
BRANCH   6   7
HETATM    7  C   UNL     1      27.331  43.410  51.688  1.00  0.00     0.113 C 
HETATM    8  C   UNL     1      27.054  41.919  51.507  1.00  0.00     0.029 C 
BRANCH   7   9
HETATM    9  C   UNL     1      28.159  43.697  52.901  1.00  0.00     0.118 A 
HETATM   10  N   UNL     1      29.182  42.998  53.357  1.00  0.00    -0.232 NA
HETATM   11  C   UNL     1      29.630  43.677  54.468  1.00  0.00     0.085 A 
HETATM   12  C   UNL     1      28.853  44.804  54.707  1.00  0.00     0.062 A 
HETATM   13  C   UNL     1      30.692  43.384  55.334  1.00  0.00     0.034 A 
HETATM   14  N   UNL     1      27.924  44.793  53.701  1.00  0.00    -0.342 N 
HETATM   15  C   UNL     1      29.065  45.670  55.780  1.00  0.00     0.032 A 
HETATM   16  H   UNL     1      27.163  45.448  53.588  1.00  0.00     0.167 HD
HETATM   17  C   UNL     1      30.126  45.359  56.637  1.00  0.00     0.002 A 
HETATM   18  C   UNL     1      30.928  44.235  56.422  1.00  0.00     0.002 A 
ENDBRANCH   7   9
ENDBRANCH   6   7
ENDBRANCH   5   6
ENDBRANCH   1   5
BRANCH   2  19
HETATM   19  C   UNL     1      23.637  48.012  49.068  1.00  0.00     0.034 A 
HETATM   20  C   UNL     1      23.894  49.363  48.824  1.00  0.00     0.030 A 
HETATM   21  C   UNL     1      22.860  50.228  48.440  1.00  0.00     0.019 A 
HETATM   22  C   UNL     1      21.558  49.743  48.279  1.00  0.00     0.032 A 
HETATM   23  C   UNL     1      21.296  48.394  48.530  1.00  0.00     0.019 A 
HETATM   24  C   UNL     1      22.329  47.536  48.918  1.00  0.00     0.030 A 
BRANCH  22  25
HETATM   25  C   UNL     1      20.422  50.617  47.873  1.00  0.00     0.251 C 
HETATM   26  N   UNL     1      20.113  51.660  48.721  1.00  0.00    -0.361 N 
HETATM   27  C   UNL     1      19.028  52.568  48.441  1.00  0.00     0.149 C 
HETATM   28  H   UNL     1      20.669  51.825  49.548  1.00  0.00     0.162 HD
HETATM   29  O   UNL     1      19.834  50.405  46.819  1.00  0.00    -0.268 OA
ENDBRANCH  22  25
ENDBRANCH   2  19
TORSDOF 6
ENDMDL
MODEL 9
REMARK VINA RESULT:      -7.9      7.965     11.972
REMARK  6 active torsions:
REMARK  status: ('A' for Active; 'I' for Inactive)
REMARK    1  A    between atoms: C_2  and  S_3 
REMARK    2  A    between atoms: C_2  and  C_18 
REMARK    3  A    between atoms: S_3  and  C_4 
REMARK    4  A    between atoms: C_4  and  C_5 
REMARK       I    between atoms: C_5  and  N_6 
REMARK    5  A    between atoms: N_6  and  C_7 
REMARK    6  A    between atoms: C_10  and  C_11 
REMARK       I    between atoms: C_11  and  N_12 
ROOT
HETATM    1  C   UNL     1      16.640  51.667  48.597  1.00  0.00     0.231 C 
HETATM    2  N   UNL     1      17.574  51.307  49.554  1.00  0.00    -0.327 N 
HETATM    3  O   UNL     1      16.781  51.584  47.379  1.00  0.00    -0.272 OA
HETATM    4  H   UNL     1      17.247  51.250  50.511  1.00  0.00     0.169 HD
ENDROOT
BRANCH   1   5
HETATM    5  C   UNL     1      15.365  52.239  49.206  1.00  0.00     0.177 C 
BRANCH   5   6
HETATM    6  S   UNL     1      15.671  53.742  50.190  1.00  0.00    -0.147 SA
BRANCH   6   7
HETATM    7  C   UNL     1      14.102  53.916  51.130  1.00  0.00     0.113 C 
HETATM    8  C   UNL     1      12.900  54.072  50.200  1.00  0.00     0.029 C 
BRANCH   7   9
HETATM    9  C   UNL     1      14.172  54.995  52.164  1.00  0.00     0.118 A 
HETATM   10  N   UNL     1      13.174  55.501  52.864  1.00  0.00    -0.232 NA
HETATM   11  C   UNL     1      13.742  56.434  53.702  1.00  0.00     0.085 A 
HETATM   12  C   UNL     1      15.114  56.514  53.496  1.00  0.00     0.062 A 
HETATM   13  C   UNL     1      13.146  57.264  54.661  1.00  0.00     0.034 A 
HETATM   14  N   UNL     1      15.363  55.594  52.513  1.00  0.00    -0.342 N 
HETATM   15  C   UNL     1      15.946  57.392  54.192  1.00  0.00     0.032 A 
HETATM   16  H   UNL     1      16.257  55.415  52.079  1.00  0.00     0.167 HD
HETATM   17  C   UNL     1      15.333  58.217  55.142  1.00  0.00     0.002 A 
HETATM   18  C   UNL     1      13.957  58.157  55.375  1.00  0.00     0.002 A 
ENDBRANCH   7   9
ENDBRANCH   6   7
ENDBRANCH   5   6
ENDBRANCH   1   5
BRANCH   2  19
HETATM   19  C   UNL     1      18.880  50.820  49.348  1.00  0.00     0.034 A 
HETATM   20  C   UNL     1      19.967  51.616  48.980  1.00  0.00     0.030 A 
HETATM   21  C   UNL     1      21.234  51.047  48.785  1.00  0.00     0.019 A 
HETATM   22  C   UNL     1      21.428  49.675  48.974  1.00  0.00     0.032 A 
HETATM   23  C   UNL     1      20.340  48.875  49.332  1.00  0.00     0.019 A 
HETATM   24  C   UNL     1      19.078  49.445  49.521  1.00  0.00     0.030 A 
BRANCH  22  25
HETATM   25  C   UNL     1      22.751  49.018  48.779  1.00  0.00     0.251 C 
HETATM   26  N   UNL     1      23.205  48.228  49.815  1.00  0.00    -0.361 N 
HETATM   27  C   UNL     1      24.475  47.550  49.749  1.00  0.00     0.149 C 
HETATM   28  H   UNL     1      22.634  48.087  50.635  1.00  0.00     0.162 HD
HETATM   29  O   UNL     1      23.361  49.173  47.728  1.00  0.00    -0.268 OA
ENDBRANCH  22  25
ENDBRANCH   2  19
TORSDOF 6
ENDMDL
MODEL 10
REMARK VINA RESULT:      -7.9      1.900      2.695
REMARK  6 active torsions:
REMARK  status: ('A' for Active; 'I' for Inactive)
REMARK    1  A    between atoms: C_2  and  S_3 
REMARK    2  A    between atoms: C_2  and  C_18 
REMARK    3  A    between atoms: S_3  and  C_4 
REMARK    4  A    between atoms: C_4  and  C_5 
REMARK       I    between atoms: C_5  and  N_6 
REMARK    5  A    between atoms: N_6  and  C_7 
REMARK    6  A    between atoms: C_10  and  C_11 
REMARK       I    between atoms: C_11  and  N_12 
ROOT
HETATM    1  C   UNL     1      25.358  45.154  50.364  1.00  0.00     0.231 C 
HETATM    2  N   UNL     1      25.161  45.745  51.601  1.00  0.00    -0.327 N 
HETATM    3  O   UNL     1      26.355  44.529  50.009  1.00  0.00    -0.272 OA
HETATM    4  H   UNL     1      24.220  46.055  51.813  1.00  0.00     0.169 HD
ENDROOT
BRANCH   1   5
HETATM    5  C   UNL     1      24.189  45.381  49.411  1.00  0.00     0.177 C 
BRANCH   5   6
HETATM    6  S   UNL     1      23.665  47.125  49.350  1.00  0.00    -0.147 SA
BRANCH   6   7
HETATM    7  C   UNL     1      21.953  46.992  48.693  1.00  0.00     0.113 C 
HETATM    8  C   UNL     1      21.935  46.432  47.272  1.00  0.00     0.029 C 
BRANCH   7   9
HETATM    9  C   UNL     1      21.193  48.275  48.815  1.00  0.00     0.118 A 
HETATM   10  N   UNL     1      21.333  49.362  48.080  1.00  0.00    -0.232 NA
HETATM   11  C   UNL     1      20.394  50.252  48.550  1.00  0.00     0.085 A 
HETATM   12  C   UNL     1      19.677  49.704  49.607  1.00  0.00     0.062 A 
HETATM   13  C   UNL     1      20.100  51.557  48.131  1.00  0.00     0.034 A 
HETATM   14  N   UNL     1      20.205  48.450  49.758  1.00  0.00    -0.342 N 
HETATM   15  C   UNL     1      18.673  50.389  50.292  1.00  0.00     0.032 A 
HETATM   16  H   UNL     1      19.950  47.780  50.471  1.00  0.00     0.167 HD
HETATM   17  C   UNL     1      18.397  51.692  49.863  1.00  0.00     0.002 A 
HETATM   18  C   UNL     1      19.097  52.270  48.801  1.00  0.00     0.002 A 
ENDBRANCH   7   9
ENDBRANCH   6   7
ENDBRANCH   5   6
ENDBRANCH   1   5
BRANCH   2  19
HETATM   19  C   UNL     1      26.059  45.799  52.686  1.00  0.00     0.034 A 
HETATM   20  C   UNL     1      26.446  46.977  53.327  1.00  0.00     0.030 A 
HETATM   21  C   UNL     1      27.353  46.943  54.396  1.00  0.00     0.019 A 
HETATM   22  C   UNL     1      27.870  45.722  54.843  1.00  0.00     0.032 A 
HETATM   23  C   UNL     1      27.491  44.542  54.197  1.00  0.00     0.019 A 
HETATM   24  C   UNL     1      26.590  44.582  53.130  1.00  0.00     0.030 A 
BRANCH  22  25
HETATM   25  C   UNL     1      28.837  45.627  55.972  1.00  0.00     0.251 C 
HETATM   26  N   UNL     1      29.884  44.743  55.815  1.00  0.00    -0.361 N 
HETATM   27  C   UNL     1      30.878  44.556  56.842  1.00  0.00     0.149 C 
HETATM   28  H   UNL     1      29.989  44.227  54.953  1.00  0.00     0.162 HD
HETATM   29  O   UNL     1      28.692  46.335  56.962  1.00  0.00    -0.268 OA
ENDBRANCH  22  25
ENDBRANCH   2  19
TORSDOF 6
ENDMDL
