MODEL 1
REMARK VINA RESULT:     -11.8      0.000      0.000
REMARK  3 active torsions:
REMARK  status: ('A' for Active; 'I' for Inactive)
REMARK    1  A    between atoms: C_4  and  N_5 
REMARK    2  A    between atoms: N_5  and  C_6 
REMARK    3  A    between atoms: C_13  and  C_14 
ROOT
HETATM    1  C   UNL     1      25.347  46.748  50.683  1.00  0.00     0.741 A 
HETATM    2  N   UNL     1      24.126  47.215  50.370  1.00  0.00    -0.066 NA
HETATM    3  C   UNL     1      24.027  48.270  49.533  1.00  0.00     0.069 A 
HETATM    4  C   UNL     1      25.135  48.871  48.983  1.00  0.00     0.053 A 
HETATM    5  C   UNL     1      25.021  50.001  48.048  1.00  0.00     0.163 C 
HETATM    6  O   UNL     1      26.034  50.495  47.564  1.00  0.00    -0.292 OA
HETATM    7  C   UNL     1      23.632  50.464  47.664  1.00  0.00     0.093 C 
HETATM    8  C   UNL     1      22.622  50.206  48.788  1.00  0.00     0.031 C 
HETATM    9  C   UNL     1      22.636  48.723  49.188  1.00  0.00     0.070 C 
HETATM   10  C   UNL     1      26.348  48.345  49.352  1.00  0.00     0.153 A 
HETATM   11  N   UNL     1      26.477  47.293  50.195  1.00  0.00    -0.073 NA
ENDROOT
BRANCH   1  12
HETATM   12  N   UNL     1      25.516  45.663  51.514  1.00  0.00    -0.015 N 
HETATM   13  H   UNL     1      24.722  45.054  51.565  1.00  0.00     0.203 HD
BRANCH  12  14
HETATM   14  C   UNL     1      26.542  45.315  52.367  1.00  0.00     0.742 A 
HETATM   15  N   UNL     1      26.640  46.057  53.481  1.00  0.00    -0.066 NA
HETATM   16  C   UNL     1      27.634  45.767  54.352  1.00  0.00     0.062 A 
HETATM   17  C   UNL     1      27.698  46.639  55.573  1.00  0.00     0.072 C 
HETATM   18  C   UNL     1      28.549  44.731  54.138  1.00  0.00     0.018 A 
HETATM   19  C   UNL     1      28.354  44.020  52.952  1.00  0.00     0.088 A 
HETATM   20  C   UNL     1      29.612  44.371  55.005  1.00  0.00     0.016 A 
HETATM   21  N   UNL     1      27.376  44.306  52.090  1.00  0.00    -0.062 NA
HETATM   22  C   UNL     1      29.214  42.969  52.655  1.00  0.00     0.033 A 
HETATM   23  C   UNL     1      30.262  42.611  53.506  1.00  0.00     0.002 A 
HETATM   24  C   UNL     1      30.463  43.314  54.686  1.00  0.00     0.001 A 
ENDBRANCH  12  14
ENDBRANCH   1  12
BRANCH   8  25
HETATM   25  C   UNL     1      21.228  50.673  48.412  1.00  0.00    -0.053 A 
HETATM   26  C   UNL     1      20.546  51.646  49.160  1.00  0.00     0.007 A 
HETATM   27  C   UNL     1      19.270  52.068  48.786  1.00  0.00     0.001 A 
HETATM   28  C   UNL     1      18.654  51.523  47.662  1.00  0.00     0.000 A 
HETATM   29  C   UNL     1      19.315  50.553  46.912  1.00  0.00     0.001 A 
HETATM   30  C   UNL     1      20.593  50.130  47.284  1.00  0.00     0.007 A 
ENDBRANCH   8  25
TORSDOF 3
ENDMDL
MODEL 2
REMARK VINA RESULT:     -11.5      0.670      2.092
REMARK  3 active torsions:
REMARK  status: ('A' for Active; 'I' for Inactive)
REMARK    1  A    between atoms: C_4  and  N_5 
REMARK    2  A    between atoms: N_5  and  C_6 
REMARK    3  A    between atoms: C_13  and  C_14 
ROOT
HETATM    1  C   UNL     1      25.685  46.529  50.801  1.00  0.00     0.741 A 
HETATM    2  N   UNL     1      24.459  47.027  50.574  1.00  0.00    -0.066 NA
HETATM    3  C   UNL     1      24.329  48.084  49.743  1.00  0.00     0.069 A 
HETATM    4  C   UNL     1      25.410  48.655  49.114  1.00  0.00     0.053 A 
HETATM    5  C   UNL     1      25.261  49.786  48.186  1.00  0.00     0.163 C 
HETATM    6  O   UNL     1      26.250  50.252  47.630  1.00  0.00    -0.292 OA
HETATM    7  C   UNL     1      23.861  50.285  47.900  1.00  0.00     0.093 C 
HETATM    8  C   UNL     1      22.927  50.055  49.093  1.00  0.00     0.031 C 
HETATM    9  C   UNL     1      22.929  48.573  49.496  1.00  0.00     0.070 C 
HETATM   10  C   UNL     1      26.632  48.097  49.399  1.00  0.00     0.153 A 
HETATM   11  N   UNL     1      26.792  47.043  50.233  1.00  0.00    -0.073 NA
ENDROOT
BRANCH   1  12
HETATM   12  N   UNL     1      25.884  45.441  51.623  1.00  0.00    -0.015 N 
HETATM   13  H   UNL     1      25.136  44.774  51.613  1.00  0.00     0.203 HD
BRANCH  12  14
HETATM   14  C   UNL     1      26.880  45.150  52.531  1.00  0.00     0.742 A 
HETATM   15  N   UNL     1      27.660  44.104  52.213  1.00  0.00    -0.066 NA
HETATM   16  C   UNL     1      28.649  43.766  53.071  1.00  0.00     0.062 A 
HETATM   17  C   UNL     1      29.479  42.583  52.665  1.00  0.00     0.072 C 
HETATM   18  C   UNL     1      28.890  44.461  54.261  1.00  0.00     0.018 A 
HETATM   19  C   UNL     1      28.025  45.533  54.492  1.00  0.00     0.088 A 
HETATM   20  C   UNL     1      29.906  44.164  55.204  1.00  0.00     0.016 A 
HETATM   21  N   UNL     1      27.046  45.867  53.648  1.00  0.00    -0.062 NA
HETATM   22  C   UNL     1      28.189  46.285  55.649  1.00  0.00     0.033 A 
HETATM   23  C   UNL     1      29.188  45.996  56.581  1.00  0.00     0.002 A 
HETATM   24  C   UNL     1      30.051  44.931  56.358  1.00  0.00     0.001 A 
ENDBRANCH  12  14
ENDBRANCH   1  12
BRANCH   8  25
HETATM   25  C   UNL     1      21.522  50.559  48.815  1.00  0.00    -0.053 A 
HETATM   26  C   UNL     1      20.931  50.439  47.547  1.00  0.00     0.007 A 
HETATM   27  C   UNL     1      19.632  50.898  47.320  1.00  0.00     0.001 A 
HETATM   28  C   UNL     1      18.907  51.485  48.354  1.00  0.00     0.000 A 
HETATM   29  C   UNL     1      19.481  51.616  49.616  1.00  0.00     0.001 A 
HETATM   30  C   UNL     1      20.780  51.156  49.846  1.00  0.00     0.007 A 
ENDBRANCH   8  25
TORSDOF 3
ENDMDL
MODEL 3
REMARK VINA RESULT:     -11.2      2.601     10.008
REMARK  3 active torsions:
REMARK  status: ('A' for Active; 'I' for Inactive)
REMARK    1  A    between atoms: C_4  and  N_5 
REMARK    2  A    between atoms: N_5  and  C_6 
REMARK    3  A    between atoms: C_13  and  C_14 
ROOT
HETATM    1  C   UNL     1      25.711  44.571  51.216  1.00  0.00     0.741 A 
HETATM    2  N   UNL     1      26.487  44.937  52.251  1.00  0.00    -0.066 NA
HETATM    3  C   UNL     1      27.492  44.120  52.632  1.00  0.00     0.069 A 
HETATM    4  C   UNL     1      27.755  42.935  51.985  1.00  0.00     0.053 A 
HETATM    5  C   UNL     1      28.870  42.064  52.384  1.00  0.00     0.163 C 
HETATM    6  O   UNL     1      29.082  41.025  51.767  1.00  0.00    -0.292 OA
HETATM    7  C   UNL     1      29.766  42.532  53.511  1.00  0.00     0.093 C 
HETATM    8  C   UNL     1      29.004  43.419  54.502  1.00  0.00     0.031 C 
HETATM    9  C   UNL     1      28.350  44.600  53.769  1.00  0.00     0.070 C 
HETATM   10  C   UNL     1      26.918  42.624  50.942  1.00  0.00     0.153 A 
HETATM   11  N   UNL     1      25.898  43.420  50.544  1.00  0.00    -0.073 NA
ENDROOT
BRANCH   1  12
HETATM   12  N   UNL     1      24.682  45.367  50.766  1.00  0.00    -0.015 N 
HETATM   13  H   UNL     1      23.771  44.961  50.866  1.00  0.00     0.203 HD
BRANCH  12  14
HETATM   14  C   UNL     1      24.682  46.581  50.112  1.00  0.00     0.742 A 
HETATM   15  N   UNL     1      25.890  47.141  49.941  1.00  0.00    -0.066 NA
HETATM   16  C   UNL     1      25.952  48.337  49.312  1.00  0.00     0.062 A 
HETATM   17  C   UNL     1      27.329  48.916  49.160  1.00  0.00     0.072 C 
HETATM   18  C   UNL     1      24.817  49.002  48.835  1.00  0.00     0.018 A 
HETATM   19  C   UNL     1      23.614  48.330  49.061  1.00  0.00     0.088 A 
HETATM   20  C   UNL     1      24.807  50.253  48.169  1.00  0.00     0.016 A 
HETATM   21  N   UNL     1      23.550  47.151  49.684  1.00  0.00    -0.062 NA
HETATM   22  C   UNL     1      22.432  48.912  48.620  1.00  0.00     0.033 A 
HETATM   23  C   UNL     1      22.417  50.145  47.963  1.00  0.00     0.002 A 
HETATM   24  C   UNL     1      23.609  50.819  47.736  1.00  0.00     0.001 A 
ENDBRANCH  12  14
ENDBRANCH   1  12
BRANCH   8  25
HETATM   25  C   UNL     1      29.894  43.888  55.639  1.00  0.00    -0.053 A 
HETATM   26  C   UNL     1      29.709  45.135  56.258  1.00  0.00     0.007 A 
HETATM   27  C   UNL     1      30.533  45.538  57.310  1.00  0.00     0.001 A 
HETATM   28  C   UNL     1      31.555  44.704  57.757  1.00  0.00     0.000 A 
HETATM   29  C   UNL     1      31.754  43.466  57.150  1.00  0.00     0.001 A 
HETATM   30  C   UNL     1      30.931  43.061  56.098  1.00  0.00     0.007 A 
ENDBRANCH   8  25
TORSDOF 3
ENDMDL
MODEL 4
REMARK VINA RESULT:     -10.8      5.114      9.199
REMARK  3 active torsions:
REMARK  status: ('A' for Active; 'I' for Inactive)
REMARK    1  A    between atoms: C_4  and  N_5 
REMARK    2  A    between atoms: N_5  and  C_6 
REMARK    3  A    between atoms: C_13  and  C_14 
ROOT
HETATM    1  C   UNL     1      26.472  44.047  51.010  1.00  0.00     0.741 A 
HETATM    2  N   UNL     1      27.341  43.805  52.006  1.00  0.00    -0.066 NA
HETATM    3  C   UNL     1      27.374  44.648  53.061  1.00  0.00     0.069 A 
HETATM    4  C   UNL     1      26.537  45.736  53.152  1.00  0.00     0.053 A 
HETATM    5  C   UNL     1      26.555  46.634  54.316  1.00  0.00     0.163 C 
HETATM    6  O   UNL     1      25.777  47.581  54.367  1.00  0.00    -0.292 OA
HETATM    7  C   UNL     1      27.498  46.300  55.453  1.00  0.00     0.093 C 
HETATM    8  C   UNL     1      28.743  45.559  54.950  1.00  0.00     0.031 C 
HETATM    9  C   UNL     1      28.336  44.304  54.163  1.00  0.00     0.070 C 
HETATM   10  C   UNL     1      25.681  45.924  52.094  1.00  0.00     0.153 A 
HETATM   11  N   UNL     1      25.633  45.100  51.021  1.00  0.00    -0.073 NA
ENDROOT
BRANCH   1  12
HETATM   12  N   UNL     1      26.376  43.217  49.916  1.00  0.00    -0.015 N 
HETATM   13  H   UNL     1      25.593  43.408  49.320  1.00  0.00     0.203 HD
BRANCH  12  14
HETATM   14  C   UNL     1      27.103  42.105  49.543  1.00  0.00     0.742 A 
HETATM   15  N   UNL     1      27.239  41.926  48.220  1.00  0.00    -0.066 NA
HETATM   16  C   UNL     1      27.936  40.848  47.793  1.00  0.00     0.062 A 
HETATM   17  C   UNL     1      28.045  40.697  46.304  1.00  0.00     0.072 C 
HETATM   18  C   UNL     1      28.517  39.926  48.672  1.00  0.00     0.018 A 
HETATM   19  C   UNL     1      28.318  40.210  50.025  1.00  0.00     0.088 A 
HETATM   20  C   UNL     1      29.259  38.778  48.297  1.00  0.00     0.016 A 
HETATM   21  N   UNL     1      27.629  41.272  50.447  1.00  0.00    -0.062 NA
HETATM   22  C   UNL     1      28.861  39.351  50.973  1.00  0.00     0.033 A 
HETATM   23  C   UNL     1      29.593  38.218  50.609  1.00  0.00     0.002 A 
HETATM   24  C   UNL     1      29.793  37.930  49.266  1.00  0.00     0.001 A 
ENDBRANCH  12  14
ENDBRANCH   1  12
BRANCH   8  25
HETATM   25  C   UNL     1      29.696  45.225  56.083  1.00  0.00    -0.053 A 
HETATM   26  C   UNL     1      29.679  45.932  57.297  1.00  0.00     0.007 A 
HETATM   27  C   UNL     1      30.557  45.597  58.329  1.00  0.00     0.001 A 
HETATM   28  C   UNL     1      31.466  44.556  58.164  1.00  0.00     0.000 A 
HETATM   29  C   UNL     1      31.499  43.849  56.964  1.00  0.00     0.001 A 
HETATM   30  C   UNL     1      30.621  44.181  55.930  1.00  0.00     0.007 A 
ENDBRANCH   8  25
TORSDOF 3
ENDMDL
MODEL 5
REMARK VINA RESULT:     -10.4      4.793      9.131
REMARK  3 active torsions:
REMARK  status: ('A' for Active; 'I' for Inactive)
REMARK    1  A    between atoms: C_4  and  N_5 
REMARK    2  A    between atoms: N_5  and  C_6 
REMARK    3  A    between atoms: C_13  and  C_14 
ROOT
HETATM    1  C   UNL     1      25.970  45.361  50.939  1.00  0.00     0.741 A 
HETATM    2  N   UNL     1      26.877  44.828  51.774  1.00  0.00    -0.066 NA
HETATM    3  C   UNL     1      27.074  45.406  52.978  1.00  0.00     0.069 A 
HETATM    4  C   UNL     1      26.366  46.515  53.379  1.00  0.00     0.053 A 
HETATM    5  C   UNL     1      26.563  47.124  54.703  1.00  0.00     0.163 C 
HETATM    6  O   UNL     1      25.895  48.100  55.029  1.00  0.00    -0.292 OA
HETATM    7  C   UNL     1      27.544  46.463  55.647  1.00  0.00     0.093 C 
HETATM    8  C   UNL     1      28.664  45.748  54.883  1.00  0.00     0.031 C 
HETATM    9  C   UNL     1      28.072  44.742  53.885  1.00  0.00     0.070 C 
HETATM   10  C   UNL     1      25.461  47.009  52.472  1.00  0.00     0.153 A 
HETATM   11  N   UNL     1      25.250  46.454  51.255  1.00  0.00    -0.073 NA
ENDROOT
BRANCH   1  12
HETATM   12  N   UNL     1      25.708  44.808  49.705  1.00  0.00    -0.015 N 
HETATM   13  H   UNL     1      25.340  45.454  49.033  1.00  0.00     0.203 HD
BRANCH  12  14
HETATM   14  C   UNL     1      25.767  43.506  49.254  1.00  0.00     0.742 A 
HETATM   15  N   UNL     1      24.586  42.957  48.929  1.00  0.00    -0.066 NA
HETATM   16  C   UNL     1      24.581  41.678  48.487  1.00  0.00     0.062 A 
HETATM   17  C   UNL     1      23.230  41.118  48.150  1.00  0.00     0.072 C 
HETATM   18  C   UNL     1      25.748  40.918  48.355  1.00  0.00     0.018 A 
HETATM   19  C   UNL     1      26.920  41.587  48.716  1.00  0.00     0.088 A 
HETATM   20  C   UNL     1      25.817  39.578  47.900  1.00  0.00     0.016 A 
HETATM   21  N   UNL     1      26.927  42.848  49.154  1.00  0.00    -0.062 NA
HETATM   22  C   UNL     1      28.130  40.912  48.615  1.00  0.00     0.033 A 
HETATM   23  C   UNL     1      28.204  39.591  48.168  1.00  0.00     0.002 A 
HETATM   24  C   UNL     1      27.042  38.920  47.809  1.00  0.00     0.001 A 
ENDBRANCH  12  14
ENDBRANCH   1  12
BRANCH   8  25
HETATM   25  C   UNL     1      29.656  45.087  55.824  1.00  0.00    -0.053 A 
HETATM   26  C   UNL     1      29.933  45.614  57.095  1.00  0.00     0.007 A 
HETATM   27  C   UNL     1      30.840  44.981  57.947  1.00  0.00     0.001 A 
HETATM   28  C   UNL     1      31.483  43.815  57.541  1.00  0.00     0.000 A 
HETATM   29  C   UNL     1      31.222  43.282  56.281  1.00  0.00     0.001 A 
HETATM   30  C   UNL     1      30.315  43.913  55.427  1.00  0.00     0.007 A 
ENDBRANCH   8  25
TORSDOF 3
ENDMDL
MODEL 6
REMARK VINA RESULT:     -10.3      6.246     10.218
REMARK  3 active torsions:
REMARK  status: ('A' for Active; 'I' for Inactive)
REMARK    1  A    between atoms: C_4  and  N_5 
REMARK    2  A    between atoms: N_5  and  C_6 
REMARK    3  A    between atoms: C_13  and  C_14 
ROOT
HETATM    1  C   UNL     1      26.551  41.259  51.303  1.00  0.00     0.741 A 
HETATM    2  N   UNL     1      27.353  41.393  52.373  1.00  0.00    -0.066 NA
HETATM    3  C   UNL     1      27.525  42.620  52.909  1.00  0.00     0.069 A 
HETATM    4  C   UNL     1      26.895  43.732  52.403  1.00  0.00     0.053 A 
HETATM    5  C   UNL     1      27.062  45.062  53.009  1.00  0.00     0.163 C 
HETATM    6  O   UNL     1      26.464  46.025  52.539  1.00  0.00    -0.292 OA
HETATM    7  C   UNL     1      27.920  45.171  54.251  1.00  0.00     0.093 C 
HETATM    8  C   UNL     1      29.017  44.101  54.271  1.00  0.00     0.031 C 
HETATM    9  C   UNL     1      28.402  42.701  54.128  1.00  0.00     0.070 C 
HETATM   10  C   UNL     1      26.096  43.521  51.306  1.00  0.00     0.153 A 
HETATM   11  N   UNL     1      25.912  42.304  50.744  1.00  0.00    -0.073 NA
ENDROOT
BRANCH   1  12
HETATM   12  N   UNL     1      26.318  40.033  50.721  1.00  0.00    -0.015 N 
HETATM   13  H   UNL     1      25.594  39.498  51.161  1.00  0.00     0.203 HD
BRANCH  12  14
HETATM   14  C   UNL     1      26.966  39.366  49.703  1.00  0.00     0.742 A 
HETATM   15  N   UNL     1      28.251  39.062  49.943  1.00  0.00    -0.066 NA
HETATM   16  C   UNL     1      28.941  38.413  48.977  1.00  0.00     0.062 A 
HETATM   17  C   UNL     1      30.376  38.111  49.300  1.00  0.00     0.072 C 
HETATM   18  C   UNL     1      28.370  38.049  47.753  1.00  0.00     0.018 A 
HETATM   19  C   UNL     1      27.028  38.408  47.610  1.00  0.00     0.088 A 
HETATM   20  C   UNL     1      29.030  37.370  46.699  1.00  0.00     0.016 A 
HETATM   21  N   UNL     1      26.346  39.051  48.561  1.00  0.00    -0.062 NA
HETATM   22  C   UNL     1      26.373  38.085  46.427  1.00  0.00     0.033 A 
HETATM   23  C   UNL     1      27.020  37.416  45.385  1.00  0.00     0.002 A 
HETATM   24  C   UNL     1      28.354  37.057  45.520  1.00  0.00     0.001 A 
ENDBRANCH  12  14
ENDBRANCH   1  12
BRANCH   8  25
HETATM   25  C   UNL     1      29.886  44.207  55.512  1.00  0.00    -0.053 A 
HETATM   26  C   UNL     1      30.826  43.219  55.844  1.00  0.00     0.007 A 
HETATM   27  C   UNL     1      31.622  43.346  56.983  1.00  0.00     0.001 A 
HETATM   28  C   UNL     1      31.489  44.460  57.808  1.00  0.00     0.000 A 
HETATM   29  C   UNL     1      30.558  45.447  57.495  1.00  0.00     0.001 A 
HETATM   30  C   UNL     1      29.760  45.322  56.355  1.00  0.00     0.007 A 
ENDBRANCH   8  25
TORSDOF 3
ENDMDL
MODEL 7
REMARK VINA RESULT:     -10.2      2.469      9.470
REMARK  3 active torsions:
REMARK  status: ('A' for Active; 'I' for Inactive)
REMARK    1  A    between atoms: C_4  and  N_5 
REMARK    2  A    between atoms: N_5  and  C_6 
REMARK    3  A    between atoms: C_13  and  C_14 
ROOT
HETATM    1  C   UNL     1      23.195  45.583  49.132  1.00  0.00     0.741 A 
HETATM    2  N   UNL     1      23.878  45.941  50.232  1.00  0.00    -0.066 NA
HETATM    3  C   UNL     1      25.035  45.304  50.516  1.00  0.00     0.069 A 
HETATM    4  C   UNL     1      25.540  44.313  49.707  1.00  0.00     0.053 A 
HETATM    5  C   UNL     1      26.815  43.643  50.003  1.00  0.00     0.163 C 
HETATM    6  O   UNL     1      27.240  42.779  49.244  1.00  0.00    -0.292 OA
HETATM    7  C   UNL     1      27.595  44.111  51.213  1.00  0.00     0.093 C 
HETATM    8  C   UNL     1      26.666  44.658  52.303  1.00  0.00     0.031 C 
HETATM    9  C   UNL     1      25.776  45.774  51.736  1.00  0.00     0.070 C 
HETATM   10  C   UNL     1      24.784  43.996  48.605  1.00  0.00     0.153 A 
HETATM   11  N   UNL     1      23.618  44.613  48.301  1.00  0.00    -0.073 NA
ENDROOT
BRANCH   1  12
HETATM   12  N   UNL     1      22.019  46.206  48.776  1.00  0.00    -0.015 N 
HETATM   13  H   UNL     1      21.314  45.587  48.423  1.00  0.00     0.203 HD
BRANCH  12  14
HETATM   14  C   UNL     1      21.667  47.539  48.725  1.00  0.00     0.742 A 
HETATM   15  N   UNL     1      22.635  48.372  48.311  1.00  0.00    -0.066 NA
HETATM   16  C   UNL     1      22.351  49.693  48.247  1.00  0.00     0.062 A 
HETATM   17  C   UNL     1      23.476  50.574  47.787  1.00  0.00     0.072 C 
HETATM   18  C   UNL     1      21.099  50.215  48.590  1.00  0.00     0.018 A 
HETATM   19  C   UNL     1      20.166  49.262  49.003  1.00  0.00     0.088 A 
HETATM   20  C   UNL     1      20.732  51.584  48.548  1.00  0.00     0.016 A 
HETATM   21  N   UNL     1      20.445  47.958  49.069  1.00  0.00    -0.062 NA
HETATM   22  C   UNL     1      18.893  49.687  49.362  1.00  0.00     0.033 A 
HETATM   23  C   UNL     1      18.526  51.034  49.322  1.00  0.00     0.002 A 
HETATM   24  C   UNL     1      19.449  51.987  48.914  1.00  0.00     0.001 A 
ENDBRANCH  12  14
ENDBRANCH   1  12
BRANCH   8  25
HETATM   25  C   UNL     1      27.441  45.124  53.523  1.00  0.00    -0.053 A 
HETATM   26  C   UNL     1      27.136  46.328  54.178  1.00  0.00     0.007 A 
HETATM   27  C   UNL     1      27.856  46.728  55.305  1.00  0.00     0.001 A 
HETATM   28  C   UNL     1      28.890  45.935  55.793  1.00  0.00     0.000 A 
HETATM   29  C   UNL     1      29.208  44.740  55.151  1.00  0.00     0.001 A 
HETATM   30  C   UNL     1      28.490  44.337  54.024  1.00  0.00     0.007 A 
ENDBRANCH   8  25
TORSDOF 3
ENDMDL
MODEL 8
REMARK VINA RESULT:     -10.1      2.794      9.747
REMARK  3 active torsions:
REMARK  status: ('A' for Active; 'I' for Inactive)
REMARK    1  A    between atoms: C_4  and  N_5 
REMARK    2  A    between atoms: N_5  and  C_6 
REMARK    3  A    between atoms: C_13  and  C_14 
ROOT
HETATM    1  C   UNL     1      24.468  43.848  50.385  1.00  0.00     0.741 A 
HETATM    2  N   UNL     1      25.265  44.319  51.359  1.00  0.00    -0.066 NA
HETATM    3  C   UNL     1      26.394  43.643  51.662  1.00  0.00     0.069 A 
HETATM    4  C   UNL     1      26.759  42.497  50.994  1.00  0.00     0.053 A 
HETATM    5  C   UNL     1      28.005  41.781  51.306  1.00  0.00     0.163 C 
HETATM    6  O   UNL     1      28.303  40.774  50.672  1.00  0.00    -0.292 OA
HETATM    7  C   UNL     1      28.914  42.370  52.363  1.00  0.00     0.093 C 
HETATM    8  C   UNL     1      28.120  43.158  53.411  1.00  0.00     0.031 C 
HETATM    9  C   UNL     1      27.265  44.239  52.732  1.00  0.00     0.070 C 
HETATM   10  C   UNL     1      25.894  42.072  50.016  1.00  0.00     0.153 A 
HETATM   11  N   UNL     1      24.752  42.726  49.698  1.00  0.00    -0.073 NA
ENDROOT
BRANCH   1  12
HETATM   12  N   UNL     1      23.313  44.501  50.016  1.00  0.00    -0.015 N 
HETATM   13  H   UNL     1      22.480  43.951  50.109  1.00  0.00     0.203 HD
BRANCH  12  14
HETATM   14  C   UNL     1      23.103  45.740  49.448  1.00  0.00     0.742 A 
HETATM   15  N   UNL     1      21.949  45.875  48.775  1.00  0.00    -0.066 NA
HETATM   16  C   UNL     1      21.691  47.066  48.189  1.00  0.00     0.062 A 
HETATM   17  C   UNL     1      20.391  47.152  47.444  1.00  0.00     0.072 C 
HETATM   18  C   UNL     1      22.571  48.152  48.262  1.00  0.00     0.018 A 
HETATM   19  C   UNL     1      23.738  47.905  48.989  1.00  0.00     0.088 A 
HETATM   20  C   UNL     1      22.367  49.425  47.675  1.00  0.00     0.016 A 
HETATM   21  N   UNL     1      23.995  46.729  49.565  1.00  0.00    -0.062 NA
HETATM   22  C   UNL     1      24.672  48.925  49.117  1.00  0.00     0.033 A 
HETATM   23  C   UNL     1      24.476  50.182  48.541  1.00  0.00     0.002 A 
HETATM   24  C   UNL     1      23.319  50.434  47.816  1.00  0.00     0.001 A 
ENDBRANCH  12  14
ENDBRANCH   1  12
BRANCH   8  25
HETATM   25  C   UNL     1      29.025  43.747  54.478  1.00  0.00    -0.053 A 
HETATM   26  C   UNL     1      30.146  43.054  54.963  1.00  0.00     0.007 A 
HETATM   27  C   UNL     1      30.970  43.623  55.935  1.00  0.00     0.001 A 
HETATM   28  C   UNL     1      30.686  44.890  56.439  1.00  0.00     0.000 A 
HETATM   29  C   UNL     1      29.575  45.588  55.972  1.00  0.00     0.001 A 
HETATM   30  C   UNL     1      28.749  45.021  54.999  1.00  0.00     0.007 A 
ENDBRANCH   8  25
TORSDOF 3
ENDMDL
MODEL 9
REMARK VINA RESULT:      -9.9      2.806      9.883
REMARK  3 active torsions:
REMARK  status: ('A' for Active; 'I' for Inactive)
REMARK    1  A    between atoms: C_4  and  N_5 
REMARK    2  A    between atoms: N_5  and  C_6 
REMARK    3  A    between atoms: C_13  and  C_14 
ROOT
HETATM    1  C   UNL     1      23.086  46.915  48.947  1.00  0.00     0.741 A 
HETATM    2  N   UNL     1      24.006  47.190  49.887  1.00  0.00    -0.066 NA
HETATM    3  C   UNL     1      24.572  46.168  50.564  1.00  0.00     0.069 A 
HETATM    4  C   UNL     1      24.246  44.856  50.311  1.00  0.00     0.053 A 
HETATM    5  C   UNL     1      24.887  43.744  51.029  1.00  0.00     0.163 C 
HETATM    6  O   UNL     1      24.581  42.587  50.758  1.00  0.00    -0.292 OA
HETATM    7  C   UNL     1      25.966  44.081  52.036  1.00  0.00     0.093 C 
HETATM    8  C   UNL     1      25.735  45.459  52.666  1.00  0.00     0.031 C 
HETATM    9  C   UNL     1      25.623  46.534  51.574  1.00  0.00     0.070 C 
HETATM   10  C   UNL     1      23.294  44.651  49.342  1.00  0.00     0.153 A 
HETATM   11  N   UNL     1      22.705  45.657  48.655  1.00  0.00    -0.073 NA
ENDROOT
BRANCH   1  12
HETATM   12  N   UNL     1      22.485  47.910  48.209  1.00  0.00    -0.015 N 
HETATM   13  H   UNL     1      23.044  48.258  47.453  1.00  0.00     0.203 HD
BRANCH  12  14
HETATM   14  C   UNL     1      21.294  48.584  48.380  1.00  0.00     0.742 A 
HETATM   15  N   UNL     1      20.220  47.808  48.593  1.00  0.00    -0.066 NA
HETATM   16  C   UNL     1      19.022  48.414  48.759  1.00  0.00     0.062 A 
HETATM   17  C   UNL     1      17.859  47.493  48.983  1.00  0.00     0.072 C 
HETATM   18  C   UNL     1      18.865  49.803  48.722  1.00  0.00     0.018 A 
HETATM   19  C   UNL     1      20.046  50.515  48.499  1.00  0.00     0.088 A 
HETATM   20  C   UNL     1      17.645  50.504  48.889  1.00  0.00     0.016 A 
HETATM   21  N   UNL     1      21.229  49.919  48.332  1.00  0.00    -0.062 NA
HETATM   22  C   UNL     1      19.989  51.903  48.449  1.00  0.00     0.033 A 
HETATM   23  C   UNL     1      18.788  52.598  48.612  1.00  0.00     0.002 A 
HETATM   24  C   UNL     1      17.611  51.897  48.833  1.00  0.00     0.001 A 
ENDBRANCH  12  14
ENDBRANCH   1  12
BRANCH   8  25
HETATM   25  C   UNL     1      26.811  45.802  53.682  1.00  0.00    -0.053 A 
HETATM   26  C   UNL     1      26.965  47.103  54.185  1.00  0.00     0.007 A 
HETATM   27  C   UNL     1      27.953  47.390  55.128  1.00  0.00     0.001 A 
HETATM   28  C   UNL     1      28.802  46.383  55.580  1.00  0.00     0.000 A 
HETATM   29  C   UNL     1      28.665  45.088  55.087  1.00  0.00     0.001 A 
HETATM   30  C   UNL     1      27.676  44.798  54.144  1.00  0.00     0.007 A 
ENDBRANCH   8  25
TORSDOF 3
ENDMDL
MODEL 10
REMARK VINA RESULT:      -9.7      3.165      9.911
REMARK  3 active torsions:
REMARK  status: ('A' for Active; 'I' for Inactive)
REMARK    1  A    between atoms: C_4  and  N_5 
REMARK    2  A    between atoms: N_5  and  C_6 
REMARK    3  A    between atoms: C_13  and  C_14 
ROOT
HETATM    1  C   UNL     1      24.774  42.780  50.442  1.00  0.00     0.741 A 
HETATM    2  N   UNL     1      25.494  43.462  51.349  1.00  0.00    -0.066 NA
HETATM    3  C   UNL     1      26.647  42.926  51.803  1.00  0.00     0.069 A 
HETATM    4  C   UNL     1      27.113  41.712  51.355  1.00  0.00     0.053 A 
HETATM    5  C   UNL     1      28.385  41.145  51.829  1.00  0.00     0.163 C 
HETATM    6  O   UNL     1      28.774  40.069  51.387  1.00  0.00    -0.292 OA
HETATM    7  C   UNL     1      29.205  41.965  52.801  1.00  0.00     0.093 C 
HETATM    8  C   UNL     1      28.316  42.862  53.670  1.00  0.00     0.031 C 
HETATM    9  C   UNL     1      27.429  43.751  52.786  1.00  0.00     0.070 C 
HETATM   10  C   UNL     1      26.322  41.070  50.433  1.00  0.00     0.153 A 
HETATM   11  N   UNL     1      25.158  41.580  49.968  1.00  0.00    -0.073 NA
ENDROOT
BRANCH   1  12
HETATM   12  N   UNL     1      23.599  43.280  49.926  1.00  0.00    -0.015 N 
HETATM   13  H   UNL     1      22.896  42.588  49.755  1.00  0.00     0.203 HD
BRANCH  12  14
HETATM   14  C   UNL     1      23.249  44.547  49.509  1.00  0.00     0.742 A 
HETATM   15  N   UNL     1      24.148  45.508  49.774  1.00  0.00    -0.066 NA
HETATM   16  C   UNL     1      23.855  46.774  49.395  1.00  0.00     0.062 A 
HETATM   17  C   UNL     1      24.894  47.804  49.728  1.00  0.00     0.072 C 
HETATM   18  C   UNL     1      22.665  47.112  48.741  1.00  0.00     0.018 A 
HETATM   19  C   UNL     1      21.804  46.036  48.510  1.00  0.00     0.088 A 
HETATM   20  C   UNL     1      22.293  48.411  48.316  1.00  0.00     0.016 A 
HETATM   21  N   UNL     1      22.090  44.788  48.886  1.00  0.00    -0.062 NA
HETATM   22  C   UNL     1      20.598  46.275  47.863  1.00  0.00     0.033 A 
HETATM   23  C   UNL     1      20.227  47.554  47.442  1.00  0.00     0.002 A 
HETATM   24  C   UNL     1      21.078  48.628  47.669  1.00  0.00     0.001 A 
ENDBRANCH  12  14
ENDBRANCH   1  12
BRANCH   8  25
HETATM   25  C   UNL     1      29.132  43.683  54.652  1.00  0.00    -0.053 A 
HETATM   26  C   UNL     1      30.344  43.213  55.182  1.00  0.00     0.007 A 
HETATM   27  C   UNL     1      31.082  43.992  56.074  1.00  0.00     0.001 A 
HETATM   28  C   UNL     1      30.620  45.251  56.451  1.00  0.00     0.000 A 
HETATM   29  C   UNL     1      29.418  45.730  55.937  1.00  0.00     0.001 A 
HETATM   30  C   UNL     1      28.677  44.952  55.044  1.00  0.00     0.007 A 
ENDBRANCH   8  25
TORSDOF 3
ENDMDL
