MODEL 1
REMARK VINA RESULT:      -7.6      0.000      0.000
REMARK  5 active torsions:
REMARK  status: ('A' for Active; 'I' for Inactive)
REMARK    1  A    between atoms: C_2  and  O_3 
REMARK    2  A    between atoms: C_4  and  C_5 
REMARK    3  A    between atoms: C_5  and  O_6 
REMARK    4  A    between atoms: C_9  and  C_10 
REMARK    5  A    between atoms: C_22  and  O_23 
ROOT
HETATM    1  C   UNL     1      32.041  52.559  39.502  1.00  0.00     0.047 C 
HETATM    2  C   UNL     1      30.697  51.881  39.813  1.00  0.00     0.073 C 
HETATM    3  C   UNL     1      30.446  51.797  41.355  1.00  0.00     0.133 C 
HETATM    4  C   UNL     1      31.201  50.682  42.141  1.00  0.00     0.074 C 
HETATM    5  C   UNL     1      31.505  49.504  41.281  1.00  0.00     0.030 A 
HETATM    6  C   UNL     1      31.249  49.450  39.927  1.00  0.00     0.042 A 
HETATM    7  N   UNL     1      31.612  48.203  39.504  1.00  0.00    -0.279 N 
HETATM    8  H   UNL     1      31.553  47.807  38.569  1.00  0.00     0.189 HD
HETATM    9  N   UNL     1      32.079  47.426  40.504  1.00  0.00    -0.149 NA
HETATM   10  C   UNL     1      31.979  48.222  41.562  1.00  0.00     0.190 A 
HETATM   11  C   UNL     1      30.625  50.504  39.095  1.00  0.00     0.097 C 
ENDROOT
BRANCH   4  12
HETATM   12  C   UNL     1      32.491  51.180  42.791  1.00  0.00    -0.048 A 
HETATM   13  C   UNL     1      33.684  51.056  42.047  1.00  0.00     0.009 A 
HETATM   14  C   UNL     1      34.910  51.478  42.567  1.00  0.00     0.024 A 
HETATM   15  C   UNL     1      34.966  52.025  43.844  1.00  0.00     0.034 A 
HETATM   16 CL   UNL     1      36.474  52.546  44.488  1.00  0.00    -0.084 Cl
HETATM   17  C   UNL     1      33.808  52.154  44.601  1.00  0.00     0.024 A 
HETATM   18  C   UNL     1      32.579  51.736  44.078  1.00  0.00     0.009 A 
ENDBRANCH   4  12
BRANCH   3  19
HETATM   19  C   UNL     1      28.959  51.687  41.639  1.00  0.00     0.266 C 
HETATM   20  O   UNL     1      28.190  52.634  41.506  1.00  0.00    -0.265 OA
BRANCH  19  21
HETATM   21  O   UNL     1      28.590  50.443  42.039  1.00  0.00    -0.326 OA
HETATM   22  C   UNL     1      27.632  49.809  41.191  1.00  0.00     0.213 C 
ENDBRANCH  19  21
ENDBRANCH   3  19
BRANCH   2  23
HETATM   23  O   UNL     1      29.707  52.728  39.198  1.00  0.00    -0.389 OA
HETATM   24  H   UNL     1      30.048  53.038  38.339  1.00  0.00     0.210 HD
ENDBRANCH   2  23
BRANCH  10  25
HETATM   25  O   UNL     1      32.338  47.679  42.719  1.00  0.00    -0.343 OA
HETATM   26  H   UNL     1      33.287  47.875  42.797  1.00  0.00     0.219 HD
ENDBRANCH  10  25
TORSDOF 5
ENDMDL
MODEL 2
REMARK VINA RESULT:      -7.5      3.682      5.632
REMARK  5 active torsions:
REMARK  status: ('A' for Active; 'I' for Inactive)
REMARK    1  A    between atoms: C_2  and  O_3 
REMARK    2  A    between atoms: C_4  and  C_5 
REMARK    3  A    between atoms: C_5  and  O_6 
REMARK    4  A    between atoms: C_9  and  C_10 
REMARK    5  A    between atoms: C_22  and  O_23 
ROOT
HETATM    1  C   UNL     1      31.884  51.725  38.616  1.00  0.00     0.047 C 
HETATM    2  C   UNL     1      32.014  52.075  40.108  1.00  0.00     0.073 C 
HETATM    3  C   UNL     1      31.958  50.792  41.001  1.00  0.00     0.133 C 
HETATM    4  C   UNL     1      30.554  50.166  41.261  1.00  0.00     0.074 C 
HETATM    5  C   UNL     1      29.470  51.185  41.199  1.00  0.00     0.030 A 
HETATM    6  C   UNL     1      29.669  52.503  40.845  1.00  0.00     0.042 A 
HETATM    7  N   UNL     1      28.460  53.130  40.954  1.00  0.00    -0.279 N 
HETATM    8  H   UNL     1      28.233  54.106  40.783  1.00  0.00     0.189 HD
HETATM    9  N   UNL     1      27.479  52.305  41.375  1.00  0.00    -0.149 NA
HETATM   10  C   UNL     1      28.117  51.153  41.538  1.00  0.00     0.190 A 
HETATM   11  C   UNL     1      30.955  53.146  40.490  1.00  0.00     0.097 C 
ENDROOT
BRANCH   4  12
HETATM   12  C   UNL     1      30.226  49.019  40.305  1.00  0.00    -0.048 A 
HETATM   13  C   UNL     1      30.896  47.794  40.505  1.00  0.00     0.009 A 
HETATM   14  C   UNL     1      30.663  46.696  39.673  1.00  0.00     0.024 A 
HETATM   15  C   UNL     1      29.762  46.806  38.620  1.00  0.00     0.034 A 
HETATM   16 CL   UNL     1      29.472  45.457  37.593  1.00  0.00    -0.084 Cl
HETATM   17  C   UNL     1      29.092  48.004  38.396  1.00  0.00     0.024 A 
HETATM   18  C   UNL     1      29.322  49.102  39.233  1.00  0.00     0.009 A 
ENDBRANCH   4  12
BRANCH   3  19
HETATM   19  C   UNL     1      32.645  51.047  42.330  1.00  0.00     0.266 C 
HETATM   20  O   UNL     1      32.036  51.428  43.325  1.00  0.00    -0.265 OA
BRANCH  19  21
HETATM   21  O   UNL     1      33.979  50.799  42.289  1.00  0.00    -0.326 OA
HETATM   22  C   UNL     1      34.343  49.644  41.532  1.00  0.00     0.213 C 
ENDBRANCH  19  21
ENDBRANCH   3  19
BRANCH   2  23
HETATM   23  O   UNL     1      33.307  52.702  40.226  1.00  0.00    -0.389 OA
HETATM   24  H   UNL     1      33.971  52.138  39.788  1.00  0.00     0.210 HD
ENDBRANCH   2  23
BRANCH  10  25
HETATM   25  O   UNL     1      27.377  50.152  42.003  1.00  0.00    -0.343 OA
HETATM   26  H   UNL     1      26.460  50.434  41.847  1.00  0.00     0.219 HD
ENDBRANCH  10  25
TORSDOF 5
ENDMDL
MODEL 3
REMARK VINA RESULT:      -7.5      2.659      3.667
REMARK  5 active torsions:
REMARK  status: ('A' for Active; 'I' for Inactive)
REMARK    1  A    between atoms: C_2  and  O_3 
REMARK    2  A    between atoms: C_4  and  C_5 
REMARK    3  A    between atoms: C_5  and  O_6 
REMARK    4  A    between atoms: C_9  and  C_10 
REMARK    5  A    between atoms: C_22  and  O_23 
ROOT
HETATM    1  C   UNL     1      27.625  52.217  40.878  1.00  0.00     0.047 C 
HETATM    2  C   UNL     1      27.529  50.968  39.985  1.00  0.00     0.073 C 
HETATM    3  C   UNL     1      28.425  49.808  40.531  1.00  0.00     0.133 C 
HETATM    4  C   UNL     1      29.956  49.898  40.255  1.00  0.00     0.074 C 
HETATM    5  C   UNL     1      30.253  50.666  39.014  1.00  0.00     0.030 A 
HETATM    6  C   UNL     1      29.297  51.312  38.258  1.00  0.00     0.042 A 
HETATM    7  N   UNL     1      29.941  51.853  37.181  1.00  0.00    -0.279 N 
HETATM    8  H   UNL     1      29.550  52.389  36.411  1.00  0.00     0.189 HD
HETATM    9  N   UNL     1      31.264  51.586  37.175  1.00  0.00    -0.149 NA
HETATM   10  C   UNL     1      31.419  50.852  38.271  1.00  0.00     0.190 A 
HETATM   11  C   UNL     1      27.839  51.353  38.511  1.00  0.00     0.097 C 
ENDROOT
BRANCH   4  12
HETATM   12  C   UNL     1      30.737  50.502  41.422  1.00  0.00    -0.048 A 
HETATM   13  C   UNL     1      31.445  49.614  42.259  1.00  0.00     0.009 A 
HETATM   14  C   UNL     1      32.178  50.079  43.353  1.00  0.00     0.024 A 
HETATM   15  C   UNL     1      32.211  51.440  43.635  1.00  0.00     0.034 A 
HETATM   16 CL   UNL     1      33.113  52.017  44.982  1.00  0.00    -0.084 Cl
HETATM   17  C   UNL     1      31.517  52.337  42.831  1.00  0.00     0.024 A 
HETATM   18  C   UNL     1      30.787  51.871  41.732  1.00  0.00     0.009 A 
ENDBRANCH   4  12
BRANCH   3  19
HETATM   19  C   UNL     1      27.907  48.469  40.037  1.00  0.00     0.266 C 
HETATM   20  O   UNL     1      28.330  47.933  39.018  1.00  0.00    -0.265 OA
BRANCH  19  21
HETATM   21  O   UNL     1      26.950  47.944  40.845  1.00  0.00    -0.326 OA
HETATM   22  C   UNL     1      26.991  46.522  40.965  1.00  0.00     0.213 C 
ENDBRANCH  19  21
ENDBRANCH   3  19
BRANCH   2  23
HETATM   23  O   UNL     1      26.140  50.586  40.037  1.00  0.00    -0.389 OA
HETATM   24  H   UNL     1      25.989  50.059  40.843  1.00  0.00     0.210 HD
ENDBRANCH   2  23
BRANCH  10  25
HETATM   25  O   UNL     1      32.650  50.405  38.488  1.00  0.00    -0.343 OA
HETATM   26  H   UNL     1      32.845  50.662  39.405  1.00  0.00     0.219 HD
ENDBRANCH  10  25
TORSDOF 5
ENDMDL
MODEL 4
REMARK VINA RESULT:      -7.2      3.702      5.594
REMARK  5 active torsions:
REMARK  status: ('A' for Active; 'I' for Inactive)
REMARK    1  A    between atoms: C_2  and  O_3 
REMARK    2  A    between atoms: C_4  and  C_5 
REMARK    3  A    between atoms: C_5  and  O_6 
REMARK    4  A    between atoms: C_9  and  C_10 
REMARK    5  A    between atoms: C_22  and  O_23 
ROOT
HETATM    1  C   UNL     1      27.679  51.272  40.473  1.00  0.00     0.047 C 
HETATM    2  C   UNL     1      29.054  51.677  39.918  1.00  0.00     0.073 C 
HETATM    3  C   UNL     1      29.733  50.490  39.157  1.00  0.00     0.133 C 
HETATM    4  C   UNL     1      30.400  49.378  40.023  1.00  0.00     0.074 C 
HETATM    5  C   UNL     1      30.866  49.900  41.337  1.00  0.00     0.030 A 
HETATM    6  C   UNL     1      30.638  51.186  41.782  1.00  0.00     0.042 A 
HETATM    7  N   UNL     1      31.257  51.302  42.995  1.00  0.00    -0.279 N 
HETATM    8  H   UNL     1      31.307  52.111  43.607  1.00  0.00     0.189 HD
HETATM    9  N   UNL     1      31.894  50.172  43.367  1.00  0.00    -0.149 NA
HETATM   10  C   UNL     1      31.664  49.357  42.344  1.00  0.00     0.190 A 
HETATM   11  C   UNL     1      29.929  52.266  41.060  1.00  0.00     0.097 C 
ENDROOT
BRANCH   4  12
HETATM   12  C   UNL     1      29.487  48.174  40.252  1.00  0.00    -0.048 A 
HETATM   13  C   UNL     1      29.746  47.009  39.499  1.00  0.00     0.009 A 
HETATM   14  C   UNL     1      28.957  45.865  39.639  1.00  0.00     0.024 A 
HETATM   15  C   UNL     1      27.889  45.867  40.529  1.00  0.00     0.034 A 
HETATM   16 CL   UNL     1      26.914  44.461  40.704  1.00  0.00    -0.084 Cl
HETATM   17  C   UNL     1      27.607  47.004  41.279  1.00  0.00     0.024 A 
HETATM   18  C   UNL     1      28.401  48.148  41.142  1.00  0.00     0.009 A 
ENDBRANCH   4  12
BRANCH   3  19
HETATM   19  C   UNL     1      30.745  51.018  38.157  1.00  0.00     0.266 C 
HETATM   20  O   UNL     1      30.416  51.623  37.142  1.00  0.00    -0.265 OA
BRANCH  19  21
HETATM   21  O   UNL     1      32.028  50.756  38.519  1.00  0.00    -0.326 OA
HETATM   22  C   UNL     1      32.817  51.917  38.783  1.00  0.00     0.213 C 
ENDBRANCH  19  21
ENDBRANCH   3  19
BRANCH   2  23
HETATM   23  O   UNL     1      28.777  52.755  39.002  1.00  0.00    -0.389 OA
HETATM   24  H   UNL     1      28.814  52.411  38.090  1.00  0.00     0.210 HD
ENDBRANCH   2  23
BRANCH  10  25
HETATM   25  O   UNL     1      32.232  48.160  42.431  1.00  0.00    -0.343 OA
HETATM   26  H   UNL     1      32.471  47.936  41.516  1.00  0.00     0.219 HD
ENDBRANCH  10  25
TORSDOF 5
ENDMDL
MODEL 5
REMARK VINA RESULT:      -6.9     13.373     15.637
REMARK  5 active torsions:
REMARK  status: ('A' for Active; 'I' for Inactive)
REMARK    1  A    between atoms: C_2  and  O_3 
REMARK    2  A    between atoms: C_4  and  C_5 
REMARK    3  A    between atoms: C_5  and  O_6 
REMARK    4  A    between atoms: C_9  and  C_10 
REMARK    5  A    between atoms: C_22  and  O_23 
ROOT
HETATM    1  C   UNL     1      17.489  52.068  46.057  1.00  0.00     0.047 C 
HETATM    2  C   UNL     1      16.396  52.010  47.138  1.00  0.00     0.073 C 
HETATM    3  C   UNL     1      17.013  52.086  48.574  1.00  0.00     0.133 C 
HETATM    4  C   UNL     1      17.658  50.785  49.143  1.00  0.00     0.074 C 
HETATM    5  C   UNL     1      17.040  49.559  48.565  1.00  0.00     0.030 A 
HETATM    6  C   UNL     1      16.088  49.571  47.567  1.00  0.00     0.042 A 
HETATM    7  N   UNL     1      15.731  48.272  47.344  1.00  0.00    -0.279 N 
HETATM    8  H   UNL     1      15.048  47.905  46.687  1.00  0.00     0.189 HD
HETATM    9  N   UNL     1      16.380  47.405  48.149  1.00  0.00    -0.149 NA
HETATM   10  C   UNL     1      17.139  48.206  48.888  1.00  0.00     0.190 A 
HETATM   11  C   UNL     1      15.499  50.761  46.911  1.00  0.00     0.097 C 
ENDROOT
BRANCH   4  12
HETATM   12  C   UNL     1      19.171  50.733  48.939  1.00  0.00    -0.048 A 
HETATM   13  C   UNL     1      19.988  51.052  50.044  1.00  0.00     0.009 A 
HETATM   14  C   UNL     1      21.381  51.038  49.944  1.00  0.00     0.024 A 
HETATM   15  C   UNL     1      21.984  50.711  48.735  1.00  0.00     0.034 A 
HETATM   16 CL   UNL     1      23.699  50.692  48.608  1.00  0.00    -0.084 Cl
HETATM   17  C   UNL     1      21.203  50.397  47.628  1.00  0.00     0.024 A 
HETATM   18  C   UNL     1      19.808  50.407  47.730  1.00  0.00     0.009 A 
ENDBRANCH   4  12
BRANCH   3  19
HETATM   19  C   UNL     1      15.982  52.604  49.561  1.00  0.00     0.266 C 
HETATM   20  O   UNL     1      14.995  51.953  49.886  1.00  0.00    -0.265 OA
BRANCH  19  21
HETATM   21  O   UNL     1      16.282  53.840  50.035  1.00  0.00    -0.326 OA
HETATM   22  C   UNL     1      15.183  54.751  50.054  1.00  0.00     0.213 C 
ENDBRANCH  19  21
ENDBRANCH   3  19
BRANCH   2  23
HETATM   23  O   UNL     1      15.575  53.168  46.892  1.00  0.00    -0.389 OA
HETATM   24  H   UNL     1      15.792  53.527  46.012  1.00  0.00     0.210 HD
ENDBRANCH   2  23
BRANCH  10  25
HETATM   25  O   UNL     1      17.868  47.601  49.819  1.00  0.00    -0.343 OA
HETATM   26  H   UNL     1      17.304  47.607  50.611  1.00  0.00     0.219 HD
ENDBRANCH  10  25
TORSDOF 5
ENDMDL
MODEL 6
REMARK VINA RESULT:      -6.9     13.501     14.826
REMARK  5 active torsions:
REMARK  status: ('A' for Active; 'I' for Inactive)
REMARK    1  A    between atoms: C_2  and  O_3 
REMARK    2  A    between atoms: C_4  and  C_5 
REMARK    3  A    between atoms: C_5  and  O_6 
REMARK    4  A    between atoms: C_9  and  C_10 
REMARK    5  A    between atoms: C_22  and  O_23 
ROOT
HETATM    1  C   UNL     1      25.792  43.405  55.112  1.00  0.00     0.047 C 
HETATM    2  C   UNL     1      25.668  44.144  53.769  1.00  0.00     0.073 C 
HETATM    3  C   UNL     1      27.050  44.235  53.040  1.00  0.00     0.133 C 
HETATM    4  C   UNL     1      28.055  45.311  53.549  1.00  0.00     0.074 C 
HETATM    5  C   UNL     1      27.359  46.476  54.164  1.00  0.00     0.030 A 
HETATM    6  C   UNL     1      25.996  46.546  54.359  1.00  0.00     0.042 A 
HETATM    7  N   UNL     1      25.734  47.776  54.892  1.00  0.00    -0.279 N 
HETATM    8  H   UNL     1      24.837  48.177  55.153  1.00  0.00     0.189 HD
HETATM    9  N   UNL     1      26.845  48.528  55.045  1.00  0.00    -0.149 NA
HETATM   10  C   UNL     1      27.800  47.734  54.577  1.00  0.00     0.190 A 
HETATM   11  C   UNL     1      24.989  45.524  53.990  1.00  0.00     0.097 C 
ENDROOT
BRANCH   4  12
HETATM   12  C   UNL     1      29.076  44.752  54.540  1.00  0.00    -0.048 A 
HETATM   13  C   UNL     1      29.696  43.528  54.212  1.00  0.00     0.009 A 
HETATM   14  C   UNL     1      30.634  42.940  55.064  1.00  0.00     0.024 A 
HETATM   15  C   UNL     1      30.964  43.562  56.263  1.00  0.00     0.034 A 
HETATM   16 CL   UNL     1      32.120  42.842  57.315  1.00  0.00    -0.084 Cl
HETATM   17  C   UNL     1      30.364  44.766  56.613  1.00  0.00     0.024 A 
HETATM   18  C   UNL     1      29.428  45.357  55.757  1.00  0.00     0.009 A 
ENDBRANCH   4  12
BRANCH   3  19
HETATM   19  C   UNL     1      26.843  44.412  51.546  1.00  0.00     0.266 C 
HETATM   20  O   UNL     1      26.768  45.516  51.017  1.00  0.00    -0.265 OA
BRANCH  19  21
HETATM   21  O   UNL     1      26.765  43.230  50.882  1.00  0.00    -0.326 OA
HETATM   22  C   UNL     1      27.749  42.269  51.265  1.00  0.00     0.213 C 
ENDBRANCH  19  21
ENDBRANCH   3  19
BRANCH   2  23
HETATM   23  O   UNL     1      24.753  43.345  52.994  1.00  0.00    -0.389 OA
HETATM   24  H   UNL     1      24.413  42.623  53.554  1.00  0.00     0.210 HD
ENDBRANCH   2  23
BRANCH  10  25
HETATM   25  O   UNL     1      29.021  48.256  54.568  1.00  0.00    -0.343 OA
HETATM   26  H   UNL     1      29.149  48.593  55.471  1.00  0.00     0.219 HD
ENDBRANCH  10  25
TORSDOF 5
ENDMDL
MODEL 7
REMARK VINA RESULT:      -6.7     11.603     13.584
REMARK  5 active torsions:
REMARK  status: ('A' for Active; 'I' for Inactive)
REMARK    1  A    between atoms: C_2  and  O_3 
REMARK    2  A    between atoms: C_4  and  C_5 
REMARK    3  A    between atoms: C_5  and  O_6 
REMARK    4  A    between atoms: C_9  and  C_10 
REMARK    5  A    between atoms: C_22  and  O_23 
ROOT
HETATM    1  C   UNL     1      20.023  47.146  46.344  1.00  0.00     0.047 C 
HETATM    2  C   UNL     1      18.915  48.206  46.470  1.00  0.00     0.073 C 
HETATM    3  C   UNL     1      19.515  49.629  46.720  1.00  0.00     0.133 C 
HETATM    4  C   UNL     1      20.002  49.953  48.165  1.00  0.00     0.074 C 
HETATM    5  C   UNL     1      19.259  49.170  49.191  1.00  0.00     0.030 A 
HETATM    6  C   UNL     1      18.329  48.195  48.895  1.00  0.00     0.042 A 
HETATM    7  N   UNL     1      17.832  47.746  50.085  1.00  0.00    -0.279 N 
HETATM    8  H   UNL     1      17.122  47.038  50.250  1.00  0.00     0.189 HD
HETATM    9  N   UNL     1      18.368  48.380  51.149  1.00  0.00    -0.149 NA
HETATM   10  C   UNL     1      19.201  49.245  50.583  1.00  0.00     0.190 A 
HETATM   11  C   UNL     1      17.887  47.765  47.549  1.00  0.00     0.097 C 
ENDROOT
BRANCH   4  12
HETATM   12  C   UNL     1      21.503  49.735  48.351  1.00  0.00    -0.048 A 
HETATM   13  C   UNL     1      22.369  50.754  47.902  1.00  0.00     0.009 A 
HETATM   14  C   UNL     1      23.755  50.634  48.025  1.00  0.00     0.024 A 
HETATM   15  C   UNL     1      24.301  49.488  48.592  1.00  0.00     0.034 A 
HETATM   16 CL   UNL     1      26.008  49.336  48.745  1.00  0.00    -0.084 Cl
HETATM   17  C   UNL     1      23.472  48.465  49.038  1.00  0.00     0.024 A 
HETATM   18  C   UNL     1      22.083  48.589  48.919  1.00  0.00     0.009 A 
ENDBRANCH   4  12
BRANCH   3  19
HETATM   19  C   UNL     1      18.534  50.698  46.273  1.00  0.00     0.266 C 
HETATM   20  O   UNL     1      17.808  51.298  47.058  1.00  0.00    -0.265 OA
BRANCH  19  21
HETATM   21  O   UNL     1      18.564  50.911  44.932  1.00  0.00    -0.326 OA
HETATM   22  C   UNL     1      17.496  51.719  44.436  1.00  0.00     0.213 C 
ENDBRANCH  19  21
ENDBRANCH   3  19
BRANCH   2  23
HETATM   23  O   UNL     1      18.232  48.175  45.201  1.00  0.00    -0.389 OA
HETATM   24  H   UNL     1      17.958  47.259  45.013  1.00  0.00     0.210 HD
ENDBRANCH   2  23
BRANCH  10  25
HETATM   25  O   UNL     1      19.844  50.050  51.422  1.00  0.00    -0.343 OA
HETATM   26  H   UNL     1      19.441  49.871  52.289  1.00  0.00     0.219 HD
ENDBRANCH  10  25
TORSDOF 5
ENDMDL
MODEL 8
REMARK VINA RESULT:      -6.6     11.775     14.605
REMARK  5 active torsions:
REMARK  status: ('A' for Active; 'I' for Inactive)
REMARK    1  A    between atoms: C_2  and  O_3 
REMARK    2  A    between atoms: C_4  and  C_5 
REMARK    3  A    between atoms: C_5  and  O_6 
REMARK    4  A    between atoms: C_9  and  C_10 
REMARK    5  A    between atoms: C_22  and  O_23 
ROOT
HETATM    1  C   UNL     1      19.572  51.764  49.438  1.00  0.00     0.047 C 
HETATM    2  C   UNL     1      20.497  50.551  49.243  1.00  0.00     0.073 C 
HETATM    3  C   UNL     1      20.756  50.272  47.725  1.00  0.00     0.133 C 
HETATM    4  C   UNL     1      19.627  49.550  46.930  1.00  0.00     0.074 C 
HETATM    5  C   UNL     1      18.799  48.676  47.808  1.00  0.00     0.030 A 
HETATM    6  C   UNL     1      18.944  48.599  49.177  1.00  0.00     0.042 A 
HETATM    7  N   UNL     1      18.053  47.662  49.619  1.00  0.00    -0.279 N 
HETATM    8  H   UNL     1      17.890  47.338  50.568  1.00  0.00     0.189 HD
HETATM    9  N   UNL     1      17.340  47.105  48.617  1.00  0.00    -0.149 NA
HETATM   10  C   UNL     1      17.826  47.713  47.541  1.00  0.00     0.190 A 
HETATM   11  C   UNL     1      19.927  49.327  50.012  1.00  0.00     0.097 C 
ENDROOT
BRANCH   4  12
HETATM   12  C   UNL     1      18.715  50.518  46.177  1.00  0.00    -0.048 A 
HETATM   13  C   UNL     1      18.729  50.462  44.768  1.00  0.00     0.009 A 
HETATM   14  C   UNL     1      17.934  51.316  44.000  1.00  0.00     0.024 A 
HETATM   15  C   UNL     1      17.115  52.248  44.628  1.00  0.00     0.034 A 
HETATM   16 CL   UNL     1      16.135  53.301  43.686  1.00  0.00    -0.084 Cl
HETATM   17  C   UNL     1      17.086  52.329  46.015  1.00  0.00     0.024 A 
HETATM   18  C   UNL     1      17.879  51.470  46.784  1.00  0.00     0.009 A 
ENDBRANCH   4  12
BRANCH   3  19
HETATM   19  C   UNL     1      22.057  49.510  47.547  1.00  0.00     0.266 C 
HETATM   20  O   UNL     1      22.119  48.287  47.606  1.00  0.00    -0.265 OA
BRANCH  19  21
HETATM   21  O   UNL     1      23.116  50.327  47.310  1.00  0.00    -0.326 OA
HETATM   22  C   UNL     1      24.317  49.950  47.984  1.00  0.00     0.213 C 
ENDBRANCH  19  21
ENDBRANCH   3  19
BRANCH   2  23
HETATM   23  O   UNL     1      21.728  50.921  49.893  1.00  0.00    -0.389 OA
HETATM   24  H   UNL     1      21.674  51.856  50.163  1.00  0.00     0.210 HD
ENDBRANCH   2  23
BRANCH  10  25
HETATM   25  O   UNL     1      17.319  47.310  46.381  1.00  0.00    -0.343 OA
HETATM   26  H   UNL     1      17.610  46.386  46.296  1.00  0.00     0.219 HD
ENDBRANCH  10  25
TORSDOF 5
ENDMDL
MODEL 9
REMARK VINA RESULT:      -6.4     12.285     15.083
REMARK  5 active torsions:
REMARK  status: ('A' for Active; 'I' for Inactive)
REMARK    1  A    between atoms: C_2  and  O_3 
REMARK    2  A    between atoms: C_4  and  C_5 
REMARK    3  A    between atoms: C_5  and  O_6 
REMARK    4  A    between atoms: C_9  and  C_10 
REMARK    5  A    between atoms: C_22  and  O_23 
ROOT
HETATM    1  C   UNL     1      18.519  47.730  49.223  1.00  0.00     0.047 C 
HETATM    2  C   UNL     1      19.809  48.091  48.468  1.00  0.00     0.073 C 
HETATM    3  C   UNL     1      20.113  49.623  48.562  1.00  0.00     0.133 C 
HETATM    4  C   UNL     1      19.294  50.570  47.633  1.00  0.00     0.074 C 
HETATM    5  C   UNL     1      18.852  49.883  46.388  1.00  0.00     0.030 A 
HETATM    6  C   UNL     1      19.048  48.542  46.135  1.00  0.00     0.042 A 
HETATM    7  N   UNL     1      18.558  48.298  44.883  1.00  0.00    -0.279 N 
HETATM    8  H   UNL     1      18.543  47.424  44.366  1.00  0.00     0.189 HD
HETATM    9  N   UNL     1      18.065  49.406  44.290  1.00  0.00    -0.149 NA
HETATM   10  C   UNL     1      18.277  50.345  45.204  1.00  0.00     0.190 A 
HETATM   11  C   UNL     1      19.729  47.560  47.009  1.00  0.00     0.097 C 
ENDROOT
BRANCH   4  12
HETATM   12  C   UNL     1      18.081  51.184  48.330  1.00  0.00    -0.048 A 
HETATM   13  C   UNL     1      18.310  52.279  49.190  1.00  0.00     0.009 A 
HETATM   14  C   UNL     1      17.260  52.896  49.874  1.00  0.00     0.024 A 
HETATM   15  C   UNL     1      15.962  52.424  49.717  1.00  0.00     0.034 A 
HETATM   16 CL   UNL     1      14.665  53.181  50.557  1.00  0.00    -0.084 Cl
HETATM   17  C   UNL     1      15.708  51.343  48.880  1.00  0.00     0.024 A 
HETATM   18  C   UNL     1      16.760  50.729  48.192  1.00  0.00     0.009 A 
ENDBRANCH   4  12
BRANCH   3  19
HETATM   19  C   UNL     1      21.595  49.876  48.351  1.00  0.00     0.266 C 
HETATM   20  O   UNL     1      22.046  50.323  47.301  1.00  0.00    -0.265 OA
BRANCH  19  21
HETATM   21  O   UNL     1      22.342  49.567  49.442  1.00  0.00    -0.326 OA
HETATM   22  C   UNL     1      23.719  49.310  49.164  1.00  0.00     0.213 C 
ENDBRANCH  19  21
ENDBRANCH   3  19
BRANCH   2  23
HETATM   23  O   UNL     1      20.845  47.341  49.132  1.00  0.00    -0.389 OA
HETATM   24  H   UNL     1      20.983  46.503  48.654  1.00  0.00     0.210 HD
ENDBRANCH   2  23
BRANCH  10  25
HETATM   25  O   UNL     1      17.919  51.575  44.851  1.00  0.00    -0.343 OA
HETATM   26  H   UNL     1      18.396  52.154  45.469  1.00  0.00     0.219 HD
ENDBRANCH  10  25
TORSDOF 5
ENDMDL
MODEL 10
REMARK VINA RESULT:      -6.4     24.174     25.784
REMARK  5 active torsions:
REMARK  status: ('A' for Active; 'I' for Inactive)
REMARK    1  A    between atoms: C_2  and  O_3 
REMARK    2  A    between atoms: C_4  and  C_5 
REMARK    3  A    between atoms: C_5  and  O_6 
REMARK    4  A    between atoms: C_9  and  C_10 
REMARK    5  A    between atoms: C_22  and  O_23 
ROOT
HETATM    1  C   UNL     1      39.425  45.706  67.451  1.00  0.00     0.047 C 
HETATM    2  C   UNL     1      39.637  47.072  66.775  1.00  0.00     0.073 C 
HETATM    3  C   UNL     1      39.377  46.990  65.234  1.00  0.00     0.133 C 
HETATM    4  C   UNL     1      40.504  46.369  64.354  1.00  0.00     0.074 C 
HETATM    5  C   UNL     1      41.851  46.552  64.964  1.00  0.00     0.030 A 
HETATM    6  C   UNL     1      42.066  47.105  66.209  1.00  0.00     0.042 A 
HETATM    7  N   UNL     1      43.419  47.152  66.394  1.00  0.00    -0.279 N 
HETATM    8  H   UNL     1      43.939  47.507  67.191  1.00  0.00     0.189 HD
HETATM    9  N   UNL     1      44.108  46.676  65.335  1.00  0.00    -0.149 NA
HETATM   10  C   UNL     1      43.145  46.347  64.484  1.00  0.00     0.190 A 
HETATM   11  C   UNL     1      41.041  47.626  67.142  1.00  0.00     0.097 C 
ENDROOT
BRANCH   4  12
HETATM   12  C   UNL     1      40.280  44.887  64.057  1.00  0.00    -0.048 A 
HETATM   13  C   UNL     1      39.336  44.559  63.062  1.00  0.00     0.009 A 
HETATM   14  C   UNL     1      39.062  43.229  62.732  1.00  0.00     0.024 A 
HETATM   15  C   UNL     1      39.723  42.203  63.398  1.00  0.00     0.034 A 
HETATM   16 CL   UNL     1      39.389  40.564  62.995  1.00  0.00    -0.084 Cl
HETATM   17  C   UNL     1      40.654  42.497  64.387  1.00  0.00     0.024 A 
HETATM   18  C   UNL     1      40.931  43.830  64.713  1.00  0.00     0.009 A 
ENDBRANCH   4  12
BRANCH   3  19
HETATM   19  C   UNL     1      39.017  48.361  64.690  1.00  0.00     0.266 C 
HETATM   20  O   UNL     1      39.860  49.152  64.282  1.00  0.00    -0.265 OA
BRANCH  19  21
HETATM   21  O   UNL     1      37.679  48.595  64.701  1.00  0.00    -0.326 OA
HETATM   22  C   UNL     1      36.878  47.467  64.348  1.00  0.00     0.213 C 
ENDBRANCH  19  21
ENDBRANCH   3  19
BRANCH   2  23
HETATM   23  O   UNL     1      38.667  47.941  67.393  1.00  0.00    -0.389 OA
HETATM   24  H   UNL     1      38.485  47.619  68.295  1.00  0.00     0.210 HD
ENDBRANCH   2  23
BRANCH  10  25
HETATM   25  O   UNL     1      43.556  45.883  63.309  1.00  0.00    -0.343 OA
HETATM   26  H   UNL     1      43.622  44.922  63.437  1.00  0.00     0.219 HD
ENDBRANCH  10  25
TORSDOF 5
ENDMDL
