MODEL 1
REMARK VINA RESULT:     -10.0      0.000      0.000
REMARK  3 active torsions:
REMARK  status: ('A' for Active; 'I' for Inactive)
REMARK    1  A    between atoms: C_10  and  C_11 
REMARK       I    between atoms: C_11  and  N_12 
REMARK    2  A    between atoms: C_14  and  O_15 
REMARK    3  A    between atoms: O_15  and  C_16 
ROOT
HETATM    1  C   UNL     1      25.013  45.678  51.074  1.00  0.00     0.255 C 
HETATM    2  N   UNL     1      25.415  45.671  52.397  1.00  0.00    -0.345 N 
HETATM    3  C   UNL     1      26.410  46.536  53.029  1.00  0.00     0.158 C 
HETATM    4  C   UNL     1      26.867  45.781  54.285  1.00  0.00     0.148 C 
HETATM    5  C   UNL     1      25.650  44.916  54.615  1.00  0.00     0.054 C 
HETATM    6  C   UNL     1      25.125  44.525  53.240  1.00  0.00     0.129 C 
HETATM    7  O   UNL     1      24.365  44.766  50.567  1.00  0.00    -0.267 OA
ENDROOT
BRANCH   1   8
HETATM    8  C   UNL     1      25.402  46.813  50.216  1.00  0.00     0.050 A 
HETATM    9  C   UNL     1      26.733  46.912  49.816  1.00  0.00     0.136 A 
HETATM   10  N   UNL     1      27.255  47.901  49.043  1.00  0.00    -0.240 NA
HETATM   11  C   UNL     1      26.327  48.802  48.666  1.00  0.00     0.155 A 
HETATM   12  N   UNL     1      26.537  49.905  47.893  1.00  0.00    -0.260 N 
HETATM   13  C   UNL     1      24.974  48.803  48.968  1.00  0.00     0.038 A 
HETATM   14  N   UNL     1      25.426  50.638  47.674  1.00  0.00    -0.177 NA
HETATM   15  H   UNL     1      27.417  50.205  47.493  1.00  0.00     0.191 HD
HETATM   16  C   UNL     1      24.466  49.963  48.324  1.00  0.00     0.065 A 
HETATM   17  C   UNL     1      23.069  50.461  48.324  1.00  0.00     0.073 C 
HETATM   18  C   UNL     1      24.475  47.758  49.762  1.00  0.00     0.036 A 
ENDBRANCH   1   8
BRANCH   4  19
HETATM   19  O   UNL     1      27.987  44.963  53.930  1.00  0.00    -0.344 OA
BRANCH  19  20
HETATM   20  C   UNL     1      28.966  44.759  54.860  1.00  0.00     0.070 A 
HETATM   21  C   UNL     1      29.241  45.568  55.961  1.00  0.00     0.060 A 
HETATM   22  C   UNL     1      30.285  45.232  56.824  1.00  0.00     0.036 A 
HETATM   23 CL   UNL     1      30.630  46.243  58.176  1.00  0.00    -0.084 Cl
HETATM   24  C   UNL     1      31.053  44.090  56.607  1.00  0.00     0.024 A 
HETATM   25  C   UNL     1      30.772  43.270  55.517  1.00  0.00     0.004 A 
HETATM   26  C   UNL     1      29.730  43.606  54.651  1.00  0.00     0.037 A 
ENDBRANCH  19  20
ENDBRANCH   4  19
TORSDOF 3
ENDMDL
MODEL 2
REMARK VINA RESULT:     -10.0      2.326      3.146
REMARK  3 active torsions:
REMARK  status: ('A' for Active; 'I' for Inactive)
REMARK    1  A    between atoms: C_10  and  C_11 
REMARK       I    between atoms: C_11  and  N_12 
REMARK    2  A    between atoms: C_14  and  O_15 
REMARK    3  A    between atoms: O_15  and  C_16 
ROOT
HETATM    1  C   UNL     1      26.810  43.215  49.940  1.00  0.00     0.255 C 
HETATM    2  N   UNL     1      27.063  42.681  51.190  1.00  0.00    -0.345 N 
HETATM    3  C   UNL     1      26.940  43.350  52.484  1.00  0.00     0.158 C 
HETATM    4  C   UNL     1      27.836  42.550  53.443  1.00  0.00     0.148 C 
HETATM    5  C   UNL     1      27.840  41.158  52.809  1.00  0.00     0.054 C 
HETATM    6  C   UNL     1      27.840  41.461  51.317  1.00  0.00     0.129 C 
HETATM    7  O   UNL     1      27.172  42.677  48.897  1.00  0.00    -0.267 OA
ENDROOT
BRANCH   1   8
HETATM    8  C   UNL     1      26.100  44.504  49.845  1.00  0.00     0.050 A 
HETATM    9  C   UNL     1      24.710  44.500  49.939  1.00  0.00     0.136 A 
HETATM   10  N   UNL     1      23.908  45.594  49.854  1.00  0.00    -0.240 NA
HETATM   11  C   UNL     1      24.609  46.732  49.687  1.00  0.00     0.155 A 
HETATM   12  N   UNL     1      24.095  47.989  49.567  1.00  0.00    -0.260 N 
HETATM   13  C   UNL     1      25.986  46.877  49.609  1.00  0.00     0.038 A 
HETATM   14  N   UNL     1      25.029  48.949  49.404  1.00  0.00    -0.177 NA
HETATM   15  H   UNL     1      23.117  48.247  49.587  1.00  0.00     0.191 HD
HETATM   16  C   UNL     1      26.188  48.273  49.437  1.00  0.00     0.065 A 
HETATM   17  C   UNL     1      27.478  48.989  49.285  1.00  0.00     0.073 C 
HETATM   18  C   UNL     1      26.776  45.721  49.709  1.00  0.00     0.036 A 
ENDBRANCH   1   8
BRANCH   4  19
HETATM   19  O   UNL     1      29.147  43.124  53.411  1.00  0.00    -0.344 OA
BRANCH  19  20
HETATM   20  C   UNL     1      29.614  43.746  54.534  1.00  0.00     0.070 A 
HETATM   21  C   UNL     1      30.642  43.295  55.360  1.00  0.00     0.060 A 
HETATM   22  C   UNL     1      31.004  44.040  56.484  1.00  0.00     0.036 A 
HETATM   23 CL   UNL     1      32.266  43.472  57.510  1.00  0.00    -0.084 Cl
HETATM   24  C   UNL     1      30.359  45.237  56.787  1.00  0.00     0.024 A 
HETATM   25  C   UNL     1      29.342  45.699  55.955  1.00  0.00     0.004 A 
HETATM   26  C   UNL     1      28.975  44.954  54.833  1.00  0.00     0.037 A 
ENDBRANCH  19  20
ENDBRANCH   4  19
TORSDOF 3
ENDMDL
MODEL 3
REMARK VINA RESULT:      -8.9      2.809      3.448
REMARK  3 active torsions:
REMARK  status: ('A' for Active; 'I' for Inactive)
REMARK    1  A    between atoms: C_10  and  C_11 
REMARK       I    between atoms: C_11  and  N_12 
REMARK    2  A    between atoms: C_14  and  O_15 
REMARK    3  A    between atoms: O_15  and  C_16 
ROOT
HETATM    1  C   UNL     1      26.636  43.193  49.851  1.00  0.00     0.255 C 
HETATM    2  N   UNL     1      26.954  42.785  51.134  1.00  0.00    -0.345 N 
HETATM    3  C   UNL     1      26.663  43.481  52.386  1.00  0.00     0.158 C 
HETATM    4  C   UNL     1      27.673  42.927  53.403  1.00  0.00     0.148 C 
HETATM    5  C   UNL     1      27.973  41.534  52.848  1.00  0.00     0.054 C 
HETATM    6  C   UNL     1      27.955  41.754  51.342  1.00  0.00     0.129 C 
HETATM    7  O   UNL     1      27.127  42.687  48.846  1.00  0.00    -0.267 OA
ENDROOT
BRANCH   1   8
HETATM    8  C   UNL     1      25.685  44.306  49.672  1.00  0.00     0.050 A 
HETATM    9  C   UNL     1      26.098  45.590  50.023  1.00  0.00     0.136 A 
HETATM   10  N   UNL     1      25.342  46.716  49.936  1.00  0.00    -0.240 NA
HETATM   11  C   UNL     1      24.113  46.472  49.439  1.00  0.00     0.155 A 
HETATM   12  N   UNL     1      23.127  47.390  49.234  1.00  0.00    -0.260 N 
HETATM   13  C   UNL     1      23.591  45.255  49.027  1.00  0.00     0.038 A 
HETATM   14  N   UNL     1      21.991  46.867  48.728  1.00  0.00    -0.177 NA
HETATM   15  H   UNL     1      23.175  48.382  49.423  1.00  0.00     0.191 HD
HETATM   16  C   UNL     1      22.273  45.563  48.593  1.00  0.00     0.065 A 
HETATM   17  C   UNL     1      21.255  44.626  48.058  1.00  0.00     0.073 C 
HETATM   18  C   UNL     1      24.410  44.119  49.127  1.00  0.00     0.036 A 
ENDBRANCH   1   8
BRANCH   4  19
HETATM   19  O   UNL     1      28.843  43.751  53.362  1.00  0.00    -0.344 OA
BRANCH  19  20
HETATM   20  C   UNL     1      29.402  44.147  54.544  1.00  0.00     0.070 A 
HETATM   21  C   UNL     1      30.439  43.507  55.222  1.00  0.00     0.060 A 
HETATM   22  C   UNL     1      30.902  44.031  56.431  1.00  0.00     0.036 A 
HETATM   23 CL   UNL     1      32.174  43.230  57.272  1.00  0.00    -0.084 Cl
HETATM   24  C   UNL     1      30.349  45.193  56.966  1.00  0.00     0.024 A 
HETATM   25  C   UNL     1      29.323  45.842  56.284  1.00  0.00     0.004 A 
HETATM   26  C   UNL     1      28.856  45.320  55.077  1.00  0.00     0.037 A 
ENDBRANCH  19  20
ENDBRANCH   4  19
TORSDOF 3
ENDMDL
MODEL 4
REMARK VINA RESULT:      -8.9      1.359      2.154
REMARK  3 active torsions:
REMARK  status: ('A' for Active; 'I' for Inactive)
REMARK    1  A    between atoms: C_10  and  C_11 
REMARK       I    between atoms: C_11  and  N_12 
REMARK    2  A    between atoms: C_14  and  O_15 
REMARK    3  A    between atoms: O_15  and  C_16 
ROOT
HETATM    1  C   UNL     1      24.886  45.195  50.881  1.00  0.00     0.255 C 
HETATM    2  N   UNL     1      25.138  45.284  52.238  1.00  0.00    -0.345 N 
HETATM    3  C   UNL     1      25.560  46.466  52.989  1.00  0.00     0.158 C 
HETATM    4  C   UNL     1      26.217  45.922  54.267  1.00  0.00     0.148 C 
HETATM    5  C   UNL     1      25.523  44.572  54.448  1.00  0.00     0.054 C 
HETATM    6  C   UNL     1      25.353  44.079  53.018  1.00  0.00     0.129 C 
HETATM    7  O   UNL     1      24.781  44.125  50.288  1.00  0.00    -0.267 OA
ENDROOT
BRANCH   1   8
HETATM    8  C   UNL     1      24.765  46.438  50.095  1.00  0.00     0.050 A 
HETATM    9  C   UNL     1      23.517  46.770  49.572  1.00  0.00     0.136 A 
HETATM   10  N   UNL     1      23.242  47.865  48.816  1.00  0.00    -0.240 NA
HETATM   11  C   UNL     1      24.325  48.644  48.628  1.00  0.00     0.155 A 
HETATM   12  N   UNL     1      24.372  49.806  47.916  1.00  0.00    -0.260 N 
HETATM   13  C   UNL     1      25.608  48.445  49.114  1.00  0.00     0.038 A 
HETATM   14  N   UNL     1      25.592  50.380  47.888  1.00  0.00    -0.177 NA
HETATM   15  H   UNL     1      23.604  50.248  47.429  1.00  0.00     0.191 HD
HETATM   16  C   UNL     1      26.349  49.555  48.626  1.00  0.00     0.065 A 
HETATM   17  C   UNL     1      27.789  49.845  48.837  1.00  0.00     0.073 C 
HETATM   18  C   UNL     1      25.846  47.305  49.898  1.00  0.00     0.036 A 
ENDBRANCH   1   8
BRANCH   4  19
HETATM   19  O   UNL     1      27.613  45.743  54.007  1.00  0.00    -0.344 OA
BRANCH  19  20
HETATM   20  C   UNL     1      28.454  45.553  55.067  1.00  0.00     0.070 A 
HETATM   21  C   UNL     1      29.482  44.615  55.148  1.00  0.00     0.060 A 
HETATM   22  C   UNL     1      30.256  44.535  56.307  1.00  0.00     0.036 A 
HETATM   23 CL   UNL     1      31.516  43.365  56.409  1.00  0.00    -0.084 Cl
HETATM   24  C   UNL     1      30.023  45.389  57.384  1.00  0.00     0.024 A 
HETATM   25  C   UNL     1      29.007  46.338  57.300  1.00  0.00     0.004 A 
HETATM   26  C   UNL     1      28.230  46.418  56.144  1.00  0.00     0.037 A 
ENDBRANCH  19  20
ENDBRANCH   4  19
TORSDOF 3
ENDMDL
MODEL 5
REMARK VINA RESULT:      -8.4      3.363      5.129
REMARK  3 active torsions:
REMARK  status: ('A' for Active; 'I' for Inactive)
REMARK    1  A    between atoms: C_10  and  C_11 
REMARK       I    between atoms: C_11  and  N_12 
REMARK    2  A    between atoms: C_14  and  O_15 
REMARK    3  A    between atoms: O_15  and  C_16 
ROOT
HETATM    1  C   UNL     1      24.333  49.566  48.718  1.00  0.00     0.255 C 
HETATM    2  N   UNL     1      24.858  48.409  49.264  1.00  0.00    -0.345 N 
HETATM    3  C   UNL     1      24.175  47.438  50.117  1.00  0.00     0.158 C 
HETATM    4  C   UNL     1      25.293  46.701  50.871  1.00  0.00     0.148 C 
HETATM    5  C   UNL     1      26.479  46.830  49.914  1.00  0.00     0.054 C 
HETATM    6  C   UNL     1      26.296  48.223  49.328  1.00  0.00     0.129 C 
HETATM    7  O   UNL     1      25.029  50.449  48.224  1.00  0.00    -0.267 OA
ENDROOT
BRANCH   1   8
HETATM    8  C   UNL     1      22.873  49.770  48.750  1.00  0.00     0.050 A 
HETATM    9  C   UNL     1      22.354  50.675  49.674  1.00  0.00     0.136 A 
HETATM   10  N   UNL     1      21.037  50.965  49.844  1.00  0.00    -0.240 NA
HETATM   11  C   UNL     1      20.248  50.286  48.989  1.00  0.00     0.155 A 
HETATM   12  N   UNL     1      18.888  50.358  48.912  1.00  0.00    -0.260 N 
HETATM   13  C   UNL     1      20.636  49.386  48.009  1.00  0.00     0.038 A 
HETATM   14  N   UNL     1      18.352  49.563  47.963  1.00  0.00    -0.177 NA
HETATM   15  H   UNL     1      18.279  50.929  49.483  1.00  0.00     0.191 HD
HETATM   16  C   UNL     1      19.419  48.973  47.403  1.00  0.00     0.065 A 
HETATM   17  C   UNL     1      19.243  48.001  46.295  1.00  0.00     0.073 C 
HETATM   18  C   UNL     1      22.007  49.122  47.862  1.00  0.00     0.036 A 
ENDBRANCH   1   8
BRANCH   4  19
HETATM   19  O   UNL     1      25.548  47.406  52.090  1.00  0.00    -0.344 OA
BRANCH  19  20
HETATM   20  C   UNL     1      26.252  46.772  53.074  1.00  0.00     0.070 A 
HETATM   21  C   UNL     1      26.409  45.395  53.220  1.00  0.00     0.060 A 
HETATM   22  C   UNL     1      27.155  44.893  54.288  1.00  0.00     0.036 A 
HETATM   23 CL   UNL     1      27.336  43.190  54.473  1.00  0.00    -0.084 Cl
HETATM   24  C   UNL     1      27.757  45.751  55.207  1.00  0.00     0.024 A 
HETATM   25  C   UNL     1      27.614  47.128  55.055  1.00  0.00     0.004 A 
HETATM   26  C   UNL     1      26.866  47.633  53.990  1.00  0.00     0.037 A 
ENDBRANCH  19  20
ENDBRANCH   4  19
TORSDOF 3
ENDMDL
MODEL 6
REMARK VINA RESULT:      -8.4      4.235      5.852
REMARK  3 active torsions:
REMARK  status: ('A' for Active; 'I' for Inactive)
REMARK    1  A    between atoms: C_10  and  C_11 
REMARK       I    between atoms: C_11  and  N_12 
REMARK    2  A    between atoms: C_14  and  O_15 
REMARK    3  A    between atoms: O_15  and  C_16 
ROOT
HETATM    1  C   UNL     1      25.905  44.434  53.536  1.00  0.00     0.255 C 
HETATM    2  N   UNL     1      26.550  45.616  53.849  1.00  0.00    -0.345 N 
HETATM    3  C   UNL     1      27.985  45.826  54.028  1.00  0.00     0.158 C 
HETATM    4  C   UNL     1      28.107  47.100  54.878  1.00  0.00     0.148 C 
HETATM    5  C   UNL     1      26.820  47.852  54.536  1.00  0.00     0.054 C 
HETATM    6  C   UNL     1      25.798  46.733  54.392  1.00  0.00     0.129 C 
HETATM    7  O   UNL     1      24.691  44.283  53.648  1.00  0.00    -0.267 OA
ENDROOT
BRANCH   1   8
HETATM    8  C   UNL     1      26.707  43.285  53.074  1.00  0.00     0.050 A 
HETATM    9  C   UNL     1      27.468  42.591  54.013  1.00  0.00     0.136 A 
HETATM   10  N   UNL     1      28.270  41.526  53.750  1.00  0.00    -0.240 NA
HETATM   11  C   UNL     1      28.246  41.174  52.450  1.00  0.00     0.155 A 
HETATM   12  N   UNL     1      28.941  40.152  51.875  1.00  0.00    -0.260 N 
HETATM   13  C   UNL     1      27.514  41.757  51.426  1.00  0.00     0.038 A 
HETATM   14  N   UNL     1      28.732  40.027  50.548  1.00  0.00    -0.177 NA
HETATM   15  H   UNL     1      29.573  39.514  52.340  1.00  0.00     0.191 HD
HETATM   16  C   UNL     1      27.854  41.002  50.271  1.00  0.00     0.065 A 
HETATM   17  C   UNL     1      27.365  41.200  48.885  1.00  0.00     0.073 C 
HETATM   18  C   UNL     1      26.692  42.850  51.744  1.00  0.00     0.036 A 
ENDBRANCH   1   8
BRANCH   4  19
HETATM   19  O   UNL     1      28.118  46.717  56.257  1.00  0.00    -0.344 OA
BRANCH  19  20
HETATM   20  C   UNL     1      29.140  45.930  56.707  1.00  0.00     0.070 A 
HETATM   21  C   UNL     1      29.844  44.985  55.962  1.00  0.00     0.060 A 
HETATM   22  C   UNL     1      30.864  44.248  56.566  1.00  0.00     0.036 A 
HETATM   23 CL   UNL     1      31.722  43.071  55.646  1.00  0.00    -0.084 Cl
HETATM   24  C   UNL     1      31.198  44.451  57.904  1.00  0.00     0.024 A 
HETATM   25  C   UNL     1      30.507  45.405  58.647  1.00  0.00     0.004 A 
HETATM   26  C   UNL     1      29.485  46.142  58.046  1.00  0.00     0.037 A 
ENDBRANCH  19  20
ENDBRANCH   4  19
TORSDOF 3
ENDMDL
MODEL 7
REMARK VINA RESULT:      -8.4      4.391      6.110
REMARK  3 active torsions:
REMARK  status: ('A' for Active; 'I' for Inactive)
REMARK    1  A    between atoms: C_10  and  C_11 
REMARK       I    between atoms: C_11  and  N_12 
REMARK    2  A    between atoms: C_14  and  O_15 
REMARK    3  A    between atoms: O_15  and  C_16 
ROOT
HETATM    1  C   UNL     1      25.117  42.790  50.869  1.00  0.00     0.255 C 
HETATM    2  N   UNL     1      25.726  43.850  51.515  1.00  0.00    -0.345 N 
HETATM    3  C   UNL     1      27.159  44.081  51.689  1.00  0.00     0.158 C 
HETATM    4  C   UNL     1      27.276  45.026  52.894  1.00  0.00     0.148 C 
HETATM    5  C   UNL     1      25.938  45.766  52.867  1.00  0.00     0.054 C 
HETATM    6  C   UNL     1      24.960  44.689  52.418  1.00  0.00     0.129 C 
HETATM    7  O   UNL     1      23.920  42.537  50.980  1.00  0.00    -0.267 OA
ENDROOT
BRANCH   1   8
HETATM    8  C   UNL     1      25.939  41.898  50.030  1.00  0.00     0.050 A 
HETATM    9  C   UNL     1      26.710  42.468  49.019  1.00  0.00     0.136 A 
HETATM   10  N   UNL     1      27.506  41.788  48.153  1.00  0.00    -0.240 NA
HETATM   11  C   UNL     1      27.497  40.460  48.382  1.00  0.00     0.155 A 
HETATM   12  N   UNL     1      28.189  39.514  47.684  1.00  0.00    -0.260 N 
HETATM   13  C   UNL     1      26.803  39.774  49.366  1.00  0.00     0.038 A 
HETATM   14  N   UNL     1      27.991  38.256  48.128  1.00  0.00    -0.177 NA
HETATM   15  H   UNL     1      28.804  39.672  46.898  1.00  0.00     0.191 HD
HETATM   16  C   UNL     1      27.151  38.411  49.162  1.00  0.00     0.065 A 
HETATM   17  C   UNL     1      26.681  37.232  49.930  1.00  0.00     0.073 C 
HETATM   18  C   UNL     1      26.000  40.516  50.246  1.00  0.00     0.036 A 
ENDBRANCH   1   8
BRANCH   4  19
HETATM   19  O   UNL     1      27.387  44.227  54.077  1.00  0.00    -0.344 OA
BRANCH  19  20
HETATM   20  C   UNL     1      28.551  44.279  54.791  1.00  0.00     0.070 A 
HETATM   21  C   UNL     1      28.846  45.165  55.825  1.00  0.00     0.060 A 
HETATM   22  C   UNL     1      30.088  45.100  56.459  1.00  0.00     0.036 A 
HETATM   23 CL   UNL     1      30.454  46.207  57.728  1.00  0.00    -0.084 Cl
HETATM   24  C   UNL     1      31.037  44.153  56.079  1.00  0.00     0.024 A 
HETATM   25  C   UNL     1      30.740  43.256  55.057  1.00  0.00     0.004 A 
HETATM   26  C   UNL     1      29.499  43.320  54.419  1.00  0.00     0.037 A 
ENDBRANCH  19  20
ENDBRANCH   4  19
TORSDOF 3
ENDMDL
MODEL 8
REMARK VINA RESULT:      -8.3      3.319      6.141
REMARK  3 active torsions:
REMARK  status: ('A' for Active; 'I' for Inactive)
REMARK    1  A    between atoms: C_10  and  C_11 
REMARK       I    between atoms: C_11  and  N_12 
REMARK    2  A    between atoms: C_14  and  O_15 
REMARK    3  A    between atoms: O_15  and  C_16 
ROOT
HETATM    1  C   UNL     1      24.896  43.998  49.538  1.00  0.00     0.255 C 
HETATM    2  N   UNL     1      25.182  45.336  49.740  1.00  0.00    -0.345 N 
HETATM    3  C   UNL     1      26.336  45.903  50.436  1.00  0.00     0.158 C 
HETATM    4  C   UNL     1      25.904  47.316  50.855  1.00  0.00     0.148 C 
HETATM    5  C   UNL     1      24.847  47.665  49.806  1.00  0.00     0.054 C 
HETATM    6  C   UNL     1      24.143  46.335  49.575  1.00  0.00     0.129 C 
HETATM    7  O   UNL     1      23.795  43.597  49.170  1.00  0.00    -0.267 OA
ENDROOT
BRANCH   1   8
HETATM    8  C   UNL     1      25.945  42.996  49.804  1.00  0.00     0.050 A 
HETATM    9  C   UNL     1      26.500  42.318  48.720  1.00  0.00     0.136 A 
HETATM   10  N   UNL     1      27.459  41.359  48.795  1.00  0.00    -0.240 NA
HETATM   11  C   UNL     1      27.856  41.126  50.062  1.00  0.00     0.155 A 
HETATM   12  N   UNL     1      28.797  40.225  50.462  1.00  0.00    -0.260 N 
HETATM   13  C   UNL     1      27.409  41.747  51.218  1.00  0.00     0.038 A 
HETATM   14  N   UNL     1      28.994  40.198  51.797  1.00  0.00    -0.177 NA
HETATM   15  H   UNL     1      29.331  39.604  49.869  1.00  0.00     0.191 HD
HETATM   16  C   UNL     1      28.152  41.133  52.262  1.00  0.00     0.065 A 
HETATM   17  C   UNL     1      28.067  41.409  53.717  1.00  0.00     0.073 C 
HETATM   18  C   UNL     1      26.423  42.739  51.094  1.00  0.00     0.036 A 
ENDBRANCH   1   8
BRANCH   4  19
HETATM   19  O   UNL     1      25.317  47.234  52.157  1.00  0.00    -0.344 OA
BRANCH  19  20
HETATM   20  C   UNL     1      25.940  46.476  53.107  1.00  0.00     0.070 A 
HETATM   21  C   UNL     1      27.118  46.799  53.780  1.00  0.00     0.060 A 
HETATM   22  C   UNL     1      27.641  45.914  54.724  1.00  0.00     0.036 A 
HETATM   23 CL   UNL     1      29.103  46.312  55.543  1.00  0.00    -0.084 Cl
HETATM   24  C   UNL     1      26.996  44.713  55.013  1.00  0.00     0.024 A 
HETATM   25  C   UNL     1      25.812  44.394  54.354  1.00  0.00     0.004 A 
HETATM   26  C   UNL     1      25.288  45.275  53.407  1.00  0.00     0.037 A 
ENDBRANCH  19  20
ENDBRANCH   4  19
TORSDOF 3
ENDMDL
MODEL 9
REMARK VINA RESULT:      -8.2      4.321      8.517
REMARK  3 active torsions:
REMARK  status: ('A' for Active; 'I' for Inactive)
REMARK    1  A    between atoms: C_10  and  C_11 
REMARK       I    between atoms: C_11  and  N_12 
REMARK    2  A    between atoms: C_14  and  O_15 
REMARK    3  A    between atoms: O_15  and  C_16 
ROOT
HETATM    1  C   UNL     1      27.898  42.338  52.807  1.00  0.00     0.255 C 
HETATM    2  N   UNL     1      27.587  42.765  51.529  1.00  0.00    -0.345 N 
HETATM    3  C   UNL     1      27.428  44.143  51.066  1.00  0.00     0.158 C 
HETATM    4  C   UNL     1      26.572  44.048  49.794  1.00  0.00     0.148 C 
HETATM    5  C   UNL     1      26.889  42.642  49.284  1.00  0.00     0.054 C 
HETATM    6  C   UNL     1      27.025  41.834  50.567  1.00  0.00     0.129 C 
HETATM    7  O   UNL     1      27.770  41.173  53.173  1.00  0.00    -0.267 OA
ENDROOT
BRANCH   1   8
HETATM    8  C   UNL     1      28.380  43.325  53.791  1.00  0.00     0.050 A 
HETATM    9  C   UNL     1      27.694  44.533  53.905  1.00  0.00     0.136 A 
HETATM   10  N   UNL     1      28.017  45.549  54.747  1.00  0.00    -0.240 NA
HETATM   11  C   UNL     1      29.092  45.264  55.508  1.00  0.00     0.155 A 
HETATM   12  N   UNL     1      29.659  46.078  56.443  1.00  0.00    -0.260 N 
HETATM   13  C   UNL     1      29.841  44.098  55.514  1.00  0.00     0.038 A 
HETATM   14  N   UNL     1      30.734  45.538  57.056  1.00  0.00    -0.177 NA
HETATM   15  H   UNL     1      29.357  47.008  56.699  1.00  0.00     0.191 HD
HETATM   16  C   UNL     1      30.843  44.324  56.496  1.00  0.00     0.065 A 
HETATM   17  C   UNL     1      31.930  43.403  56.910  1.00  0.00     0.073 C 
HETATM   18  C   UNL     1      29.467  43.070  54.634  1.00  0.00     0.036 A 
ENDBRANCH   1   8
BRANCH   4  19
HETATM   19  O   UNL     1      25.196  44.149  50.175  1.00  0.00    -0.344 OA
BRANCH  19  20
HETATM   20  C   UNL     1      24.480  45.232  49.751  1.00  0.00     0.070 A 
HETATM   21  C   UNL     1      23.454  45.225  48.807  1.00  0.00     0.060 A 
HETATM   22  C   UNL     1      22.817  46.421  48.469  1.00  0.00     0.036 A 
HETATM   23 CL   UNL     1      21.559  46.410  47.292  1.00  0.00    -0.084 Cl
HETATM   24  C   UNL     1      23.185  47.623  49.070  1.00  0.00     0.024 A 
HETATM   25  C   UNL     1      24.199  47.631  50.024  1.00  0.00     0.004 A 
HETATM   26  C   UNL     1      24.839  46.438  50.362  1.00  0.00     0.037 A 
ENDBRANCH  19  20
ENDBRANCH   4  19
TORSDOF 3
ENDMDL
MODEL 10
REMARK VINA RESULT:      -8.1      4.252      5.854
REMARK  3 active torsions:
REMARK  status: ('A' for Active; 'I' for Inactive)
REMARK    1  A    between atoms: C_10  and  C_11 
REMARK       I    between atoms: C_11  and  N_12 
REMARK    2  A    between atoms: C_14  and  O_15 
REMARK    3  A    between atoms: O_15  and  C_16 
ROOT
HETATM    1  C   UNL     1      25.969  44.290  53.493  1.00  0.00     0.255 C 
HETATM    2  N   UNL     1      27.138  43.589  53.260  1.00  0.00    -0.345 N 
HETATM    3  C   UNL     1      27.838  43.425  51.987  1.00  0.00     0.158 C 
HETATM    4  C   UNL     1      28.699  42.164  52.156  1.00  0.00     0.148 C 
HETATM    5  C   UNL     1      28.934  42.122  53.667  1.00  0.00     0.054 C 
HETATM    6  C   UNL     1      27.612  42.622  54.233  1.00  0.00     0.129 C 
HETATM    7  O   UNL     1      25.314  44.176  54.525  1.00  0.00    -0.267 OA
ENDROOT
BRANCH   1   8
HETATM    8  C   UNL     1      25.461  45.198  52.447  1.00  0.00     0.050 A 
HETATM    9  C   UNL     1      25.793  46.549  52.526  1.00  0.00     0.136 A 
HETATM   10  N   UNL     1      25.394  47.514  51.657  1.00  0.00    -0.240 NA
HETATM   11  C   UNL     1      24.635  47.023  50.658  1.00  0.00     0.155 A 
HETATM   12  N   UNL     1      24.084  47.737  49.635  1.00  0.00    -0.260 N 
HETATM   13  C   UNL     1      24.259  45.706  50.447  1.00  0.00     0.038 A 
HETATM   14  N   UNL     1      23.363  46.989  48.774  1.00  0.00    -0.177 NA
HETATM   15  H   UNL     1      24.165  48.733  49.480  1.00  0.00     0.191 HD
HETATM   16  C   UNL     1      23.474  45.745  49.263  1.00  0.00     0.065 A 
HETATM   17  C   UNL     1      22.804  44.609  48.584  1.00  0.00     0.073 C 
HETATM   18  C   UNL     1      24.700  44.740  51.365  1.00  0.00     0.036 A 
ENDBRANCH   1   8
BRANCH   4  19
HETATM   19  O   UNL     1      27.926  41.037  51.733  1.00  0.00    -0.344 OA
BRANCH  19  20
HETATM   20  C   UNL     1      27.331  41.078  50.504  1.00  0.00     0.070 A 
HETATM   21  C   UNL     1      27.977  41.004  49.271  1.00  0.00     0.060 A 
HETATM   22  C   UNL     1      27.230  41.068  48.094  1.00  0.00     0.036 A 
HETATM   23 CL   UNL     1      28.034  40.989  46.572  1.00  0.00    -0.084 Cl
HETATM   24  C   UNL     1      25.843  41.195  48.132  1.00  0.00     0.024 A 
HETATM   25  C   UNL     1      25.192  41.255  49.362  1.00  0.00     0.004 A 
HETATM   26  C   UNL     1      25.937  41.194  50.541  1.00  0.00     0.037 A 
ENDBRANCH  19  20
ENDBRANCH   4  19
TORSDOF 3
ENDMDL
