MODEL 1
REMARK VINA RESULT:      -8.0      0.000      0.000
REMARK  5 active torsions:
REMARK  status: ('A' for Active; 'I' for Inactive)
REMARK    1  A    between atoms: C_2  and  O_3 
REMARK    2  A    between atoms: O_3  and  C_4 
REMARK    3  A    between atoms: C_10  and  N_11 
REMARK       I    between atoms: N_11  and  C_12 
REMARK       I    between atoms: C_12  and  N_13 
REMARK    4  A    between atoms: N_13  and  C_14 
REMARK    5  A    between atoms: C_14  and  C_15 
ROOT
HETATM    1  N   UNL     1      25.887  46.779  50.580  1.00  0.00    -0.306 N 
HETATM    2  C   UNL     1      26.417  45.550  50.301  1.00  0.00     0.321 C 
HETATM    3  N   UNL     1      26.273  44.595  51.262  1.00  0.00    -0.337 N 
HETATM    4  O   UNL     1      27.019  45.228  49.281  1.00  0.00    -0.247 OA
HETATM    5  H   UNL     1      25.198  46.824  51.331  1.00  0.00     0.171 HD
HETATM    6  H   UNL     1      26.701  43.719  50.995  1.00  0.00     0.164 HD
ENDROOT
BRANCH   1   7
HETATM    7  C   UNL     1      25.954  47.951  49.788  1.00  0.00     0.071 A 
HETATM    8  C   UNL     1      24.742  48.510  49.332  1.00  0.00     0.117 A 
HETATM    9  C   UNL     1      24.759  49.600  48.446  1.00  0.00     0.069 A 
HETATM   10 CL   UNL     1      23.319  50.219  47.719  1.00  0.00    -0.081 Cl
HETATM   11  C   UNL     1      25.971  50.197  48.096  1.00  0.00     0.027 A 
HETATM   12  C   UNL     1      27.165  49.695  48.606  1.00  0.00     0.004 A 
HETATM   13  C   UNL     1      27.156  48.574  49.440  1.00  0.00     0.032 A 
BRANCH   8  14
HETATM   14  O   UNL     1      23.569  47.902  49.717  1.00  0.00    -0.343 OA
BRANCH  14  15
HETATM   15  C   UNL     1      22.906  47.230  48.628  1.00  0.00     0.121 C 
HETATM   16  C   UNL     1      21.419  47.576  48.619  1.00  0.00     0.040 C 
HETATM   17  C   UNL     1      23.093  45.731  48.847  1.00  0.00     0.040 C 
ENDBRANCH  14  15
ENDBRANCH   8  14
ENDBRANCH   1   7
BRANCH   3  18
HETATM   18  C   UNL     1      25.804  44.744  52.624  1.00  0.00     0.183 C 
BRANCH  18  19
HETATM   19  C   UNL     1      26.847  45.361  53.524  1.00  0.00     0.053 A 
HETATM   20  N   UNL     1      26.673  46.669  53.842  1.00  0.00    -0.264 NA
HETATM   21  C   UNL     1      27.558  47.236  54.692  1.00  0.00     0.118 A 
HETATM   22  C   UNL     1      28.625  46.559  55.245  1.00  0.00     0.043 A 
HETATM   23  C   UNL     1      28.780  45.222  54.907  1.00  0.00     0.037 A 
HETATM   24 CL   UNL     1      30.089  44.322  55.568  1.00  0.00    -0.084 Cl
HETATM   25  C   UNL     1      27.884  44.600  54.045  1.00  0.00     0.052 A 
ENDBRANCH  18  19
ENDBRANCH   3  18
TORSDOF 5
ENDMDL
MODEL 2
REMARK VINA RESULT:      -7.8      3.797      6.904
REMARK  5 active torsions:
REMARK  status: ('A' for Active; 'I' for Inactive)
REMARK    1  A    between atoms: C_2  and  O_3 
REMARK    2  A    between atoms: O_3  and  C_4 
REMARK    3  A    between atoms: C_10  and  N_11 
REMARK       I    between atoms: N_11  and  C_12 
REMARK       I    between atoms: C_12  and  N_13 
REMARK    4  A    between atoms: N_13  and  C_14 
REMARK    5  A    between atoms: C_14  and  C_15 
ROOT
HETATM    1  N   UNL     1      28.725  42.612  52.774  1.00  0.00    -0.306 N 
HETATM    2  C   UNL     1      28.091  41.403  52.837  1.00  0.00     0.321 C 
HETATM    3  N   UNL     1      27.739  40.841  51.646  1.00  0.00    -0.337 N 
HETATM    4  O   UNL     1      27.795  40.784  53.854  1.00  0.00    -0.247 OA
HETATM    5  H   UNL     1      29.135  42.871  51.877  1.00  0.00     0.171 HD
HETATM    6  H   UNL     1      27.260  39.958  51.770  1.00  0.00     0.164 HD
ENDROOT
BRANCH   1   7
HETATM    7  C   UNL     1      29.136  43.432  53.853  1.00  0.00     0.071 A 
HETATM    8  C   UNL     1      28.519  44.691  53.998  1.00  0.00     0.117 A 
HETATM    9  C   UNL     1      28.974  45.590  54.977  1.00  0.00     0.069 A 
HETATM   10 CL   UNL     1      28.378  47.208  55.092  1.00  0.00    -0.081 Cl
HETATM   11  C   UNL     1      29.967  45.199  55.877  1.00  0.00     0.027 A 
HETATM   12  C   UNL     1      30.524  43.927  55.786  1.00  0.00     0.004 A 
HETATM   13  C   UNL     1      30.117  43.052  54.775  1.00  0.00     0.032 A 
BRANCH   8  14
HETATM   14  O   UNL     1      27.531  45.030  53.102  1.00  0.00    -0.343 OA
BRANCH  14  15
HETATM   15  C   UNL     1      26.255  45.247  53.735  1.00  0.00     0.121 C 
HETATM   16  C   UNL     1      25.389  43.995  53.624  1.00  0.00     0.040 C 
HETATM   17  C   UNL     1      25.587  46.411  53.008  1.00  0.00     0.040 C 
ENDBRANCH  14  15
ENDBRANCH   8  14
ENDBRANCH   1   7
BRANCH   3  18
HETATM   18  C   UNL     1      27.768  41.427  50.323  1.00  0.00     0.183 C 
BRANCH  18  19
HETATM   19  C   UNL     1      26.758  42.538  50.167  1.00  0.00     0.053 A 
HETATM   20  N   UNL     1      27.254  43.775  49.908  1.00  0.00    -0.264 NA
HETATM   21  C   UNL     1      26.373  44.779  49.705  1.00  0.00     0.118 A 
HETATM   22  C   UNL     1      25.005  44.615  49.753  1.00  0.00     0.043 A 
HETATM   23  C   UNL     1      24.522  43.341  50.016  1.00  0.00     0.037 A 
HETATM   24 CL   UNL     1      22.824  43.071  50.083  1.00  0.00    -0.084 Cl
HETATM   25  C   UNL     1      25.396  42.279  50.219  1.00  0.00     0.052 A 
ENDBRANCH  18  19
ENDBRANCH   3  18
TORSDOF 5
ENDMDL
MODEL 3
REMARK VINA RESULT:      -7.8      1.995      7.445
REMARK  5 active torsions:
REMARK  status: ('A' for Active; 'I' for Inactive)
REMARK    1  A    between atoms: C_2  and  O_3 
REMARK    2  A    between atoms: O_3  and  C_4 
REMARK    3  A    between atoms: C_10  and  N_11 
REMARK       I    between atoms: N_11  and  C_12 
REMARK       I    between atoms: C_12  and  N_13 
REMARK    4  A    between atoms: N_13  and  C_14 
REMARK    5  A    between atoms: C_14  and  C_15 
ROOT
HETATM    1  N   UNL     1      27.023  44.352  51.369  1.00  0.00    -0.306 N 
HETATM    2  C   UNL     1      26.733  44.313  50.034  1.00  0.00     0.321 C 
HETATM    3  N   UNL     1      26.046  45.377  49.532  1.00  0.00    -0.337 N 
HETATM    4  O   UNL     1      27.016  43.413  49.250  1.00  0.00    -0.247 OA
HETATM    5  H   UNL     1      26.964  45.261  51.827  1.00  0.00     0.171 HD
HETATM    6  H   UNL     1      25.852  45.274  48.545  1.00  0.00     0.164 HD
ENDROOT
BRANCH   1   7
HETATM    7  C   UNL     1      27.664  43.356  52.146  1.00  0.00     0.071 A 
HETATM    8  C   UNL     1      28.390  43.769  53.281  1.00  0.00     0.117 A 
HETATM    9  C   UNL     1      29.142  42.836  54.014  1.00  0.00     0.069 A 
HETATM   10 CL   UNL     1      30.188  43.307  55.307  1.00  0.00    -0.081 Cl
HETATM   11  C   UNL     1      29.090  41.482  53.682  1.00  0.00     0.027 A 
HETATM   12  C   UNL     1      28.312  41.059  52.608  1.00  0.00     0.004 A 
HETATM   13  C   UNL     1      27.610  41.992  51.840  1.00  0.00     0.032 A 
BRANCH   8  14
HETATM   14  O   UNL     1      28.400  45.112  53.584  1.00  0.00    -0.343 OA
BRANCH  14  15
HETATM   15  C   UNL     1      27.577  45.432  54.722  1.00  0.00     0.121 C 
HETATM   16  C   UNL     1      26.314  46.163  54.273  1.00  0.00     0.040 C 
HETATM   17  C   UNL     1      28.405  46.332  55.635  1.00  0.00     0.040 C 
ENDBRANCH  14  15
ENDBRANCH   8  14
ENDBRANCH   1   7
BRANCH   3  18
HETATM   18  C   UNL     1      25.407  46.463  50.247  1.00  0.00     0.183 C 
BRANCH  18  19
HETATM   19  C   UNL     1      25.651  47.801  49.592  1.00  0.00     0.053 A 
HETATM   20  N   UNL     1      26.948  48.176  49.450  1.00  0.00    -0.264 NA
HETATM   21  C   UNL     1      27.202  49.342  48.814  1.00  0.00     0.118 A 
HETATM   22  C   UNL     1      26.218  50.167  48.311  1.00  0.00     0.043 A 
HETATM   23  C   UNL     1      24.900  49.759  48.464  1.00  0.00     0.037 A 
HETATM   24 CL   UNL     1      23.628  50.742  47.853  1.00  0.00    -0.084 Cl
HETATM   25  C   UNL     1      24.599  48.561  49.102  1.00  0.00     0.052 A 
ENDBRANCH  18  19
ENDBRANCH   3  18
TORSDOF 5
ENDMDL
MODEL 4
REMARK VINA RESULT:      -7.7      1.825      2.568
REMARK  5 active torsions:
REMARK  status: ('A' for Active; 'I' for Inactive)
REMARK    1  A    between atoms: C_2  and  O_3 
REMARK    2  A    between atoms: O_3  and  C_4 
REMARK    3  A    between atoms: C_10  and  N_11 
REMARK       I    between atoms: N_11  and  C_12 
REMARK       I    between atoms: C_12  and  N_13 
REMARK    4  A    between atoms: N_13  and  C_14 
REMARK    5  A    between atoms: C_14  and  C_15 
ROOT
HETATM    1  N   UNL     1      25.777  46.740  50.651  1.00  0.00    -0.306 N 
HETATM    2  C   UNL     1      25.520  46.675  51.992  1.00  0.00     0.321 C 
HETATM    3  N   UNL     1      25.397  45.428  52.526  1.00  0.00    -0.337 N 
HETATM    4  O   UNL     1      25.375  47.625  52.756  1.00  0.00    -0.247 OA
HETATM    5  H   UNL     1      26.131  45.893  50.209  1.00  0.00     0.171 HD
HETATM    6  H   UNL     1      25.192  45.456  53.516  1.00  0.00     0.164 HD
ENDROOT
BRANCH   1   7
HETATM    7  C   UNL     1      25.886  47.900  49.845  1.00  0.00     0.071 A 
HETATM    8  C   UNL     1      24.697  48.475  49.351  1.00  0.00     0.117 A 
HETATM    9  C   UNL     1      24.757  49.551  48.452  1.00  0.00     0.069 A 
HETATM   10 CL   UNL     1      23.346  50.186  47.679  1.00  0.00    -0.081 Cl
HETATM   11  C   UNL     1      25.987  50.122  48.124  1.00  0.00     0.027 A 
HETATM   12  C   UNL     1      27.159  49.606  48.672  1.00  0.00     0.004 A 
HETATM   13  C   UNL     1      27.108  48.497  49.521  1.00  0.00     0.032 A 
BRANCH   8  14
HETATM   14  O   UNL     1      23.503  47.893  49.714  1.00  0.00    -0.343 OA
BRANCH  14  15
HETATM   15  C   UNL     1      22.894  47.154  48.637  1.00  0.00     0.121 C 
HETATM   16  C   UNL     1      21.404  47.476  48.551  1.00  0.00     0.040 C 
HETATM   17  C   UNL     1      23.092  45.672  48.944  1.00  0.00     0.040 C 
ENDBRANCH  14  15
ENDBRANCH   8  14
ENDBRANCH   1   7
BRANCH   3  18
HETATM   18  C   UNL     1      25.311  44.154  51.843  1.00  0.00     0.183 C 
BRANCH  18  19
HETATM   19  C   UNL     1      26.498  43.268  52.134  1.00  0.00     0.053 A 
HETATM   20  N   UNL     1      26.678  42.207  51.306  1.00  0.00    -0.264 NA
HETATM   21  C   UNL     1      27.764  41.428  51.504  1.00  0.00     0.118 A 
HETATM   22  C   UNL     1      28.691  41.650  52.501  1.00  0.00     0.043 A 
HETATM   23  C   UNL     1      28.487  42.743  53.332  1.00  0.00     0.037 A 
HETATM   24 CL   UNL     1      29.611  43.077  54.591  1.00  0.00    -0.084 Cl
HETATM   25  C   UNL     1      27.388  43.575  53.153  1.00  0.00     0.052 A 
ENDBRANCH  18  19
ENDBRANCH   3  18
TORSDOF 5
ENDMDL
MODEL 5
REMARK VINA RESULT:      -7.6      2.102      7.558
REMARK  5 active torsions:
REMARK  status: ('A' for Active; 'I' for Inactive)
REMARK    1  A    between atoms: C_2  and  O_3 
REMARK    2  A    between atoms: O_3  and  C_4 
REMARK    3  A    between atoms: C_10  and  N_11 
REMARK       I    between atoms: N_11  and  C_12 
REMARK       I    between atoms: C_12  and  N_13 
REMARK    4  A    between atoms: N_13  and  C_14 
REMARK    5  A    between atoms: C_14  and  C_15 
ROOT
HETATM    1  N   UNL     1      27.040  46.150  53.447  1.00  0.00    -0.306 N 
HETATM    2  C   UNL     1      25.964  46.991  53.499  1.00  0.00     0.321 C 
HETATM    3  N   UNL     1      25.261  47.149  52.342  1.00  0.00    -0.337 N 
HETATM    4  O   UNL     1      25.578  47.626  54.476  1.00  0.00    -0.247 OA
HETATM    5  H   UNL     1      27.080  45.500  52.663  1.00  0.00     0.171 HD
HETATM    6  H   UNL     1      24.491  47.795  52.449  1.00  0.00     0.164 HD
ENDROOT
BRANCH   1   7
HETATM    7  C   UNL     1      27.965  45.863  54.481  1.00  0.00     0.071 A 
HETATM    8  C   UNL     1      28.841  44.774  54.299  1.00  0.00     0.117 A 
HETATM    9  C   UNL     1      29.694  44.375  55.341  1.00  0.00     0.069 A 
HETATM   10 CL   UNL     1      30.663  42.947  55.244  1.00  0.00    -0.081 Cl
HETATM   11  C   UNL     1      29.750  45.117  56.521  1.00  0.00     0.027 A 
HETATM   12  C   UNL     1      28.942  46.240  56.674  1.00  0.00     0.004 A 
HETATM   13  C   UNL     1      28.049  46.606  55.663  1.00  0.00     0.032 A 
BRANCH   8  14
HETATM   14  O   UNL     1      28.767  44.080  53.112  1.00  0.00    -0.343 OA
BRANCH  14  15
HETATM   15  C   UNL     1      27.959  42.891  53.212  1.00  0.00     0.121 C 
HETATM   16  C   UNL     1      28.772  41.663  52.811  1.00  0.00     0.040 C 
HETATM   17  C   UNL     1      26.779  43.071  52.260  1.00  0.00     0.040 C 
ENDBRANCH  14  15
ENDBRANCH   8  14
ENDBRANCH   1   7
BRANCH   3  18
HETATM   18  C   UNL     1      25.602  46.701  51.007  1.00  0.00     0.183 C 
BRANCH  18  19
HETATM   19  C   UNL     1      25.779  47.851  50.046  1.00  0.00     0.053 A 
HETATM   20  N   UNL     1      27.057  48.220  49.774  1.00  0.00    -0.264 NA
HETATM   21  C   UNL     1      27.251  49.208  48.873  1.00  0.00     0.118 A 
HETATM   22  C   UNL     1      26.224  49.861  48.223  1.00  0.00     0.043 A 
HETATM   23  C   UNL     1      24.926  49.463  48.515  1.00  0.00     0.037 A 
HETATM   24 CL   UNL     1      23.603  50.236  47.733  1.00  0.00    -0.084 Cl
HETATM   25  C   UNL     1      24.686  48.443  49.428  1.00  0.00     0.052 A 
ENDBRANCH  18  19
ENDBRANCH   3  18
TORSDOF 5
ENDMDL
MODEL 6
REMARK VINA RESULT:      -7.5      4.679      7.475
REMARK  5 active torsions:
REMARK  status: ('A' for Active; 'I' for Inactive)
REMARK    1  A    between atoms: C_2  and  O_3 
REMARK    2  A    between atoms: O_3  and  C_4 
REMARK    3  A    between atoms: C_10  and  N_11 
REMARK       I    between atoms: N_11  and  C_12 
REMARK       I    between atoms: C_12  and  N_13 
REMARK    4  A    between atoms: N_13  and  C_14 
REMARK    5  A    between atoms: C_14  and  C_15 
ROOT
HETATM    1  N   UNL     1      26.973  44.382  52.627  1.00  0.00    -0.306 N 
HETATM    2  C   UNL     1      25.828  43.678  52.382  1.00  0.00     0.321 C 
HETATM    3  N   UNL     1      25.888  42.752  51.383  1.00  0.00    -0.337 N 
HETATM    4  O   UNL     1      24.753  43.805  52.959  1.00  0.00    -0.247 OA
HETATM    5  H   UNL     1      27.842  43.992  52.262  1.00  0.00     0.171 HD
HETATM    6  H   UNL     1      25.003  42.282  51.247  1.00  0.00     0.164 HD
ENDROOT
BRANCH   1   7
HETATM    7  C   UNL     1      27.160  45.434  53.557  1.00  0.00     0.071 A 
HETATM    8  C   UNL     1      27.948  45.176  54.697  1.00  0.00     0.117 A 
HETATM    9  C   UNL     1      28.065  46.145  55.706  1.00  0.00     0.069 A 
HETATM   10 CL   UNL     1      28.871  45.827  57.202  1.00  0.00    -0.081 Cl
HETATM   11  C   UNL     1      27.487  47.404  55.537  1.00  0.00     0.027 A 
HETATM   12  C   UNL     1      26.773  47.689  54.376  1.00  0.00     0.004 A 
HETATM   13  C   UNL     1      26.604  46.707  53.396  1.00  0.00     0.032 A 
BRANCH   8  14
HETATM   14  O   UNL     1      28.516  43.927  54.817  1.00  0.00    -0.343 OA
BRANCH  14  15
HETATM   15  C   UNL     1      29.889  43.896  54.379  1.00  0.00     0.121 C 
HETATM   16  C   UNL     1      30.044  42.949  53.192  1.00  0.00     0.040 C 
HETATM   17  C   UNL     1      30.722  43.399  55.557  1.00  0.00     0.040 C 
ENDBRANCH  14  15
ENDBRANCH   8  14
ENDBRANCH   1   7
BRANCH   3  18
HETATM   18  C   UNL     1      26.938  42.536  50.409  1.00  0.00     0.183 C 
BRANCH  18  19
HETATM   19  C   UNL     1      27.171  41.070  50.136  1.00  0.00     0.053 A 
HETATM   20  N   UNL     1      26.266  40.455  49.332  1.00  0.00    -0.264 NA
HETATM   21  C   UNL     1      26.478  39.157  49.021  1.00  0.00     0.118 A 
HETATM   22  C   UNL     1      27.556  38.429  49.478  1.00  0.00     0.043 A 
HETATM   23  C   UNL     1      28.470  39.081  50.294  1.00  0.00     0.037 A 
HETATM   24 CL   UNL     1      29.839  38.229  50.892  1.00  0.00    -0.084 Cl
HETATM   25  C   UNL     1      28.293  40.419  50.628  1.00  0.00     0.052 A 
ENDBRANCH  18  19
ENDBRANCH   3  18
TORSDOF 5
ENDMDL
MODEL 7
REMARK VINA RESULT:      -7.2     10.691     12.904
REMARK  5 active torsions:
REMARK  status: ('A' for Active; 'I' for Inactive)
REMARK    1  A    between atoms: C_2  and  O_3 
REMARK    2  A    between atoms: O_3  and  C_4 
REMARK    3  A    between atoms: C_10  and  N_11 
REMARK       I    between atoms: N_11  and  C_12 
REMARK       I    between atoms: C_12  and  N_13 
REMARK    4  A    between atoms: N_13  and  C_14 
REMARK    5  A    between atoms: C_14  and  C_15 
ROOT
HETATM    1  N   UNL     1      32.490  50.928  42.732  1.00  0.00    -0.306 N 
HETATM    2  C   UNL     1      32.859  51.490  43.923  1.00  0.00     0.321 C 
HETATM    3  N   UNL     1      34.141  51.944  44.007  1.00  0.00    -0.337 N 
HETATM    4  O   UNL     1      32.158  51.612  44.922  1.00  0.00    -0.247 OA
HETATM    5  H   UNL     1      33.077  51.134  41.924  1.00  0.00     0.171 HD
HETATM    6  H   UNL     1      34.348  52.331  44.918  1.00  0.00     0.164 HD
ENDROOT
BRANCH   1   7
HETATM    7  C   UNL     1      31.250  50.328  42.406  1.00  0.00     0.071 A 
HETATM    8  C   UNL     1      30.235  51.153  41.878  1.00  0.00     0.117 A 
HETATM    9  C   UNL     1      28.951  50.631  41.651  1.00  0.00     0.069 A 
HETATM   10 CL   UNL     1      27.623  51.628  41.171  1.00  0.00    -0.081 Cl
HETATM   11  C   UNL     1      28.703  49.272  41.849  1.00  0.00     0.027 A 
HETATM   12  C   UNL     1      29.724  48.439  42.297  1.00  0.00     0.004 A 
HETATM   13  C   UNL     1      30.988  48.965  42.581  1.00  0.00     0.032 A 
BRANCH   8  14
HETATM   14  O   UNL     1      30.527  52.483  41.680  1.00  0.00    -0.343 OA
BRANCH  14  15
HETATM   15  C   UNL     1      30.692  52.816  40.288  1.00  0.00     0.121 C 
HETATM   16  C   UNL     1      32.169  53.034  39.967  1.00  0.00     0.040 C 
HETATM   17  C   UNL     1      29.909  54.101  40.038  1.00  0.00     0.040 C 
ENDBRANCH  14  15
ENDBRANCH   8  14
ENDBRANCH   1   7
BRANCH   3  18
HETATM   18  C   UNL     1      35.236  51.747  43.079  1.00  0.00     0.183 C 
BRANCH  18  19
HETATM   19  C   UNL     1      36.292  52.817  43.205  1.00  0.00     0.053 A 
HETATM   20  N   UNL     1      36.693  53.410  42.051  1.00  0.00    -0.264 NA
HETATM   21  C   UNL     1      37.594  54.413  42.137  1.00  0.00     0.118 A 
HETATM   22  C   UNL     1      38.130  54.859  43.327  1.00  0.00     0.043 A 
HETATM   23  C   UNL     1      37.701  54.240  44.493  1.00  0.00     0.037 A 
HETATM   24 CL   UNL     1      38.327  54.755  46.011  1.00  0.00    -0.084 Cl
HETATM   25  C   UNL     1      36.766  53.212  44.448  1.00  0.00     0.052 A 
ENDBRANCH  18  19
ENDBRANCH   3  18
TORSDOF 5
ENDMDL
MODEL 8
REMARK VINA RESULT:      -7.1      2.077      7.694
REMARK  5 active torsions:
REMARK  status: ('A' for Active; 'I' for Inactive)
REMARK    1  A    between atoms: C_2  and  O_3 
REMARK    2  A    between atoms: O_3  and  C_4 
REMARK    3  A    between atoms: C_10  and  N_11 
REMARK       I    between atoms: N_11  and  C_12 
REMARK       I    between atoms: C_12  and  N_13 
REMARK    4  A    between atoms: N_13  and  C_14 
REMARK    5  A    between atoms: C_14  and  C_15 
ROOT
HETATM    1  N   UNL     1      26.443  44.812  51.524  1.00  0.00    -0.306 N 
HETATM    2  C   UNL     1      26.725  45.421  50.334  1.00  0.00     0.321 C 
HETATM    3  N   UNL     1      25.904  46.444  49.966  1.00  0.00    -0.337 N 
HETATM    4  O   UNL     1      27.633  45.130  49.561  1.00  0.00    -0.247 OA
HETATM    5  H   UNL     1      25.841  45.321  52.171  1.00  0.00     0.171 HD
HETATM    6  H   UNL     1      26.161  46.836  49.071  1.00  0.00     0.164 HD
ENDROOT
BRANCH   1   7
HETATM    7  C   UNL     1      27.094  43.694  52.101  1.00  0.00     0.071 A 
HETATM    8  C   UNL     1      27.991  43.928  53.163  1.00  0.00     0.117 A 
HETATM    9  C   UNL     1      28.751  42.871  53.689  1.00  0.00     0.069 A 
HETATM   10 CL   UNL     1      29.989  43.123  54.869  1.00  0.00    -0.081 Cl
HETATM   11  C   UNL     1      28.547  41.568  53.232  1.00  0.00     0.027 A 
HETATM   12  C   UNL     1      27.605  41.322  52.237  1.00  0.00     0.004 A 
HETATM   13  C   UNL     1      26.889  42.380  51.669  1.00  0.00     0.032 A 
BRANCH   8  14
HETATM   14  O   UNL     1      28.149  45.225  53.597  1.00  0.00    -0.343 OA
BRANCH  14  15
HETATM   15  C   UNL     1      27.423  45.500  54.811  1.00  0.00     0.121 C 
HETATM   16  C   UNL     1      26.205  46.372  54.513  1.00  0.00     0.040 C 
HETATM   17  C   UNL     1      28.377  46.237  55.746  1.00  0.00     0.040 C 
ENDBRANCH  14  15
ENDBRANCH   8  14
ENDBRANCH   1   7
BRANCH   3  18
HETATM   18  C   UNL     1      24.652  46.861  50.564  1.00  0.00     0.183 C 
BRANCH  18  19
HETATM   19  C   UNL     1      23.697  47.439  49.548  1.00  0.00     0.053 A 
HETATM   20  N   UNL     1      23.009  46.547  48.790  1.00  0.00    -0.264 NA
HETATM   21  C   UNL     1      22.103  47.031  47.912  1.00  0.00     0.118 A 
HETATM   22  C   UNL     1      21.849  48.376  47.742  1.00  0.00     0.043 A 
HETATM   23  C   UNL     1      22.562  49.268  48.531  1.00  0.00     0.037 A 
HETATM   24 CL   UNL     1      22.286  50.958  48.369  1.00  0.00    -0.084 Cl
HETATM   25  C   UNL     1      23.494  48.808  49.454  1.00  0.00     0.052 A 
ENDBRANCH  18  19
ENDBRANCH   3  18
TORSDOF 5
ENDMDL
MODEL 9
REMARK VINA RESULT:      -7.1      4.702      7.685
REMARK  5 active torsions:
REMARK  status: ('A' for Active; 'I' for Inactive)
REMARK    1  A    between atoms: C_2  and  O_3 
REMARK    2  A    between atoms: O_3  and  C_4 
REMARK    3  A    between atoms: C_10  and  N_11 
REMARK       I    between atoms: N_11  and  C_12 
REMARK       I    between atoms: C_12  and  N_13 
REMARK    4  A    between atoms: N_13  and  C_14 
REMARK    5  A    between atoms: C_14  and  C_15 
ROOT
HETATM    1  N   UNL     1      28.402  42.728  53.065  1.00  0.00    -0.306 N 
HETATM    2  C   UNL     1      27.879  41.466  53.116  1.00  0.00     0.321 C 
HETATM    3  N   UNL     1      27.265  41.018  51.985  1.00  0.00    -0.337 N 
HETATM    4  O   UNL     1      27.895  40.706  54.079  1.00  0.00    -0.247 OA
HETATM    5  H   UNL     1      28.549  43.129  52.140  1.00  0.00     0.171 HD
HETATM    6  H   UNL     1      26.888  40.087  52.100  1.00  0.00     0.164 HD
ENDROOT
BRANCH   1   7
HETATM    7  C   UNL     1      29.029  43.448  54.112  1.00  0.00     0.071 A 
HETATM    8  C   UNL     1      28.303  44.492  54.721  1.00  0.00     0.117 A 
HETATM    9  C   UNL     1      28.921  45.313  55.678  1.00  0.00     0.069 A 
HETATM   10 CL   UNL     1      28.144  46.712  56.333  1.00  0.00    -0.081 Cl
HETATM   11  C   UNL     1      30.220  45.034  56.105  1.00  0.00     0.027 A 
HETATM   12  C   UNL     1      30.913  43.956  55.561  1.00  0.00     0.004 A 
HETATM   13  C   UNL     1      30.323  43.173  54.565  1.00  0.00     0.032 A 
BRANCH   8  14
HETATM   14  O   UNL     1      27.018  44.722  54.285  1.00  0.00    -0.343 OA
BRANCH  14  15
HETATM   15  C   UNL     1      26.931  45.828  53.366  1.00  0.00     0.121 C 
HETATM   16  C   UNL     1      25.925  46.860  53.872  1.00  0.00     0.040 C 
HETATM   17  C   UNL     1      26.468  45.260  52.026  1.00  0.00     0.040 C 
ENDBRANCH  14  15
ENDBRANCH   8  14
ENDBRANCH   1   7
BRANCH   3  18
HETATM   18  C   UNL     1      26.916  41.759  50.790  1.00  0.00     0.183 C 
BRANCH  18  19
HETATM   19  C   UNL     1      27.387  41.070  49.533  1.00  0.00     0.053 A 
HETATM   20  N   UNL     1      27.120  41.701  48.361  1.00  0.00    -0.264 NA
HETATM   21  C   UNL     1      27.580  41.139  47.221  1.00  0.00     0.118 A 
HETATM   22  C   UNL     1      28.299  39.962  47.187  1.00  0.00     0.043 A 
HETATM   23  C   UNL     1      28.563  39.338  48.398  1.00  0.00     0.037 A 
HETATM   24 CL   UNL     1      29.460  37.870  48.422  1.00  0.00    -0.084 Cl
HETATM   25  C   UNL     1      28.116  39.890  49.593  1.00  0.00     0.052 A 
ENDBRANCH  18  19
ENDBRANCH   3  18
TORSDOF 5
ENDMDL
MODEL 10
REMARK VINA RESULT:      -7.1     11.293     13.218
REMARK  5 active torsions:
REMARK  status: ('A' for Active; 'I' for Inactive)
REMARK    1  A    between atoms: C_2  and  O_3 
REMARK    2  A    between atoms: O_3  and  C_4 
REMARK    3  A    between atoms: C_10  and  N_11 
REMARK       I    between atoms: N_11  and  C_12 
REMARK       I    between atoms: C_12  and  N_13 
REMARK    4  A    between atoms: N_13  and  C_14 
REMARK    5  A    between atoms: C_14  and  C_15 
ROOT
HETATM    1  N   UNL     1      32.811  52.133  41.960  1.00  0.00    -0.306 N 
HETATM    2  C   UNL     1      32.963  51.896  43.298  1.00  0.00     0.321 C 
HETATM    3  N   UNL     1      34.243  51.765  43.748  1.00  0.00    -0.337 N 
HETATM    4  O   UNL     1      32.066  51.777  44.126  1.00  0.00    -0.247 OA
HETATM    5  H   UNL     1      33.631  52.468  41.455  1.00  0.00     0.171 HD
HETATM    6  H   UNL     1      34.279  51.576  44.741  1.00  0.00     0.164 HD
ENDROOT
BRANCH   1   7
HETATM    7  C   UNL     1      31.601  52.245  41.233  1.00  0.00     0.071 A 
HETATM    8  C   UNL     1      31.152  51.114  40.519  1.00  0.00     0.117 A 
HETATM    9  C   UNL     1      30.025  51.209  39.687  1.00  0.00     0.069 A 
HETATM   10 CL   UNL     1      29.529  49.912  38.657  1.00  0.00    -0.081 Cl
HETATM   11  C   UNL     1      29.285  52.391  39.644  1.00  0.00     0.027 A 
HETATM   12  C   UNL     1      29.681  53.486  40.407  1.00  0.00     0.004 A 
HETATM   13  C   UNL     1      30.836  53.415  41.191  1.00  0.00     0.032 A 
BRANCH   8  14
HETATM   14  O   UNL     1      31.901  49.962  40.604  1.00  0.00    -0.343 OA
BRANCH  14  15
HETATM   15  C   UNL     1      31.153  48.850  41.133  1.00  0.00     0.121 C 
HETATM   16  C   UNL     1      31.370  48.734  42.640  1.00  0.00     0.040 C 
HETATM   17  C   UNL     1      31.664  47.594  40.433  1.00  0.00     0.040 C 
ENDBRANCH  14  15
ENDBRANCH   8  14
ENDBRANCH   1   7
BRANCH   3  18
HETATM   18  C   UNL     1      35.466  51.650  42.981  1.00  0.00     0.183 C 
BRANCH  18  19
HETATM   19  C   UNL     1      36.405  52.807  43.226  1.00  0.00     0.053 A 
HETATM   20  N   UNL     1      36.799  53.507  42.132  1.00  0.00    -0.264 NA
HETATM   21  C   UNL     1      37.592  54.584  42.324  1.00  0.00     0.118 A 
HETATM   22  C   UNL     1      38.024  55.002  43.565  1.00  0.00     0.043 A 
HETATM   23  C   UNL     1      37.604  54.273  44.669  1.00  0.00     0.037 A 
HETATM   24 CL   UNL     1      38.105  54.748  46.245  1.00  0.00    -0.084 Cl
HETATM   25  C   UNL     1      36.779  53.165  44.514  1.00  0.00     0.052 A 
ENDBRANCH  18  19
ENDBRANCH   3  18
TORSDOF 5
ENDMDL
