MODEL 1
REMARK VINA RESULT:      -7.7      0.000      0.000
REMARK  10 active torsions:
REMARK  status: ('A' for Active; 'I' for Inactive)
REMARK    1  A    between atoms: C_2  and  N_3 
REMARK    2  A    between atoms: N_7  and  C_8 
REMARK    3  A    between atoms: C_8  and  C_9 
REMARK    4  A    between atoms: C_9  and  N_10 
REMARK    5  A    between atoms: N_10  and  C_11 
REMARK    6  A    between atoms: C_13  and  C_14 
REMARK    7  A    between atoms: C_14  and  N_15 
REMARK    8  A    between atoms: C_23  and  C_24 
REMARK    9  A    between atoms: C_24  and  O_25 
REMARK   10  A    between atoms: O_25  and  C_26 
ROOT
HETATM    1  C   UNL     1      27.244  44.422  52.263  1.00  0.00     0.139 A 
HETATM    2  N   UNL     1      26.304  44.997  51.469  1.00  0.00    -0.214 NA
HETATM    3  C   UNL     1      25.759  46.171  51.826  1.00  0.00     0.155 A 
HETATM    4  N   UNL     1      26.041  46.872  52.931  1.00  0.00    -0.224 NA
HETATM    5  C   UNL     1      26.952  46.272  53.713  1.00  0.00     0.115 A 
HETATM    6  C   UNL     1      27.596  45.070  53.472  1.00  0.00     0.053 A 
HETATM    7  S   UNL     1      27.415  47.005  55.164  1.00  0.00    -0.063 SA
HETATM    8  C   UNL     1      28.460  45.714  55.582  1.00  0.00     0.089 A 
HETATM    9  C   UNL     1      28.470  44.727  54.591  1.00  0.00    -0.022 A 
HETATM   10  C   UNL     1      29.255  43.449  54.674  1.00  0.00     0.051 C 
ENDROOT
BRANCH   1  11
HETATM   11  N   UNL     1      27.801  43.212  51.874  1.00  0.00    -0.372 N 
HETATM   12  H   UNL     1      28.746  43.280  51.504  1.00  0.00     0.161 HD
BRANCH  11  13
HETATM   13  C   UNL     1      26.943  42.214  51.257  1.00  0.00     0.156 C 
BRANCH  13  14
HETATM   14  C   UNL     1      27.681  40.841  51.083  1.00  0.00     0.236 C 
HETATM   15  C   UNL     1      28.719  40.699  52.215  1.00  0.00     0.044 C 
BRANCH  14  16
HETATM   16  N   UNL     1      28.271  40.651  49.720  1.00  0.00     0.097 N 
HETATM   17  C   UNL     1      27.247  40.593  48.649  1.00  0.00     0.300 C 
HETATM   18  C   UNL     1      26.380  39.311  48.632  1.00  0.00     0.265 C 
HETATM   19  N   UNL     1      27.246  38.060  48.601  1.00  0.00    -0.068 N 
HETATM   20  H   UNL     1      27.717  38.043  47.685  1.00  0.00     0.280 HD
HETATM   21  C   UNL     1      28.357  38.106  49.650  1.00  0.00     0.265 C 
HETATM   22  C   UNL     1      29.122  39.444  49.582  1.00  0.00     0.300 C 
BRANCH  19  23
HETATM   23  C   UNL     1      26.455  36.773  48.730  1.00  0.00     0.230 C 
HETATM   24  C   UNL     1      25.549  36.553  47.533  1.00  0.00     0.034 C 
ENDBRANCH  19  23
ENDBRANCH  14  16
ENDBRANCH  13  14
ENDBRANCH  11  13
ENDBRANCH   1  11
BRANCH   3  25
HETATM   25  C   UNL     1      24.710  46.783  50.912  1.00  0.00     0.314 C 
BRANCH  25  26
HETATM   26  N   UNL     1      25.292  47.517  49.701  1.00  0.00    -0.072 N 
HETATM   27  H   UNL     1      25.387  46.778  48.983  1.00  0.00     0.279 HD
HETATM   28  C   UNL     1      24.346  48.530  49.126  1.00  0.00     0.269 C 
HETATM   29  C   UNL     1      26.648  48.086  49.966  1.00  0.00     0.269 C 
ENDBRANCH  25  26
ENDBRANCH   3  25
BRANCH   8  30
HETATM   30  C   UNL     1      29.204  45.746  56.841  1.00  0.00     0.300 C 
HETATM   31  O   UNL     1      28.742  46.108  57.916  1.00  0.00    -0.259 OA
BRANCH  30  32
HETATM   32  O   UNL     1      30.497  45.348  56.660  1.00  0.00    -0.317 OA
BRANCH  32  33
HETATM   33  C   UNL     1      31.108  44.632  57.744  1.00  0.00     0.174 C 
HETATM   34  C   UNL     1      31.805  43.394  57.211  1.00  0.00     0.034 C 
ENDBRANCH  32  33
ENDBRANCH  30  32
ENDBRANCH   8  30
TORSDOF 10
ENDMDL
MODEL 2
REMARK VINA RESULT:      -7.4      1.199      1.638
REMARK  10 active torsions:
REMARK  status: ('A' for Active; 'I' for Inactive)
REMARK    1  A    between atoms: C_2  and  N_3 
REMARK    2  A    between atoms: N_7  and  C_8 
REMARK    3  A    between atoms: C_8  and  C_9 
REMARK    4  A    between atoms: C_9  and  N_10 
REMARK    5  A    between atoms: N_10  and  C_11 
REMARK    6  A    between atoms: C_13  and  C_14 
REMARK    7  A    between atoms: C_14  and  N_15 
REMARK    8  A    between atoms: C_23  and  C_24 
REMARK    9  A    between atoms: C_24  and  O_25 
REMARK   10  A    between atoms: O_25  and  C_26 
ROOT
HETATM    1  C   UNL     1      26.489  44.697  52.368  1.00  0.00     0.139 A 
HETATM    2  N   UNL     1      25.689  45.422  51.543  1.00  0.00    -0.214 NA
HETATM    3  C   UNL     1      25.497  46.728  51.780  1.00  0.00     0.155 A 
HETATM    4  N   UNL     1      26.019  47.436  52.789  1.00  0.00    -0.224 NA
HETATM    5  C   UNL     1      26.785  46.695  53.606  1.00  0.00     0.115 A 
HETATM    6  C   UNL     1      27.072  45.346  53.485  1.00  0.00     0.053 A 
HETATM    7  S   UNL     1      27.510  47.420  54.949  1.00  0.00    -0.063 SA
HETATM    8  C   UNL     1      28.200  45.945  55.480  1.00  0.00     0.089 A 
HETATM    9  C   UNL     1      27.890  44.896  54.608  1.00  0.00    -0.022 A 
HETATM   10  C   UNL     1      28.312  43.470  54.813  1.00  0.00     0.051 C 
ENDROOT
BRANCH   1  11
HETATM   11  N   UNL     1      26.683  43.349  52.103  1.00  0.00    -0.372 N 
HETATM   12  H   UNL     1      26.871  42.779  52.924  1.00  0.00     0.161 HD
BRANCH  11  13
HETATM   13  C   UNL     1      27.383  42.970  50.887  1.00  0.00     0.156 C 
BRANCH  13  14
HETATM   14  C   UNL     1      26.612  41.858  50.096  1.00  0.00     0.236 C 
HETATM   15  C   UNL     1      25.105  42.009  50.388  1.00  0.00     0.044 C 
BRANCH  14  16
HETATM   16  N   UNL     1      27.124  40.476  50.359  1.00  0.00     0.097 N 
HETATM   17  C   UNL     1      28.529  40.286  49.924  1.00  0.00     0.300 C 
HETATM   18  C   UNL     1      28.747  40.252  48.392  1.00  0.00     0.265 C 
HETATM   19  N   UNL     1      27.847  39.220  47.728  1.00  0.00    -0.068 N 
HETATM   20  H   UNL     1      28.173  38.294  48.037  1.00  0.00     0.280 HD
HETATM   21  C   UNL     1      26.397  39.339  48.198  1.00  0.00     0.265 C 
HETATM   22  C   UNL     1      26.321  39.395  49.738  1.00  0.00     0.300 C 
BRANCH  19  23
HETATM   23  C   UNL     1      27.912  39.243  46.214  1.00  0.00     0.230 C 
HETATM   24  C   UNL     1      27.658  37.869  45.623  1.00  0.00     0.034 C 
ENDBRANCH  19  23
ENDBRANCH  14  16
ENDBRANCH  13  14
ENDBRANCH  11  13
ENDBRANCH   1  11
BRANCH   3  25
HETATM   25  C   UNL     1      24.595  47.504  50.834  1.00  0.00     0.314 C 
BRANCH  25  26
HETATM   26  N   UNL     1      25.271  47.911  49.523  1.00  0.00    -0.072 N 
HETATM   27  H   UNL     1      25.197  47.066  48.931  1.00  0.00     0.279 HD
HETATM   28  C   UNL     1      24.523  48.990  48.795  1.00  0.00     0.269 C 
HETATM   29  C   UNL     1      26.719  48.235  49.695  1.00  0.00     0.269 C 
ENDBRANCH  25  26
ENDBRANCH   3  25
BRANCH   8  30
HETATM   30  C   UNL     1      29.000  45.903  56.704  1.00  0.00     0.300 C 
HETATM   31  O   UNL     1      28.602  46.247  57.810  1.00  0.00    -0.259 OA
BRANCH  30  32
HETATM   32  O   UNL     1      30.266  45.459  56.451  1.00  0.00    -0.317 OA
BRANCH  32  33
HETATM   33  C   UNL     1      30.915  44.730  57.504  1.00  0.00     0.174 C 
HETATM   34  C   UNL     1      31.550  43.473  56.940  1.00  0.00     0.034 C 
ENDBRANCH  32  33
ENDBRANCH  30  32
ENDBRANCH   8  30
TORSDOF 10
ENDMDL
MODEL 3
REMARK VINA RESULT:      -7.3      2.489      5.103
REMARK  10 active torsions:
REMARK  status: ('A' for Active; 'I' for Inactive)
REMARK    1  A    between atoms: C_2  and  N_3 
REMARK    2  A    between atoms: N_7  and  C_8 
REMARK    3  A    between atoms: C_8  and  C_9 
REMARK    4  A    between atoms: C_9  and  N_10 
REMARK    5  A    between atoms: N_10  and  C_11 
REMARK    6  A    between atoms: C_13  and  C_14 
REMARK    7  A    between atoms: C_14  and  N_15 
REMARK    8  A    between atoms: C_23  and  C_24 
REMARK    9  A    between atoms: C_24  and  O_25 
REMARK   10  A    between atoms: O_25  and  C_26 
ROOT
HETATM    1  C   UNL     1      26.622  44.047  51.797  1.00  0.00     0.139 A 
HETATM    2  N   UNL     1      26.587  42.919  51.041  1.00  0.00    -0.214 NA
HETATM    3  C   UNL     1      27.323  41.856  51.398  1.00  0.00     0.155 A 
HETATM    4  N   UNL     1      28.135  41.773  52.458  1.00  0.00    -0.224 NA
HETATM    5  C   UNL     1      28.175  42.907  53.176  1.00  0.00     0.115 A 
HETATM    6  C   UNL     1      27.472  44.075  52.930  1.00  0.00     0.053 A 
HETATM    7  S   UNL     1      29.166  42.993  54.541  1.00  0.00    -0.063 SA
HETATM    8  C   UNL     1      28.755  44.629  54.843  1.00  0.00     0.089 A 
HETATM    9  C   UNL     1      27.835  45.103  53.902  1.00  0.00    -0.022 A 
HETATM   10  C   UNL     1      27.305  46.507  53.868  1.00  0.00     0.051 C 
ENDROOT
BRANCH   1  11
HETATM   11  N   UNL     1      25.848  45.135  51.417  1.00  0.00    -0.372 N 
HETATM   12  H   UNL     1      26.157  46.027  51.795  1.00  0.00     0.161 HD
BRANCH  11  13
HETATM   13  C   UNL     1      24.411  44.958  51.287  1.00  0.00     0.156 C 
BRANCH  13  14
HETATM   14  C   UNL     1      23.948  45.047  49.792  1.00  0.00     0.236 C 
HETATM   15  C   UNL     1      23.814  46.536  49.412  1.00  0.00     0.044 C 
BRANCH  14  16
HETATM   16  N   UNL     1      22.709  44.256  49.505  1.00  0.00     0.097 N 
HETATM   17  C   UNL     1      22.821  42.836  49.917  1.00  0.00     0.300 C 
HETATM   18  C   UNL     1      23.772  41.971  49.055  1.00  0.00     0.265 C 
HETATM   19  N   UNL     1      23.417  42.064  47.578  1.00  0.00    -0.068 N 
HETATM   20  H   UNL     1      22.502  41.605  47.459  1.00  0.00     0.280 HD
HETATM   21  C   UNL     1      23.229  43.512  47.124  1.00  0.00     0.265 C 
HETATM   22  C   UNL     1      22.288  44.271  48.083  1.00  0.00     0.300 C 
BRANCH  19  23
HETATM   23  C   UNL     1      24.403  41.353  46.672  1.00  0.00     0.230 C 
HETATM   24  C   UNL     1      24.941  40.089  47.316  1.00  0.00     0.034 C 
ENDBRANCH  19  23
ENDBRANCH  14  16
ENDBRANCH  13  14
ENDBRANCH  11  13
ENDBRANCH   1  11
BRANCH   3  25
HETATM   25  C   UNL     1      27.257  40.612  50.526  1.00  0.00     0.314 C 
BRANCH  25  26
HETATM   26  N   UNL     1      28.550  40.317  49.762  1.00  0.00    -0.072 N 
HETATM   27  H   UNL     1      29.253  40.922  50.220  1.00  0.00     0.279 HD
HETATM   28  C   UNL     1      29.030  38.908  49.956  1.00  0.00     0.269 C 
HETATM   29  C   UNL     1      28.470  40.702  48.321  1.00  0.00     0.269 C 
ENDBRANCH  25  26
ENDBRANCH   3  25
BRANCH   8  30
HETATM   30  C   UNL     1      29.350  45.342  55.973  1.00  0.00     0.300 C 
HETATM   31  O   UNL     1      28.753  46.135  56.690  1.00  0.00    -0.259 OA
BRANCH  30  32
HETATM   32  O   UNL     1      30.672  45.034  56.109  1.00  0.00    -0.317 OA
BRANCH  32  33
HETATM   33  C   UNL     1      31.085  44.516  57.383  1.00  0.00     0.174 C 
HETATM   34  C   UNL     1      31.906  43.256  57.181  1.00  0.00     0.034 C 
ENDBRANCH  32  33
ENDBRANCH  30  32
ENDBRANCH   8  30
TORSDOF 10
ENDMDL
MODEL 4
REMARK VINA RESULT:      -7.2      2.046      7.029
REMARK  10 active torsions:
REMARK  status: ('A' for Active; 'I' for Inactive)
REMARK    1  A    between atoms: C_2  and  N_3 
REMARK    2  A    between atoms: N_7  and  C_8 
REMARK    3  A    between atoms: C_8  and  C_9 
REMARK    4  A    between atoms: C_9  and  N_10 
REMARK    5  A    between atoms: N_10  and  C_11 
REMARK    6  A    between atoms: C_13  and  C_14 
REMARK    7  A    between atoms: C_14  and  N_15 
REMARK    8  A    between atoms: C_23  and  C_24 
REMARK    9  A    between atoms: C_24  and  O_25 
REMARK   10  A    between atoms: O_25  and  C_26 
ROOT
HETATM    1  C   UNL     1      25.996  44.153  52.070  1.00  0.00     0.139 A 
HETATM    2  N   UNL     1      25.937  43.055  51.273  1.00  0.00    -0.214 NA
HETATM    3  C   UNL     1      26.791  42.039  51.473  1.00  0.00     0.155 A 
HETATM    4  N   UNL     1      27.748  41.981  52.407  1.00  0.00    -0.224 NA
HETATM    5  C   UNL     1      27.806  43.087  53.166  1.00  0.00     0.115 A 
HETATM    6  C   UNL     1      26.993  44.204  53.076  1.00  0.00     0.053 A 
HETATM    7  S   UNL     1      28.971  43.198  54.385  1.00  0.00    -0.063 SA
HETATM    8  C   UNL     1      28.489  44.784  54.819  1.00  0.00     0.089 A 
HETATM    9  C   UNL     1      27.414  45.220  54.037  1.00  0.00    -0.022 A 
HETATM   10  C   UNL     1      26.784  46.579  54.144  1.00  0.00     0.051 C 
ENDROOT
BRANCH   1  11
HETATM   11  N   UNL     1      25.101  45.190  51.853  1.00  0.00    -0.372 N 
HETATM   12  H   UNL     1      24.181  45.048  52.263  1.00  0.00     0.161 HD
BRANCH  11  13
HETATM   13  C   UNL     1      25.132  45.883  50.576  1.00  0.00     0.156 C 
BRANCH  13  14
HETATM   14  C   UNL     1      23.706  45.975  49.930  1.00  0.00     0.236 C 
HETATM   15  C   UNL     1      23.149  44.545  49.776  1.00  0.00     0.044 C 
BRANCH  14  16
HETATM   16  N   UNL     1      23.681  46.754  48.651  1.00  0.00     0.097 N 
HETATM   17  C   UNL     1      23.971  48.195  48.845  1.00  0.00     0.300 C 
HETATM   18  C   UNL     1      22.857  49.004  49.552  1.00  0.00     0.265 C 
HETATM   19  N   UNL     1      21.517  48.826  48.851  1.00  0.00    -0.068 N 
HETATM   20  H   UNL     1      21.596  49.281  47.931  1.00  0.00     0.280 HD
HETATM   21  C   UNL     1      21.207  47.355  48.574  1.00  0.00     0.265 C 
HETATM   22  C   UNL     1      22.406  46.658  47.899  1.00  0.00     0.300 C 
BRANCH  19  23
HETATM   23  C   UNL     1      20.360  49.479  49.582  1.00  0.00     0.230 C 
HETATM   24  C   UNL     1      20.741  50.843  50.125  1.00  0.00     0.034 C 
ENDBRANCH  19  23
ENDBRANCH  14  16
ENDBRANCH  13  14
ENDBRANCH  11  13
ENDBRANCH   1  11
BRANCH   3  25
HETATM   25  C   UNL     1      26.693  40.828  50.560  1.00  0.00     0.314 C 
BRANCH  25  26
HETATM   26  N   UNL     1      27.900  40.644  49.637  1.00  0.00    -0.072 N 
HETATM   27  H   UNL     1      28.633  41.236  50.064  1.00  0.00     0.279 HD
HETATM   28  C   UNL     1      28.439  39.244  49.658  1.00  0.00     0.269 C 
HETATM   29  C   UNL     1      27.648  41.140  48.251  1.00  0.00     0.269 C 
ENDBRANCH  25  26
ENDBRANCH   3  25
BRANCH   8  30
HETATM   30  C   UNL     1      29.183  45.499  55.889  1.00  0.00     0.300 C 
HETATM   31  O   UNL     1      28.675  46.358  56.600  1.00  0.00    -0.259 OA
BRANCH  30  32
HETATM   32  O   UNL     1      30.488  45.108  55.978  1.00  0.00    -0.317 OA
BRANCH  32  33
HETATM   33  C   UNL     1      30.937  44.647  57.261  1.00  0.00     0.174 C 
HETATM   34  C   UNL     1      31.707  43.350  57.098  1.00  0.00     0.034 C 
ENDBRANCH  32  33
ENDBRANCH  30  32
ENDBRANCH   8  30
TORSDOF 10
ENDMDL
MODEL 5
REMARK VINA RESULT:      -7.2      1.986      7.231
REMARK  10 active torsions:
REMARK  status: ('A' for Active; 'I' for Inactive)
REMARK    1  A    between atoms: C_2  and  N_3 
REMARK    2  A    between atoms: N_7  and  C_8 
REMARK    3  A    between atoms: C_8  and  C_9 
REMARK    4  A    between atoms: C_9  and  N_10 
REMARK    5  A    between atoms: N_10  and  C_11 
REMARK    6  A    between atoms: C_13  and  C_14 
REMARK    7  A    between atoms: C_14  and  N_15 
REMARK    8  A    between atoms: C_23  and  C_24 
REMARK    9  A    between atoms: C_24  and  O_25 
REMARK   10  A    between atoms: O_25  and  C_26 
ROOT
HETATM    1  C   UNL     1      26.482  42.336  50.833  1.00  0.00     0.139 A 
HETATM    2  N   UNL     1      26.684  41.247  50.046  1.00  0.00    -0.214 NA
HETATM    3  C   UNL     1      27.722  40.432  50.291  1.00  0.00     0.155 A 
HETATM    4  N   UNL     1      28.632  40.577  51.261  1.00  0.00    -0.224 NA
HETATM    5  C   UNL     1      28.429  41.673  52.009  1.00  0.00     0.115 A 
HETATM    6  C   UNL     1      27.406  42.597  51.875  1.00  0.00     0.053 A 
HETATM    7  S   UNL     1      29.496  42.029  53.270  1.00  0.00    -0.063 SA
HETATM    8  C   UNL     1      28.678  43.481  53.667  1.00  0.00     0.089 A 
HETATM    9  C   UNL     1      27.568  43.681  52.840  1.00  0.00    -0.022 A 
HETATM   10  C   UNL     1      26.666  44.879  52.907  1.00  0.00     0.051 C 
ENDROOT
BRANCH   1  11
HETATM   11  N   UNL     1      25.400  43.163  50.570  1.00  0.00    -0.372 N 
HETATM   12  H   UNL     1      24.538  42.895  51.037  1.00  0.00     0.161 HD
BRANCH  11  13
HETATM   13  C   UNL     1      25.256  43.722  49.236  1.00  0.00     0.156 C 
BRANCH  13  14
HETATM   14  C   UNL     1      25.360  45.286  49.247  1.00  0.00     0.236 C 
HETATM   15  C   UNL     1      26.815  45.676  49.581  1.00  0.00     0.044 C 
BRANCH  14  16
HETATM   16  N   UNL     1      24.357  45.943  50.144  1.00  0.00     0.097 N 
HETATM   17  C   UNL     1      23.045  46.156  49.488  1.00  0.00     0.300 C 
HETATM   18  C   UNL     1      23.023  47.249  48.392  1.00  0.00     0.265 C 
HETATM   19  N   UNL     1      23.570  48.569  48.918  1.00  0.00    -0.068 N 
HETATM   20  H   UNL     1      22.896  48.916  49.615  1.00  0.00     0.280 HD
HETATM   21  C   UNL     1      24.894  48.386  49.659  1.00  0.00     0.265 C 
HETATM   22  C   UNL     1      24.791  47.249  50.697  1.00  0.00     0.300 C 
BRANCH  19  23
HETATM   23  C   UNL     1      23.708  49.636  47.849  1.00  0.00     0.230 C 
HETATM   24  C   UNL     1      23.133  50.962  48.307  1.00  0.00     0.034 C 
ENDBRANCH  19  23
ENDBRANCH  14  16
ENDBRANCH  13  14
ENDBRANCH  11  13
ENDBRANCH   1  11
BRANCH   3  25
HETATM   25  C   UNL     1      27.914  39.224  49.389  1.00  0.00     0.314 C 
BRANCH  25  26
HETATM   26  N   UNL     1      27.986  37.892  50.139  1.00  0.00    -0.072 N 
HETATM   27  H   UNL     1      27.627  38.117  51.082  1.00  0.00     0.279 HD
HETATM   28  C   UNL     1      27.051  36.859  49.579  1.00  0.00     0.269 C 
HETATM   29  C   UNL     1      29.383  37.382  50.280  1.00  0.00     0.269 C 
ENDBRANCH  25  26
ENDBRANCH   3  25
BRANCH   8  30
HETATM   30  C   UNL     1      29.166  44.328  54.755  1.00  0.00     0.300 C 
HETATM   31  O   UNL     1      28.860  45.503  54.916  1.00  0.00    -0.259 OA
BRANCH  30  32
HETATM   32  O   UNL     1      30.036  43.648  55.557  1.00  0.00    -0.317 OA
BRANCH  32  33
HETATM   33  C   UNL     1      31.012  44.432  56.260  1.00  0.00     0.174 C 
HETATM   34  C   UNL     1      31.777  43.549  57.228  1.00  0.00     0.034 C 
ENDBRANCH  32  33
ENDBRANCH  30  32
ENDBRANCH   8  30
TORSDOF 10
ENDMDL
MODEL 6
REMARK VINA RESULT:      -7.0      4.347      8.465
REMARK  10 active torsions:
REMARK  status: ('A' for Active; 'I' for Inactive)
REMARK    1  A    between atoms: C_2  and  N_3 
REMARK    2  A    between atoms: N_7  and  C_8 
REMARK    3  A    between atoms: C_8  and  C_9 
REMARK    4  A    between atoms: C_9  and  N_10 
REMARK    5  A    between atoms: N_10  and  C_11 
REMARK    6  A    between atoms: C_13  and  C_14 
REMARK    7  A    between atoms: C_14  and  N_15 
REMARK    8  A    between atoms: C_23  and  C_24 
REMARK    9  A    between atoms: C_24  and  O_25 
REMARK   10  A    between atoms: O_25  and  C_26 
ROOT
HETATM    1  C   UNL     1      25.038  45.150  49.737  1.00  0.00     0.139 A 
HETATM    2  N   UNL     1      24.553  43.882  49.719  1.00  0.00    -0.214 NA
HETATM    3  C   UNL     1      23.349  43.637  49.179  1.00  0.00     0.155 A 
HETATM    4  N   UNL     1      22.525  44.541  48.637  1.00  0.00    -0.224 NA
HETATM    5  C   UNL     1      23.012  45.791  48.690  1.00  0.00     0.115 A 
HETATM    6  C   UNL     1      24.231  46.189  49.212  1.00  0.00     0.053 A 
HETATM    7  S   UNL     1      22.095  47.068  48.071  1.00  0.00    -0.063 SA
HETATM    8  C   UNL     1      23.259  48.238  48.528  1.00  0.00     0.089 A 
HETATM    9  C   UNL     1      24.367  47.642  49.139  1.00  0.00    -0.022 A 
HETATM   10  C   UNL     1      25.542  48.398  49.687  1.00  0.00     0.051 C 
ENDROOT
BRANCH   1  11
HETATM   11  N   UNL     1      26.288  45.384  50.293  1.00  0.00    -0.372 N 
HETATM   12  H   UNL     1      27.058  44.926  49.812  1.00  0.00     0.161 HD
BRANCH  11  13
HETATM   13  C   UNL     1      26.403  45.477  51.739  1.00  0.00     0.156 C 
BRANCH  13  14
HETATM   14  C   UNL     1      27.418  44.427  52.310  1.00  0.00     0.236 C 
HETATM   15  C   UNL     1      27.646  43.339  51.241  1.00  0.00     0.044 C 
BRANCH  14  16
HETATM   16  N   UNL     1      27.011  43.867  53.638  1.00  0.00     0.097 N 
HETATM   17  C   UNL     1      27.073  44.866  54.732  1.00  0.00     0.300 C 
HETATM   18  C   UNL     1      28.499  45.288  55.161  1.00  0.00     0.265 C 
HETATM   19  N   UNL     1      29.352  44.076  55.507  1.00  0.00    -0.068 N 
HETATM   20  H   UNL     1      28.956  43.663  56.364  1.00  0.00     0.280 HD
HETATM   21  C   UNL     1      29.267  42.991  54.433  1.00  0.00     0.265 C 
HETATM   22  C   UNL     1      27.798  42.688  54.073  1.00  0.00     0.300 C 
BRANCH  19  23
HETATM   23  C   UNL     1      30.801  44.417  55.796  1.00  0.00     0.230 C 
HETATM   24  C   UNL     1      31.442  43.396  56.716  1.00  0.00     0.034 C 
ENDBRANCH  19  23
ENDBRANCH  14  16
ENDBRANCH  13  14
ENDBRANCH  11  13
ENDBRANCH   1  11
BRANCH   3  25
HETATM   25  C   UNL     1      22.841  42.204  49.177  1.00  0.00     0.314 C 
BRANCH  25  26
HETATM   26  N   UNL     1      23.254  41.398  47.943  1.00  0.00    -0.072 N 
HETATM   27  H   UNL     1      23.359  42.113  47.202  1.00  0.00     0.279 HD
HETATM   28  C   UNL     1      24.604  40.759  48.092  1.00  0.00     0.269 C 
HETATM   29  C   UNL     1      22.205  40.427  47.510  1.00  0.00     0.269 C 
ENDBRANCH  25  26
ENDBRANCH   3  25
BRANCH   8  30
HETATM   30  C   UNL     1      23.022  49.657  48.261  1.00  0.00     0.300 C 
HETATM   31  O   UNL     1      23.507  50.282  47.325  1.00  0.00    -0.259 OA
BRANCH  30  32
HETATM   32  O   UNL     1      22.212  50.209  49.210  1.00  0.00    -0.317 OA
BRANCH  32  33
HETATM   33  C   UNL     1      21.150  51.053  48.740  1.00  0.00     0.174 C 
HETATM   34  C   UNL     1      20.134  51.261  49.848  1.00  0.00     0.034 C 
ENDBRANCH  32  33
ENDBRANCH  30  32
ENDBRANCH   8  30
TORSDOF 10
ENDMDL
MODEL 7
REMARK VINA RESULT:      -6.9      2.650      4.023
REMARK  10 active torsions:
REMARK  status: ('A' for Active; 'I' for Inactive)
REMARK    1  A    between atoms: C_2  and  N_3 
REMARK    2  A    between atoms: N_7  and  C_8 
REMARK    3  A    between atoms: C_8  and  C_9 
REMARK    4  A    between atoms: C_9  and  N_10 
REMARK    5  A    between atoms: N_10  and  C_11 
REMARK    6  A    between atoms: C_13  and  C_14 
REMARK    7  A    between atoms: C_14  and  N_15 
REMARK    8  A    between atoms: C_23  and  C_24 
REMARK    9  A    between atoms: C_24  and  O_25 
REMARK   10  A    between atoms: O_25  and  C_26 
ROOT
HETATM    1  C   UNL     1      24.974  45.256  49.590  1.00  0.00     0.139 A 
HETATM    2  N   UNL     1      24.248  46.273  49.058  1.00  0.00    -0.214 NA
HETATM    3  C   UNL     1      24.121  47.425  49.734  1.00  0.00     0.155 A 
HETATM    4  N   UNL     1      24.644  47.701  50.935  1.00  0.00    -0.224 NA
HETATM    5  C   UNL     1      25.334  46.673  51.453  1.00  0.00     0.115 A 
HETATM    6  C   UNL     1      25.549  45.435  50.872  1.00  0.00     0.053 A 
HETATM    7  S   UNL     1      26.047  46.835  52.977  1.00  0.00    -0.063 SA
HETATM    8  C   UNL     1      26.632  45.225  52.969  1.00  0.00     0.089 A 
HETATM    9  C   UNL     1      26.296  44.568  51.780  1.00  0.00    -0.022 A 
HETATM   10  C   UNL     1      26.628  43.135  51.480  1.00  0.00     0.051 C 
ENDROOT
BRANCH   1  11
HETATM   11  N   UNL     1      25.101  44.074  48.874  1.00  0.00    -0.372 N 
HETATM   12  H   UNL     1      25.572  44.170  47.978  1.00  0.00     0.161 HD
BRANCH  11  13
HETATM   13  C   UNL     1      24.017  43.107  48.925  1.00  0.00     0.156 C 
BRANCH  13  14
HETATM   14  C   UNL     1      23.957  42.231  47.626  1.00  0.00     0.236 C 
HETATM   15  C   UNL     1      22.553  42.376  47.005  1.00  0.00     0.044 C 
BRANCH  14  16
HETATM   16  N   UNL     1      24.354  40.805  47.851  1.00  0.00     0.097 N 
HETATM   17  C   UNL     1      25.597  40.668  48.648  1.00  0.00     0.300 C 
HETATM   18  C   UNL     1      26.898  41.086  47.920  1.00  0.00     0.265 C 
HETATM   19  N   UNL     1      27.043  40.362  46.589  1.00  0.00    -0.068 N 
HETATM   20  H   UNL     1      27.198  39.367  46.803  1.00  0.00     0.280 HD
HETATM   21  C   UNL     1      25.759  40.424  45.760  1.00  0.00     0.265 C 
HETATM   22  C   UNL     1      24.537  40.016  46.609  1.00  0.00     0.300 C 
BRANCH  19  23
HETATM   23  C   UNL     1      28.223  40.839  45.765  1.00  0.00     0.230 C 
HETATM   24  C   UNL     1      28.083  40.444  44.308  1.00  0.00     0.034 C 
ENDBRANCH  19  23
ENDBRANCH  14  16
ENDBRANCH  13  14
ENDBRANCH  11  13
ENDBRANCH   1  11
BRANCH   3  25
HETATM   25  C   UNL     1      23.302  48.541  49.105  1.00  0.00     0.314 C 
BRANCH  25  26
HETATM   26  N   UNL     1      24.018  49.892  49.062  1.00  0.00    -0.072 N 
HETATM   27  H   UNL     1      24.460  49.970  49.995  1.00  0.00     0.279 HD
HETATM   28  C   UNL     1      25.144  49.921  48.070  1.00  0.00     0.269 C 
HETATM   29  C   UNL     1      23.077  51.040  48.895  1.00  0.00     0.269 C 
ENDBRANCH  25  26
ENDBRANCH   3  25
BRANCH   8  30
HETATM   30  C   UNL     1      27.380  44.706  54.114  1.00  0.00     0.300 C 
HETATM   31  O   UNL     1      26.873  44.288  55.148  1.00  0.00    -0.259 OA
BRANCH  30  32
HETATM   32  O   UNL     1      28.726  44.777  53.897  1.00  0.00    -0.317 OA
BRANCH  32  33
HETATM   33  C   UNL     1      29.506  43.646  54.312  1.00  0.00     0.174 C 
HETATM   34  C   UNL     1      29.996  42.887  53.094  1.00  0.00     0.034 C 
ENDBRANCH  32  33
ENDBRANCH  30  32
ENDBRANCH   8  30
TORSDOF 10
ENDMDL
MODEL 8
REMARK VINA RESULT:      -6.9      5.595      9.474
REMARK  10 active torsions:
REMARK  status: ('A' for Active; 'I' for Inactive)
REMARK    1  A    between atoms: C_2  and  N_3 
REMARK    2  A    between atoms: N_7  and  C_8 
REMARK    3  A    between atoms: C_8  and  C_9 
REMARK    4  A    between atoms: C_9  and  N_10 
REMARK    5  A    between atoms: N_10  and  C_11 
REMARK    6  A    between atoms: C_13  and  C_14 
REMARK    7  A    between atoms: C_14  and  N_15 
REMARK    8  A    between atoms: C_23  and  C_24 
REMARK    9  A    between atoms: C_24  and  O_25 
REMARK   10  A    between atoms: O_25  and  C_26 
ROOT
HETATM    1  C   UNL     1      22.958  47.501  48.954  1.00  0.00     0.139 A 
HETATM    2  N   UNL     1      22.853  46.193  48.603  1.00  0.00    -0.214 NA
HETATM    3  C   UNL     1      21.694  45.726  48.113  1.00  0.00     0.155 A 
HETATM    4  N   UNL     1      20.571  46.430  47.927  1.00  0.00    -0.224 NA
HETATM    5  C   UNL     1      20.689  47.713  48.306  1.00  0.00     0.115 A 
HETATM    6  C   UNL     1      21.816  48.330  48.822  1.00  0.00     0.053 A 
HETATM    7  S   UNL     1      19.361  48.747  48.163  1.00  0.00    -0.063 SA
HETATM    8  C   UNL     1      20.208  50.069  48.849  1.00  0.00     0.089 A 
HETATM    9  C   UNL     1      21.524  49.718  49.168  1.00  0.00    -0.022 A 
HETATM   10  C   UNL     1      22.513  50.641  49.819  1.00  0.00     0.051 C 
ENDROOT
BRANCH   1  11
HETATM   11  N   UNL     1      24.165  47.968  49.453  1.00  0.00    -0.372 N 
HETATM   12  H   UNL     1      24.872  48.153  48.746  1.00  0.00     0.161 HD
BRANCH  11  13
HETATM   13  C   UNL     1      24.649  47.441  50.718  1.00  0.00     0.156 C 
BRANCH  13  14
HETATM   14  C   UNL     1      25.977  46.628  50.539  1.00  0.00     0.236 C 
HETATM   15  C   UNL     1      26.874  47.375  49.531  1.00  0.00     0.044 C 
BRANCH  14  16
HETATM   16  N   UNL     1      25.751  45.193  50.171  1.00  0.00     0.097 N 
HETATM   17  C   UNL     1      24.818  44.499  51.091  1.00  0.00     0.300 C 
HETATM   18  C   UNL     1      25.374  44.219  52.508  1.00  0.00     0.265 C 
HETATM   19  N   UNL     1      26.700  43.475  52.444  1.00  0.00    -0.068 N 
HETATM   20  H   UNL     1      26.500  42.535  52.075  1.00  0.00     0.280 HD
HETATM   21  C   UNL     1      27.672  44.122  51.457  1.00  0.00     0.265 C 
HETATM   22  C   UNL     1      26.988  44.377  50.098  1.00  0.00     0.300 C 
BRANCH  19  23
HETATM   23  C   UNL     1      27.363  43.301  53.796  1.00  0.00     0.230 C 
HETATM   24  C   UNL     1      27.968  44.600  54.293  1.00  0.00     0.034 C 
ENDBRANCH  19  23
ENDBRANCH  14  16
ENDBRANCH  13  14
ENDBRANCH  11  13
ENDBRANCH   1  11
BRANCH   3  25
HETATM   25  C   UNL     1      21.616  44.257  47.731  1.00  0.00     0.314 C 
BRANCH  25  26
HETATM   26  N   UNL     1      21.384  44.013  46.238  1.00  0.00    -0.072 N 
HETATM   27  H   UNL     1      20.569  44.608  46.012  1.00  0.00     0.279 HD
HETATM   28  C   UNL     1      22.511  44.517  45.385  1.00  0.00     0.269 C 
HETATM   29  C   UNL     1      21.026  42.594  45.934  1.00  0.00     0.269 C 
ENDBRANCH  25  26
ENDBRANCH   3  25
BRANCH   8  30
HETATM   30  C   UNL     1      19.541  51.358  49.029  1.00  0.00     0.300 C 
HETATM   31  O   UNL     1      19.812  52.378  48.407  1.00  0.00    -0.259 OA
BRANCH  30  32
HETATM   32  O   UNL     1      18.593  51.290  50.009  1.00  0.00    -0.317 OA
BRANCH  32  33
HETATM   33  C   UNL     1      17.227  51.447  49.595  1.00  0.00     0.174 C 
HETATM   34  C   UNL     1      16.741  52.839  49.952  1.00  0.00     0.034 C 
ENDBRANCH  32  33
ENDBRANCH  30  32
ENDBRANCH   8  30
TORSDOF 10
ENDMDL
MODEL 9
REMARK VINA RESULT:      -6.9      1.767      2.422
REMARK  10 active torsions:
REMARK  status: ('A' for Active; 'I' for Inactive)
REMARK    1  A    between atoms: C_2  and  N_3 
REMARK    2  A    between atoms: N_7  and  C_8 
REMARK    3  A    between atoms: C_8  and  C_9 
REMARK    4  A    between atoms: C_9  and  N_10 
REMARK    5  A    between atoms: N_10  and  C_11 
REMARK    6  A    between atoms: C_13  and  C_14 
REMARK    7  A    between atoms: C_14  and  N_15 
REMARK    8  A    between atoms: C_23  and  C_24 
REMARK    9  A    between atoms: C_24  and  O_25 
REMARK   10  A    between atoms: O_25  and  C_26 
ROOT
HETATM    1  C   UNL     1      27.496  43.067  51.634  1.00  0.00     0.139 A 
HETATM    2  N   UNL     1      26.286  43.478  51.173  1.00  0.00    -0.214 NA
HETATM    3  C   UNL     1      25.642  44.479  51.792  1.00  0.00     0.155 A 
HETATM    4  N   UNL     1      26.067  45.148  52.870  1.00  0.00    -0.224 NA
HETATM    5  C   UNL     1      27.251  44.708  53.325  1.00  0.00     0.115 A 
HETATM    6  C   UNL     1      28.026  43.693  52.789  1.00  0.00     0.053 A 
HETATM    7  S   UNL     1      27.934  45.424  54.695  1.00  0.00    -0.063 SA
HETATM    8  C   UNL     1      29.280  44.364  54.683  1.00  0.00     0.089 A 
HETATM    9  C   UNL     1      29.215  43.472  53.608  1.00  0.00    -0.022 A 
HETATM   10  C   UNL     1      30.223  42.392  53.340  1.00  0.00     0.051 C 
ENDROOT
BRANCH   1  11
HETATM   11  N   UNL     1      28.151  42.036  50.976  1.00  0.00    -0.372 N 
HETATM   12  H   UNL     1      28.708  42.329  50.178  1.00  0.00     0.161 HD
BRANCH  11  13
HETATM   13  C   UNL     1      27.482  40.751  50.852  1.00  0.00     0.156 C 
BRANCH  13  14
HETATM   14  C   UNL     1      27.546  40.202  49.385  1.00  0.00     0.236 C 
HETATM   15  C   UNL     1      28.885  39.459  49.201  1.00  0.00     0.044 C 
BRANCH  14  16
HETATM   16  N   UNL     1      27.312  41.254  48.346  1.00  0.00     0.097 N 
HETATM   17  C   UNL     1      25.881  41.613  48.196  1.00  0.00     0.300 C 
HETATM   18  C   UNL     1      24.993  40.530  47.536  1.00  0.00     0.265 C 
HETATM   19  N   UNL     1      25.567  40.087  46.198  1.00  0.00    -0.068 N 
HETATM   20  H   UNL     1      25.485  40.888  45.556  1.00  0.00     0.280 HD
HETATM   21  C   UNL     1      27.059  39.768  46.292  1.00  0.00     0.265 C 
HETATM   22  C   UNL     1      27.822  40.908  46.997  1.00  0.00     0.300 C 
BRANCH  19  23
HETATM   23  C   UNL     1      24.819  38.926  45.573  1.00  0.00     0.230 C 
HETATM   24  C   UNL     1      24.600  37.803  46.569  1.00  0.00     0.034 C 
ENDBRANCH  19  23
ENDBRANCH  14  16
ENDBRANCH  13  14
ENDBRANCH  11  13
ENDBRANCH   1  11
BRANCH   3  25
HETATM   25  C   UNL     1      24.290  44.910  51.246  1.00  0.00     0.314 C 
BRANCH  25  26
HETATM   26  N   UNL     1      24.370  45.688  49.930  1.00  0.00    -0.072 N 
HETATM   27  H   UNL     1      25.265  45.381  49.512  1.00  0.00     0.279 HD
HETATM   28  C   UNL     1      23.302  45.289  48.954  1.00  0.00     0.269 C 
HETATM   29  C   UNL     1      24.435  47.167  50.136  1.00  0.00     0.269 C 
ENDBRANCH  25  26
ENDBRANCH   3  25
BRANCH   8  30
HETATM   30  C   UNL     1      30.312  44.471  55.715  1.00  0.00     0.300 C 
HETATM   31  O   UNL     1      31.011  43.543  56.102  1.00  0.00    -0.259 OA
BRANCH  30  32
HETATM   32  O   UNL     1      30.375  45.738  56.219  1.00  0.00    -0.317 OA
BRANCH  32  33
HETATM   33  C   UNL     1      30.363  45.864  57.649  1.00  0.00     0.174 C 
HETATM   34  C   UNL     1      28.950  46.138  58.127  1.00  0.00     0.034 C 
ENDBRANCH  32  33
ENDBRANCH  30  32
ENDBRANCH   8  30
TORSDOF 10
ENDMDL
MODEL 10
REMARK VINA RESULT:      -6.7      1.986      2.549
REMARK  10 active torsions:
REMARK  status: ('A' for Active; 'I' for Inactive)
REMARK    1  A    between atoms: C_2  and  N_3 
REMARK    2  A    between atoms: N_7  and  C_8 
REMARK    3  A    between atoms: C_8  and  C_9 
REMARK    4  A    between atoms: C_9  and  N_10 
REMARK    5  A    between atoms: N_10  and  C_11 
REMARK    6  A    between atoms: C_13  and  C_14 
REMARK    7  A    between atoms: C_14  and  N_15 
REMARK    8  A    between atoms: C_23  and  C_24 
REMARK    9  A    between atoms: C_24  and  O_25 
REMARK   10  A    between atoms: O_25  and  C_26 
ROOT
HETATM    1  C   UNL     1      26.343  42.591  51.748  1.00  0.00     0.139 A 
HETATM    2  N   UNL     1      25.249  42.880  50.996  1.00  0.00    -0.214 NA
HETATM    3  C   UNL     1      24.638  44.067  51.137  1.00  0.00     0.155 A 
HETATM    4  N   UNL     1      24.992  45.044  51.979  1.00  0.00    -0.224 NA
HETATM    5  C   UNL     1      26.058  44.727  52.731  1.00  0.00     0.115 A 
HETATM    6  C   UNL     1      26.786  43.550  52.692  1.00  0.00     0.053 A 
HETATM    7  S   UNL     1      26.634  45.837  53.868  1.00  0.00    -0.063 SA
HETATM    8  C   UNL     1      27.855  44.769  54.418  1.00  0.00     0.089 A 
HETATM    9  C   UNL     1      27.834  43.564  53.709  1.00  0.00    -0.022 A 
HETATM   10  C   UNL     1      28.751  42.406  53.976  1.00  0.00     0.051 C 
ENDROOT
BRANCH   1  11
HETATM   11  N   UNL     1      26.965  41.362  51.583  1.00  0.00    -0.372 N 
HETATM   12  H   UNL     1      27.199  40.886  52.450  1.00  0.00     0.161 HD
BRANCH  11  13
HETATM   13  C   UNL     1      27.910  41.199  50.490  1.00  0.00     0.156 C 
BRANCH  13  14
HETATM   14  C   UNL     1      27.494  40.030  49.532  1.00  0.00     0.236 C 
HETATM   15  C   UNL     1      25.986  40.156  49.236  1.00  0.00     0.044 C 
BRANCH  14  16
HETATM   16  N   UNL     1      27.879  38.676  50.043  1.00  0.00     0.097 N 
HETATM   17  C   UNL     1      29.209  38.231  49.561  1.00  0.00     0.300 C 
HETATM   18  C   UNL     1      29.278  37.865  48.059  1.00  0.00     0.265 C 
HETATM   19  N   UNL     1      28.215  36.840  47.691  1.00  0.00    -0.068 N 
HETATM   20  H   UNL     1      28.469  35.961  48.164  1.00  0.00     0.280 HD
HETATM   21  C   UNL     1      26.836  37.228  48.225  1.00  0.00     0.265 C 
HETATM   22  C   UNL     1      26.911  37.600  49.721  1.00  0.00     0.300 C 
BRANCH  19  23
HETATM   23  C   UNL     1      28.140  36.550  46.204  1.00  0.00     0.230 C 
HETATM   24  C   UNL     1      29.432  36.919  45.499  1.00  0.00     0.034 C 
ENDBRANCH  19  23
ENDBRANCH  14  16
ENDBRANCH  13  14
ENDBRANCH  11  13
ENDBRANCH   1  11
BRANCH   3  25
HETATM   25  C   UNL     1      23.417  44.353  50.278  1.00  0.00     0.314 C 
BRANCH  25  26
HETATM   26  N   UNL     1      23.736  45.069  48.963  1.00  0.00    -0.072 N 
HETATM   27  H   UNL     1      24.762  45.194  48.989  1.00  0.00     0.279 HD
HETATM   28  C   UNL     1      23.455  44.221  47.757  1.00  0.00     0.269 C 
HETATM   29  C   UNL     1      23.103  46.420  48.873  1.00  0.00     0.269 C 
ENDBRANCH  25  26
ENDBRANCH   3  25
BRANCH   8  30
HETATM   30  C   UNL     1      28.755  45.172  55.499  1.00  0.00     0.300 C 
HETATM   31  O   UNL     1      28.425  45.846  56.468  1.00  0.00    -0.259 OA
BRANCH  30  32
HETATM   32  O   UNL     1      30.026  44.727  55.275  1.00  0.00    -0.317 OA
BRANCH  32  33
HETATM   33  C   UNL     1      30.895  44.659  56.415  1.00  0.00     0.174 C 
HETATM   34  C   UNL     1      31.314  43.221  56.654  1.00  0.00     0.034 C 
ENDBRANCH  32  33
ENDBRANCH  30  32
ENDBRANCH   8  30
TORSDOF 10
ENDMDL
