MODEL 1
REMARK VINA RESULT:      -9.0      0.000      0.000
REMARK  6 active torsions:
REMARK  status: ('A' for Active; 'I' for Inactive)
REMARK    1  A    between atoms: C_2  and  O_3 
REMARK    2  A    between atoms: O_3  and  C_4 
REMARK    3  A    between atoms: C_5  and  O_6 
REMARK    4  A    between atoms: O_6  and  C_7 
REMARK    5  A    between atoms: C_7  and  C_8 
REMARK    6  A    between atoms: C_16  and  C_17 
ROOT
HETATM    1  C   UNL     1      26.651  44.911  50.412  1.00  0.00     0.102 A 
HETATM    2  C   UNL     1      26.426  46.292  50.454  1.00  0.00     0.102 A 
HETATM    3  C   UNL     1      26.096  46.897  51.674  1.00  0.00     0.040 A 
HETATM    4  C   UNL     1      26.049  46.154  52.855  1.00  0.00     0.014 A 
HETATM    5  C   UNL     1      26.336  44.783  52.853  1.00  0.00    -0.007 A 
HETATM    6  C   UNL     1      26.612  44.179  51.614  1.00  0.00     0.051 A 
ENDROOT
BRANCH   5   7
HETATM    7  C   UNL     1      26.265  43.977  54.146  1.00  0.00     0.264 C 
HETATM    8  O   UNL     1      26.854  44.682  55.254  1.00  0.00    -0.321 OA
HETATM    9  C   UNL     1      28.221  44.588  55.305  1.00  0.00     0.087 A 
HETATM   10  C   UNL     1      28.922  43.519  54.753  1.00  0.00     0.065 A 
HETATM   11  C   UNL     1      28.909  45.602  55.968  1.00  0.00     0.038 A 
HETATM   12  C   UNL     1      28.150  42.428  54.137  1.00  0.00     0.256 C 
HETATM   13  C   UNL     1      30.315  43.465  54.832  1.00  0.00     0.020 A 
HETATM   14  O   UNL     1      28.666  41.389  53.752  1.00  0.00    -0.267 OA
HETATM   15  N   UNL     1      26.805  42.647  54.053  1.00  0.00    -0.326 N 
HETATM   16  H   UNL     1      26.282  41.933  53.565  1.00  0.00     0.165 HD
HETATM   17  C   UNL     1      31.005  44.493  55.475  1.00  0.00     0.001 A 
HETATM   18  C   UNL     1      30.303  45.557  56.046  1.00  0.00     0.003 A 
ENDBRANCH   5   7
BRANCH   1  19
HETATM   19  O   UNL     1      26.928  44.109  49.339  1.00  0.00    -0.349 OA
BRANCH  19  20
HETATM   20  C   UNL     1      26.550  42.737  49.323  1.00  0.00     0.171 C 
HETATM   21  C   UNL     1      25.136  42.553  48.797  1.00  0.00     0.034 C 
ENDBRANCH  19  20
ENDBRANCH   1  19
BRANCH   2  22
HETATM   22  O   UNL     1      26.455  47.036  49.306  1.00  0.00    -0.344 OA
BRANCH  22  23
HETATM   23  C   UNL     1      26.378  48.448  49.523  1.00  0.00     0.214 C 
BRANCH  23  24
HETATM   24  C   UNL     1      25.067  48.943  48.962  1.00  0.00    -0.034 A 
HETATM   25  C   UNL     1      23.881  48.237  49.207  1.00  0.00     0.009 A 
HETATM   26  C   UNL     1      22.667  48.689  48.685  1.00  0.00     0.001 A 
HETATM   27  C   UNL     1      22.630  49.846  47.908  1.00  0.00     0.000 A 
HETATM   28  C   UNL     1      23.805  50.547  47.647  1.00  0.00     0.001 A 
HETATM   29  C   UNL     1      25.020  50.097  48.168  1.00  0.00     0.009 A 
ENDBRANCH  23  24
ENDBRANCH  22  23
ENDBRANCH   2  22
TORSDOF 6
ENDMDL
MODEL 2
REMARK VINA RESULT:      -8.7      2.931      8.652
REMARK  6 active torsions:
REMARK  status: ('A' for Active; 'I' for Inactive)
REMARK    1  A    between atoms: C_2  and  O_3 
REMARK    2  A    between atoms: O_3  and  C_4 
REMARK    3  A    between atoms: C_5  and  O_6 
REMARK    4  A    between atoms: O_6  and  C_7 
REMARK    5  A    between atoms: C_7  and  C_8 
REMARK    6  A    between atoms: C_16  and  C_17 
ROOT
HETATM    1  C   UNL     1      25.106  46.793  50.381  1.00  0.00     0.102 A 
HETATM    2  C   UNL     1      25.116  45.520  50.962  1.00  0.00     0.102 A 
HETATM    3  C   UNL     1      24.114  44.603  50.622  1.00  0.00     0.040 A 
HETATM    4  C   UNL     1      23.144  44.918  49.668  1.00  0.00     0.014 A 
HETATM    5  C   UNL     1      23.152  46.160  49.020  1.00  0.00    -0.007 A 
HETATM    6  C   UNL     1      24.130  47.090  49.411  1.00  0.00     0.051 A 
ENDROOT
BRANCH   5   7
HETATM    7  C   UNL     1      22.078  46.501  47.991  1.00  0.00     0.264 C 
HETATM    8  O   UNL     1      22.374  47.721  47.288  1.00  0.00    -0.321 OA
HETATM    9  C   UNL     1      22.031  48.854  47.978  1.00  0.00     0.087 A 
HETATM   10  C   UNL     1      21.023  48.872  48.941  1.00  0.00     0.065 A 
HETATM   11  C   UNL     1      22.712  50.028  47.665  1.00  0.00     0.038 A 
HETATM   12  C   UNL     1      20.271  47.630  49.179  1.00  0.00     0.256 C 
HETATM   13  C   UNL     1      20.706  50.052  49.616  1.00  0.00     0.020 A 
HETATM   14  O   UNL     1      19.284  47.583  49.899  1.00  0.00    -0.267 OA
HETATM   15  N   UNL     1      20.738  46.534  48.512  1.00  0.00    -0.326 N 
HETATM   16  H   UNL     1      20.270  45.665  48.731  1.00  0.00     0.165 HD
HETATM   17  C   UNL     1      21.406  51.222  49.319  1.00  0.00     0.001 A 
HETATM   18  C   UNL     1      22.404  51.210  48.342  1.00  0.00     0.003 A 
ENDBRANCH   5   7
BRANCH   1  19
HETATM   19  O   UNL     1      25.941  47.855  50.601  1.00  0.00    -0.349 OA
BRANCH  19  20
HETATM   20  C   UNL     1      27.005  48.159  49.707  1.00  0.00     0.171 C 
HETATM   21  C   UNL     1      26.689  49.377  48.855  1.00  0.00     0.034 C 
ENDBRANCH  19  20
ENDBRANCH   1  19
BRANCH   2  22
HETATM   22  O   UNL     1      26.050  45.196  51.909  1.00  0.00    -0.344 OA
BRANCH  22  23
HETATM   23  C   UNL     1      27.099  44.351  51.428  1.00  0.00     0.214 C 
BRANCH  23  24
HETATM   24  C   UNL     1      28.042  44.068  52.573  1.00  0.00    -0.034 A 
HETATM   25  C   UNL     1      27.882  44.726  53.801  1.00  0.00     0.009 A 
HETATM   26  C   UNL     1      28.755  44.470  54.860  1.00  0.00     0.001 A 
HETATM   27  C   UNL     1      29.800  43.561  54.699  1.00  0.00     0.000 A 
HETATM   28  C   UNL     1      29.977  42.913  53.478  1.00  0.00     0.001 A 
HETATM   29  C   UNL     1      29.104  43.167  52.418  1.00  0.00     0.009 A 
ENDBRANCH  23  24
ENDBRANCH  22  23
ENDBRANCH   2  22
TORSDOF 6
ENDMDL
MODEL 3
REMARK VINA RESULT:      -8.6      3.461      8.082
REMARK  6 active torsions:
REMARK  status: ('A' for Active; 'I' for Inactive)
REMARK    1  A    between atoms: C_2  and  O_3 
REMARK    2  A    between atoms: O_3  and  C_4 
REMARK    3  A    between atoms: C_5  and  O_6 
REMARK    4  A    between atoms: O_6  and  C_7 
REMARK    5  A    between atoms: C_7  and  C_8 
REMARK    6  A    between atoms: C_16  and  C_17 
ROOT
HETATM    1  C   UNL     1      26.972  44.149  51.963  1.00  0.00     0.102 A 
HETATM    2  C   UNL     1      27.673  43.314  52.841  1.00  0.00     0.102 A 
HETATM    3  C   UNL     1      27.727  41.938  52.582  1.00  0.00     0.040 A 
HETATM    4  C   UNL     1      27.146  41.399  51.433  1.00  0.00     0.014 A 
HETATM    5  C   UNL     1      26.497  42.221  50.503  1.00  0.00    -0.007 A 
HETATM    6  C   UNL     1      26.402  43.591  50.803  1.00  0.00     0.051 A 
ENDROOT
BRANCH   5   7
HETATM    7  C   UNL     1      25.850  41.620  49.259  1.00  0.00     0.264 C 
HETATM    8  O   UNL     1      25.596  40.212  49.410  1.00  0.00    -0.321 OA
HETATM    9  C   UNL     1      26.695  39.425  49.183  1.00  0.00     0.087 A 
HETATM   10  C   UNL     1      27.750  39.824  48.363  1.00  0.00     0.065 A 
HETATM   11  C   UNL     1      26.720  38.169  49.784  1.00  0.00     0.038 A 
HETATM   12  C   UNL     1      27.642  41.123  47.681  1.00  0.00     0.256 C 
HETATM   13  C   UNL     1      28.847  38.986  48.159  1.00  0.00     0.020 A 
HETATM   14  O   UNL     1      28.447  41.495  46.839  1.00  0.00    -0.267 OA
HETATM   15  N   UNL     1      26.559  41.875  48.033  1.00  0.00    -0.326 N 
HETATM   16  H   UNL     1      26.522  42.797  47.622  1.00  0.00     0.165 HD
HETATM   17  C   UNL     1      28.882  37.738  48.782  1.00  0.00     0.001 A 
HETATM   18  C   UNL     1      27.819  37.328  49.589  1.00  0.00     0.003 A 
ENDBRANCH   5   7
BRANCH   1  19
HETATM   19  O   UNL     1      26.742  45.495  52.043  1.00  0.00    -0.349 OA
BRANCH  19  20
HETATM   20  C   UNL     1      25.739  46.026  52.902  1.00  0.00     0.171 C 
HETATM   21  C   UNL     1      26.325  46.996  53.914  1.00  0.00     0.034 C 
ENDBRANCH  19  20
ENDBRANCH   1  19
BRANCH   2  22
HETATM   22  O   UNL     1      28.239  43.820  53.979  1.00  0.00    -0.344 OA
BRANCH  22  23
HETATM   23  C   UNL     1      29.662  43.689  54.032  1.00  0.00     0.214 C 
BRANCH  23  24
HETATM   24  C   UNL     1      30.124  44.081  55.414  1.00  0.00    -0.034 A 
HETATM   25  C   UNL     1      29.651  45.259  56.012  1.00  0.00     0.009 A 
HETATM   26  C   UNL     1      30.081  45.626  57.288  1.00  0.00     0.001 A 
HETATM   27  C   UNL     1      30.991  44.825  57.976  1.00  0.00     0.000 A 
HETATM   28  C   UNL     1      31.478  43.661  57.385  1.00  0.00     0.001 A 
HETATM   29  C   UNL     1      31.050  43.291  56.109  1.00  0.00     0.009 A 
ENDBRANCH  23  24
ENDBRANCH  22  23
ENDBRANCH   2  22
TORSDOF 6
ENDMDL
MODEL 4
REMARK VINA RESULT:      -8.5      3.608      9.063
REMARK  6 active torsions:
REMARK  status: ('A' for Active; 'I' for Inactive)
REMARK    1  A    between atoms: C_2  and  O_3 
REMARK    2  A    between atoms: O_3  and  C_4 
REMARK    3  A    between atoms: C_5  and  O_6 
REMARK    4  A    between atoms: O_6  and  C_7 
REMARK    5  A    between atoms: C_7  and  C_8 
REMARK    6  A    between atoms: C_16  and  C_17 
ROOT
HETATM    1  C   UNL     1      23.717  48.082  49.225  1.00  0.00     0.102 A 
HETATM    2  C   UNL     1      24.299  46.819  49.379  1.00  0.00     0.102 A 
HETATM    3  C   UNL     1      23.500  45.675  49.247  1.00  0.00     0.040 A 
HETATM    4  C   UNL     1      22.150  45.777  48.904  1.00  0.00     0.014 A 
HETATM    5  C   UNL     1      21.559  47.026  48.677  1.00  0.00    -0.007 A 
HETATM    6  C   UNL     1      22.358  48.167  48.868  1.00  0.00     0.051 A 
ENDROOT
BRANCH   5   7
HETATM    7  C   UNL     1      20.079  47.127  48.320  1.00  0.00     0.264 C 
HETATM    8  O   UNL     1      19.802  48.269  47.490  1.00  0.00    -0.321 OA
HETATM    9  C   UNL     1      19.684  49.444  48.187  1.00  0.00     0.087 A 
HETATM   10  C   UNL     1      19.297  49.488  49.525  1.00  0.00     0.065 A 
HETATM   11  C   UNL     1      19.937  50.628  47.498  1.00  0.00     0.038 A 
HETATM   12  C   UNL     1      18.956  48.220  50.189  1.00  0.00     0.256 C 
HETATM   13  C   UNL     1      19.186  50.708  50.194  1.00  0.00     0.020 A 
HETATM   14  O   UNL     1      18.477  48.170  51.313  1.00  0.00    -0.267 OA
HETATM   15  N   UNL     1      19.187  47.097  49.448  1.00  0.00    -0.326 N 
HETATM   16  H   UNL     1      19.025  46.223  49.927  1.00  0.00     0.165 HD
HETATM   17  C   UNL     1      19.464  51.892  49.509  1.00  0.00     0.001 A 
HETATM   18  C   UNL     1      19.834  51.852  48.163  1.00  0.00     0.003 A 
ENDBRANCH   5   7
BRANCH   1  19
HETATM   19  O   UNL     1      24.282  49.321  49.363  1.00  0.00    -0.349 OA
BRANCH  19  20
HETATM   20  C   UNL     1      24.903  49.978  48.264  1.00  0.00     0.171 C 
HETATM   21  C   UNL     1      26.417  49.855  48.322  1.00  0.00     0.034 C 
ENDBRANCH  19  20
ENDBRANCH   1  19
BRANCH   2  22
HETATM   22  O   UNL     1      25.617  46.698  49.728  1.00  0.00    -0.344 OA
BRANCH  22  23
HETATM   23  C   UNL     1      25.935  45.472  50.393  1.00  0.00     0.214 C 
BRANCH  23  24
HETATM   24  C   UNL     1      26.220  45.780  51.843  1.00  0.00    -0.034 A 
HETATM   25  C   UNL     1      25.813  47.000  52.402  1.00  0.00     0.009 A 
HETATM   26  C   UNL     1      26.081  47.290  53.740  1.00  0.00     0.001 A 
HETATM   27  C   UNL     1      26.765  46.367  54.531  1.00  0.00     0.000 A 
HETATM   28  C   UNL     1      27.187  45.158  53.982  1.00  0.00     0.001 A 
HETATM   29  C   UNL     1      26.920  44.866  52.643  1.00  0.00     0.009 A 
ENDBRANCH  23  24
ENDBRANCH  22  23
ENDBRANCH   2  22
TORSDOF 6
ENDMDL
MODEL 5
REMARK VINA RESULT:      -8.4      2.564      4.583
REMARK  6 active torsions:
REMARK  status: ('A' for Active; 'I' for Inactive)
REMARK    1  A    between atoms: C_2  and  O_3 
REMARK    2  A    between atoms: O_3  and  C_4 
REMARK    3  A    between atoms: C_5  and  O_6 
REMARK    4  A    between atoms: O_6  and  C_7 
REMARK    5  A    between atoms: C_7  and  C_8 
REMARK    6  A    between atoms: C_16  and  C_17 
ROOT
HETATM    1  C   UNL     1      24.506  47.533  49.683  1.00  0.00     0.102 A 
HETATM    2  C   UNL     1      23.418  47.905  48.885  1.00  0.00     0.102 A 
HETATM    3  C   UNL     1      22.525  46.921  48.441  1.00  0.00     0.040 A 
HETATM    4  C   UNL     1      22.669  45.589  48.834  1.00  0.00     0.014 A 
HETATM    5  C   UNL     1      23.710  45.201  49.687  1.00  0.00    -0.007 A 
HETATM    6  C   UNL     1      24.630  46.188  50.080  1.00  0.00     0.051 A 
ENDROOT
BRANCH   5   7
HETATM    7  C   UNL     1      23.870  43.740  50.096  1.00  0.00     0.264 C 
HETATM    8  O   UNL     1      24.018  43.592  51.520  1.00  0.00    -0.321 OA
HETATM    9  C   UNL     1      25.291  43.826  51.970  1.00  0.00     0.087 A 
HETATM   10  C   UNL     1      26.417  43.656  51.165  1.00  0.00     0.065 A 
HETATM   11  C   UNL     1      25.440  44.220  53.298  1.00  0.00     0.038 A 
HETATM   12  C   UNL     1      26.219  43.157  49.795  1.00  0.00     0.256 C 
HETATM   13  C   UNL     1      27.695  43.904  51.669  1.00  0.00     0.020 A 
HETATM   14  O   UNL     1      27.150  42.847  49.065  1.00  0.00    -0.267 OA
HETATM   15  N   UNL     1      24.917  43.035  49.405  1.00  0.00    -0.326 N 
HETATM   16  H   UNL     1      24.779  42.764  48.442  1.00  0.00     0.165 HD
HETATM   17  C   UNL     1      27.840  44.322  52.992  1.00  0.00     0.001 A 
HETATM   18  C   UNL     1      26.716  44.475  53.806  1.00  0.00     0.003 A 
ENDBRANCH   5   7
BRANCH   1  19
HETATM   19  O   UNL     1      25.522  48.303  50.180  1.00  0.00    -0.349 OA
BRANCH  19  20
HETATM   20  C   UNL     1      26.764  48.423  49.495  1.00  0.00     0.171 C 
HETATM   21  C   UNL     1      26.781  49.632  48.575  1.00  0.00     0.034 C 
ENDBRANCH  19  20
ENDBRANCH   1  19
BRANCH   2  22
HETATM   22  O   UNL     1      23.265  49.203  48.480  1.00  0.00    -0.344 OA
BRANCH  22  23
HETATM   23  C   UNL     1      22.727  50.069  49.483  1.00  0.00     0.214 C 
BRANCH  23  24
HETATM   24  C   UNL     1      21.379  50.559  49.013  1.00  0.00    -0.034 A 
HETATM   25  C   UNL     1      20.990  50.390  47.677  1.00  0.00     0.009 A 
HETATM   26  C   UNL     1      19.746  50.847  47.239  1.00  0.00     0.001 A 
HETATM   27  C   UNL     1      18.883  51.483  48.129  1.00  0.00     0.000 A 
HETATM   28  C   UNL     1      19.265  51.670  49.456  1.00  0.00     0.001 A 
HETATM   29  C   UNL     1      20.509  51.213  49.897  1.00  0.00     0.009 A 
ENDBRANCH  23  24
ENDBRANCH  22  23
ENDBRANCH   2  22
TORSDOF 6
ENDMDL
MODEL 6
REMARK VINA RESULT:      -8.2      3.094      8.427
REMARK  6 active torsions:
REMARK  status: ('A' for Active; 'I' for Inactive)
REMARK    1  A    between atoms: C_2  and  O_3 
REMARK    2  A    between atoms: O_3  and  C_4 
REMARK    3  A    between atoms: C_5  and  O_6 
REMARK    4  A    between atoms: O_6  and  C_7 
REMARK    5  A    between atoms: C_7  and  C_8 
REMARK    6  A    between atoms: C_16  and  C_17 
ROOT
HETATM    1  C   UNL     1      24.005  44.663  50.560  1.00  0.00     0.102 A 
HETATM    2  C   UNL     1      24.895  45.622  51.057  1.00  0.00     0.102 A 
HETATM    3  C   UNL     1      24.944  46.888  50.459  1.00  0.00     0.040 A 
HETATM    4  C   UNL     1      24.074  47.226  49.419  1.00  0.00     0.014 A 
HETATM    5  C   UNL     1      23.127  46.308  48.949  1.00  0.00    -0.007 A 
HETATM    6  C   UNL     1      23.127  45.024  49.520  1.00  0.00     0.051 A 
ENDROOT
BRANCH   5   7
HETATM    7  C   UNL     1      22.193  46.681  47.801  1.00  0.00     0.264 C 
HETATM    8  O   UNL     1      22.449  48.008  47.308  1.00  0.00    -0.321 OA
HETATM    9  C   UNL     1      21.871  48.998  48.061  1.00  0.00     0.087 A 
HETATM   10  C   UNL     1      20.731  48.786  48.833  1.00  0.00     0.065 A 
HETATM   11  C   UNL     1      22.450  50.264  48.009  1.00  0.00     0.038 A 
HETATM   12  C   UNL     1      20.103  47.456  48.791  1.00  0.00     0.256 C 
HETATM   13  C   UNL     1      20.175  49.826  49.581  1.00  0.00     0.020 A 
HETATM   14  O   UNL     1      19.028  47.216  49.323  1.00  0.00    -0.267 OA
HETATM   15  N   UNL     1      20.794  46.512  48.088  1.00  0.00    -0.326 N 
HETATM   16  H   UNL     1      20.404  45.581  48.119  1.00  0.00     0.165 HD
HETATM   17  C   UNL     1      20.771  51.088  49.548  1.00  0.00     0.001 A 
HETATM   18  C   UNL     1      21.903  51.307  48.760  1.00  0.00     0.003 A 
ENDBRANCH   5   7
BRANCH   1  19
HETATM   19  O   UNL     1      23.826  43.363  50.945  1.00  0.00    -0.349 OA
BRANCH  19  20
HETATM   20  C   UNL     1      24.329  42.284  50.166  1.00  0.00     0.171 C 
HETATM   21  C   UNL     1      25.811  42.448  49.872  1.00  0.00     0.034 C 
ENDBRANCH  19  20
ENDBRANCH   1  19
BRANCH   2  22
HETATM   22  O   UNL     1      25.764  45.308  52.066  1.00  0.00    -0.344 OA
BRANCH  22  23
HETATM   23  C   UNL     1      25.777  46.252  53.141  1.00  0.00     0.214 C 
BRANCH  23  24
HETATM   24  C   UNL     1      26.988  45.977  53.999  1.00  0.00    -0.034 A 
HETATM   25  C   UNL     1      27.515  46.981  54.824  1.00  0.00     0.009 A 
HETATM   26  C   UNL     1      28.638  46.731  55.614  1.00  0.00     0.001 A 
HETATM   27  C   UNL     1      29.250  45.479  55.581  1.00  0.00     0.000 A 
HETATM   28  C   UNL     1      28.744  44.478  54.753  1.00  0.00     0.001 A 
HETATM   29  C   UNL     1      27.620  44.726  53.963  1.00  0.00     0.009 A 
ENDBRANCH  23  24
ENDBRANCH  22  23
ENDBRANCH   2  22
TORSDOF 6
ENDMDL
MODEL 7
REMARK VINA RESULT:      -8.1      5.750     10.438
REMARK  6 active torsions:
REMARK  status: ('A' for Active; 'I' for Inactive)
REMARK    1  A    between atoms: C_2  and  O_3 
REMARK    2  A    between atoms: O_3  and  C_4 
REMARK    3  A    between atoms: C_5  and  O_6 
REMARK    4  A    between atoms: O_6  and  C_7 
REMARK    5  A    between atoms: C_7  and  C_8 
REMARK    6  A    between atoms: C_16  and  C_17 
ROOT
HETATM    1  C   UNL     1      21.712  48.653  48.011  1.00  0.00     0.102 A 
HETATM    2  C   UNL     1      22.328  49.905  47.894  1.00  0.00     0.102 A 
HETATM    3  C   UNL     1      21.692  51.034  48.427  1.00  0.00     0.040 A 
HETATM    4  C   UNL     1      20.487  50.919  49.124  1.00  0.00     0.014 A 
HETATM    5  C   UNL     1      19.885  49.669  49.315  1.00  0.00    -0.007 A 
HETATM    6  C   UNL     1      20.505  48.553  48.728  1.00  0.00     0.051 A 
ENDROOT
BRANCH   5   7
HETATM    7  C   UNL     1      18.560  49.557  50.063  1.00  0.00     0.264 C 
HETATM    8  O   UNL     1      17.764  48.456  49.588  1.00  0.00    -0.321 OA
HETATM    9  C   UNL     1      17.060  48.737  48.445  1.00  0.00     0.087 A 
HETATM   10  C   UNL     1      16.679  50.031  48.095  1.00  0.00     0.065 A 
HETATM   11  C   UNL     1      16.700  47.664  47.634  1.00  0.00     0.038 A 
HETATM   12  C   UNL     1      17.006  51.124  49.024  1.00  0.00     0.256 C 
HETATM   13  C   UNL     1      15.960  50.268  46.922  1.00  0.00     0.020 A 
HETATM   14  O   UNL     1      16.595  52.266  48.872  1.00  0.00    -0.267 OA
HETATM   15  N   UNL     1      17.782  50.766  50.089  1.00  0.00    -0.326 N 
HETATM   16  H   UNL     1      18.070  51.528  50.688  1.00  0.00     0.165 HD
HETATM   17  C   UNL     1      15.621  49.194  46.098  1.00  0.00     0.001 A 
HETATM   18  C   UNL     1      15.986  47.895  46.455  1.00  0.00     0.003 A 
ENDBRANCH   5   7
BRANCH   1  19
HETATM   19  O   UNL     1      22.116  47.439  47.527  1.00  0.00    -0.349 OA
BRANCH  19  20
HETATM   20  C   UNL     1      21.689  46.222  48.128  1.00  0.00     0.171 C 
HETATM   21  C   UNL     1      22.861  45.437  48.694  1.00  0.00     0.034 C 
ENDBRANCH  19  20
ENDBRANCH   1  19
BRANCH   2  22
HETATM   22  O   UNL     1      23.501  50.041  47.204  1.00  0.00    -0.344 OA
BRANCH  22  23
HETATM   23  C   UNL     1      24.516  50.758  47.913  1.00  0.00     0.214 C 
BRANCH  23  24
HETATM   24  C   UNL     1      25.460  49.757  48.532  1.00  0.00    -0.034 A 
HETATM   25  C   UNL     1      24.959  48.631  49.201  1.00  0.00     0.009 A 
HETATM   26  C   UNL     1      25.830  47.705  49.779  1.00  0.00     0.001 A 
HETATM   27  C   UNL     1      27.208  47.901  49.701  1.00  0.00     0.000 A 
HETATM   28  C   UNL     1      27.716  49.024  49.051  1.00  0.00     0.001 A 
HETATM   29  C   UNL     1      26.847  49.950  48.472  1.00  0.00     0.009 A 
ENDBRANCH  23  24
ENDBRANCH  22  23
ENDBRANCH   2  22
TORSDOF 6
ENDMDL
MODEL 8
REMARK VINA RESULT:      -8.0     11.661     14.503
REMARK  6 active torsions:
REMARK  status: ('A' for Active; 'I' for Inactive)
REMARK    1  A    between atoms: C_2  and  O_3 
REMARK    2  A    between atoms: O_3  and  C_4 
REMARK    3  A    between atoms: C_5  and  O_6 
REMARK    4  A    between atoms: O_6  and  C_7 
REMARK    5  A    between atoms: C_7  and  C_8 
REMARK    6  A    between atoms: C_16  and  C_17 
ROOT
HETATM    1  C   UNL     1      30.987  52.521  41.774  1.00  0.00     0.102 A 
HETATM    2  C   UNL     1      31.346  52.878  40.469  1.00  0.00     0.102 A 
HETATM    3  C   UNL     1      30.482  52.566  39.411  1.00  0.00     0.040 A 
HETATM    4  C   UNL     1      29.245  51.963  39.647  1.00  0.00     0.014 A 
HETATM    5  C   UNL     1      28.831  51.657  40.950  1.00  0.00    -0.007 A 
HETATM    6  C   UNL     1      29.731  51.925  41.996  1.00  0.00     0.051 A 
ENDROOT
BRANCH   5   7
HETATM    7  C   UNL     1      27.485  50.983  41.195  1.00  0.00     0.264 C 
HETATM    8  O   UNL     1      27.638  49.645  41.703  1.00  0.00    -0.321 OA
HETATM    9  C   UNL     1      27.895  48.712  40.732  1.00  0.00     0.087 A 
HETATM   10  C   UNL     1      27.498  48.876  39.407  1.00  0.00     0.065 A 
HETATM   11  C   UNL     1      28.555  47.548  41.120  1.00  0.00     0.038 A 
HETATM   12  C   UNL     1      26.728  50.081  39.059  1.00  0.00     0.256 C 
HETATM   13  C   UNL     1      27.780  47.896  38.453  1.00  0.00     0.020 A 
HETATM   14  O   UNL     1      26.221  50.245  37.959  1.00  0.00    -0.267 OA
HETATM   15  N   UNL     1      26.595  50.994  40.065  1.00  0.00    -0.326 N 
HETATM   16  H   UNL     1      26.132  51.853  39.808  1.00  0.00     0.165 HD
HETATM   17  C   UNL     1      28.464  46.742  38.838  1.00  0.00     0.001 A 
HETATM   18  C   UNL     1      28.846  46.567  40.170  1.00  0.00     0.003 A 
ENDBRANCH   5   7
BRANCH   1  19
HETATM   19  O   UNL     1      31.688  52.672  42.939  1.00  0.00    -0.349 OA
BRANCH  19  20
HETATM   20  C   UNL     1      32.231  51.551  43.628  1.00  0.00     0.171 C 
HETATM   21  C   UNL     1      33.544  51.896  44.311  1.00  0.00     0.034 C 
ENDBRANCH  19  20
ENDBRANCH   1  19
BRANCH   2  22
HETATM   22  O   UNL     1      32.559  53.458  40.215  1.00  0.00    -0.344 OA
BRANCH  22  23
HETATM   23  C   UNL     1      33.418  52.675  39.381  1.00  0.00     0.214 C 
BRANCH  23  24
HETATM   24  C   UNL     1      34.327  51.861  40.269  1.00  0.00    -0.034 A 
HETATM   25  C   UNL     1      33.971  50.556  40.641  1.00  0.00     0.009 A 
HETATM   26  C   UNL     1      34.806  49.802  41.466  1.00  0.00     0.001 A 
HETATM   27  C   UNL     1      36.001  50.348  41.935  1.00  0.00     0.000 A 
HETATM   28  C   UNL     1      36.357  51.648  41.583  1.00  0.00     0.001 A 
HETATM   29  C   UNL     1      35.523  52.404  40.757  1.00  0.00     0.009 A 
ENDBRANCH  23  24
ENDBRANCH  22  23
ENDBRANCH   2  22
TORSDOF 6
ENDMDL
MODEL 9
REMARK VINA RESULT:      -7.9      3.786      9.203
REMARK  6 active torsions:
REMARK  status: ('A' for Active; 'I' for Inactive)
REMARK    1  A    between atoms: C_2  and  O_3 
REMARK    2  A    between atoms: O_3  and  C_4 
REMARK    3  A    between atoms: C_5  and  O_6 
REMARK    4  A    between atoms: O_6  and  C_7 
REMARK    5  A    between atoms: C_7  and  C_8 
REMARK    6  A    between atoms: C_16  and  C_17 
ROOT
HETATM    1  C   UNL     1      23.704  48.020  49.602  1.00  0.00     0.102 A 
HETATM    2  C   UNL     1      24.299  46.969  50.308  1.00  0.00     0.102 A 
HETATM    3  C   UNL     1      24.003  45.647  49.951  1.00  0.00     0.040 A 
HETATM    4  C   UNL     1      23.174  45.365  48.863  1.00  0.00     0.014 A 
HETATM    5  C   UNL     1      22.620  46.398  48.096  1.00  0.00    -0.007 A 
HETATM    6  C   UNL     1      22.880  47.718  48.501  1.00  0.00     0.051 A 
ENDROOT
BRANCH   5   7
HETATM    7  C   UNL     1      21.701  46.079  46.920  1.00  0.00     0.264 C 
HETATM    8  O   UNL     1      21.050  47.257  46.411  1.00  0.00    -0.321 OA
HETATM    9  C   UNL     1      19.947  47.635  47.132  1.00  0.00     0.087 A 
HETATM   10  C   UNL     1      19.194  46.733  47.881  1.00  0.00     0.065 A 
HETATM   11  C   UNL     1      19.569  48.974  47.072  1.00  0.00     0.038 A 
HETATM   12  C   UNL     1      19.579  45.313  47.847  1.00  0.00     0.256 C 
HETATM   13  C   UNL     1      18.076  47.164  48.597  1.00  0.00     0.020 A 
HETATM   14  O   UNL     1      18.901  44.433  48.358  1.00  0.00    -0.267 OA
HETATM   15  N   UNL     1      20.737  45.043  47.177  1.00  0.00    -0.326 N 
HETATM   16  H   UNL     1      21.042  44.081  47.215  1.00  0.00     0.165 HD
HETATM   17  C   UNL     1      17.713  48.510  48.556  1.00  0.00     0.001 A 
HETATM   18  C   UNL     1      18.455  49.412  47.791  1.00  0.00     0.003 A 
ENDBRANCH   5   7
BRANCH   1  19
HETATM   19  O   UNL     1      23.801  49.369  49.807  1.00  0.00    -0.349 OA
BRANCH  19  20
HETATM   20  C   UNL     1      23.040  50.292  49.036  1.00  0.00     0.171 C 
HETATM   21  C   UNL     1      21.846  50.819  49.813  1.00  0.00     0.034 C 
ENDBRANCH  19  20
ENDBRANCH   1  19
BRANCH   2  22
HETATM   22  O   UNL     1      25.105  47.223  51.385  1.00  0.00    -0.344 OA
BRANCH  22  23
HETATM   23  C   UNL     1      25.788  46.072  51.889  1.00  0.00     0.214 C 
BRANCH  23  24
HETATM   24  C   UNL     1      26.407  46.431  53.218  1.00  0.00    -0.034 A 
HETATM   25  C   UNL     1      25.959  47.555  53.927  1.00  0.00     0.009 A 
HETATM   26  C   UNL     1      26.533  47.893  55.154  1.00  0.00     0.001 A 
HETATM   27  C   UNL     1      27.565  47.116  55.679  1.00  0.00     0.000 A 
HETATM   28  C   UNL     1      28.028  46.006  54.975  1.00  0.00     0.001 A 
HETATM   29  C   UNL     1      27.455  45.666  53.748  1.00  0.00     0.009 A 
ENDBRANCH  23  24
ENDBRANCH  22  23
ENDBRANCH   2  22
TORSDOF 6
ENDMDL
MODEL 10
REMARK VINA RESULT:      -7.8     11.712     15.191
REMARK  6 active torsions:
REMARK  status: ('A' for Active; 'I' for Inactive)
REMARK    1  A    between atoms: C_2  and  O_3 
REMARK    2  A    between atoms: O_3  and  C_4 
REMARK    3  A    between atoms: C_5  and  O_6 
REMARK    4  A    between atoms: O_6  and  C_7 
REMARK    5  A    between atoms: C_7  and  C_8 
REMARK    6  A    between atoms: C_16  and  C_17 
ROOT
HETATM    1  C   UNL     1      34.125  51.270  41.867  1.00  0.00     0.102 A 
HETATM    2  C   UNL     1      33.845  51.637  43.188  1.00  0.00     0.102 A 
HETATM    3  C   UNL     1      32.663  51.187  43.789  1.00  0.00     0.040 A 
HETATM    4  C   UNL     1      31.793  50.330  43.112  1.00  0.00     0.014 A 
HETATM    5  C   UNL     1      32.083  49.892  41.814  1.00  0.00    -0.007 A 
HETATM    6  C   UNL     1      33.244  50.395  41.203  1.00  0.00     0.051 A 
ENDROOT
BRANCH   5   7
HETATM    7  C   UNL     1      31.118  48.969  41.076  1.00  0.00     0.264 C 
HETATM    8  O   UNL     1      31.052  49.270  39.671  1.00  0.00    -0.321 OA
HETATM    9  C   UNL     1      30.228  50.323  39.369  1.00  0.00     0.087 A 
HETATM   10  C   UNL     1      29.154  50.694  40.178  1.00  0.00     0.065 A 
HETATM   11  C   UNL     1      30.478  51.016  38.187  1.00  0.00     0.038 A 
HETATM   12  C   UNL     1      28.875  49.881  41.372  1.00  0.00     0.256 C 
HETATM   13  C   UNL     1      28.340  51.772  39.828  1.00  0.00     0.020 A 
HETATM   14  O   UNL     1      27.879  50.043  42.063  1.00  0.00    -0.267 OA
HETATM   15  N   UNL     1      29.796  48.910  41.641  1.00  0.00    -0.326 N 
HETATM   16  H   UNL     1      29.647  48.400  42.500  1.00  0.00     0.165 HD
HETATM   17  C   UNL     1      28.607  52.481  38.656  1.00  0.00     0.001 A 
HETATM   18  C   UNL     1      29.671  52.100  37.835  1.00  0.00     0.003 A 
ENDBRANCH   5   7
BRANCH   1  19
HETATM   19  O   UNL     1      35.177  51.632  41.069  1.00  0.00    -0.349 OA
BRANCH  19  20
HETATM   20  C   UNL     1      35.007  51.850  39.673  1.00  0.00     0.171 C 
HETATM   21  C   UNL     1      34.577  53.277  39.378  1.00  0.00     0.034 C 
ENDBRANCH  19  20
ENDBRANCH   1  19
BRANCH   2  22
HETATM   22  O   UNL     1      34.678  52.487  43.865  1.00  0.00    -0.344 OA
BRANCH  22  23
HETATM   23  C   UNL     1      36.050  52.083  43.865  1.00  0.00     0.214 C 
BRANCH  23  24
HETATM   24  C   UNL     1      36.909  53.324  43.863  1.00  0.00    -0.034 A 
HETATM   25  C   UNL     1      37.326  53.899  45.072  1.00  0.00     0.009 A 
HETATM   26  C   UNL     1      38.116  55.050  45.073  1.00  0.00     0.001 A 
HETATM   27  C   UNL     1      38.490  55.641  43.867  1.00  0.00     0.000 A 
HETATM   28  C   UNL     1      38.069  55.086  42.660  1.00  0.00     0.001 A 
HETATM   29  C   UNL     1      37.280  53.934  42.656  1.00  0.00     0.009 A 
ENDBRANCH  23  24
ENDBRANCH  22  23
ENDBRANCH   2  22
TORSDOF 6
ENDMDL
