MODEL 1
REMARK VINA RESULT:      -9.0      0.000      0.000
REMARK  4 active torsions:
REMARK  status: ('A' for Active; 'I' for Inactive)
REMARK    1  A    between atoms: C_2  and  C_3 
REMARK    2  A    between atoms: C_3  and  N_4 
REMARK    3  A    between atoms: N_8  and  C_9 
REMARK    4  A    between atoms: C_9  and  C_10 
ROOT
HETATM    1  N   UNL     1      27.328  44.515  52.303  1.00  0.00    -0.061 N 
HETATM    2  H   UNL     1      28.043  45.214  52.531  1.00  0.00     0.280 HD
HETATM    3  C   UNL     1      25.991  45.256  52.374  1.00  0.00     0.216 C 
HETATM    4  C   UNL     1      26.144  46.687  51.777  1.00  0.00     0.305 C 
HETATM    5  N   UNL     1      25.965  46.795  50.328  1.00  0.00     0.095 N 
HETATM    6  C   UNL     1      26.814  45.913  49.526  1.00  0.00     0.279 C 
HETATM    7  C   UNL     1      26.683  44.415  49.867  1.00  0.00     0.040 C 
HETATM    8  C   UNL     1      27.671  43.977  50.938  1.00  0.00     0.242 C 
HETATM    9  C   UNL     1      24.899  44.426  51.695  1.00  0.00     0.035 C 
HETATM   10  C   UNL     1      25.256  44.009  50.264  1.00  0.00     0.010 C 
ENDROOT
BRANCH   1  11
HETATM   11  C   UNL     1      27.499  43.445  53.370  1.00  0.00     0.274 C 
BRANCH  11  12
HETATM   12  C   UNL     1      28.513  43.792  54.426  1.00  0.00    -0.032 A 
HETATM   13  C   UNL     1      29.708  43.063  54.525  1.00  0.00     0.011 A 
HETATM   14  C   UNL     1      30.668  43.362  55.495  1.00  0.00     0.031 A 
HETATM   15  C   UNL     1      30.400  44.421  56.367  1.00  0.00     0.042 A 
HETATM   16  C   UNL     1      29.227  45.172  56.302  1.00  0.00    -0.008 A 
HETATM   17  N   UNL     1      31.158  44.940  57.394  1.00  0.00    -0.365 N 
HETATM   18  C   UNL     1      28.270  44.854  55.318  1.00  0.00     0.022 A 
HETATM   19  C   UNL     1      29.303  46.158  57.322  1.00  0.00     0.030 A 
HETATM   20  C   UNL     1      30.501  45.991  57.978  1.00  0.00     0.089 A 
HETATM   21  H   UNL     1      32.072  44.603  57.667  1.00  0.00     0.165 HD
ENDBRANCH  11  12
ENDBRANCH   1  11
BRANCH   5  22
HETATM   22  C   UNL     1      26.046  48.204  49.885  1.00  0.00     0.311 C 
BRANCH  22  23
HETATM   23  C   UNL     1      24.822  48.660  49.125  1.00  0.00    -0.027 A 
HETATM   24  C   UNL     1      23.653  47.890  49.119  1.00  0.00     0.028 A 
HETATM   25  C   UNL     1      22.559  48.345  48.402  1.00  0.00     0.116 A 
HETATM   26  N   UNL     1      22.548  49.500  47.705  1.00  0.00    -0.273 NA
HETATM   27  C   UNL     1      23.675  50.240  47.736  1.00  0.00     0.116 A 
HETATM   28  C   UNL     1      24.823  49.869  48.422  1.00  0.00     0.028 A 
ENDBRANCH  22  23
ENDBRANCH   5  22
TORSDOF 4
ENDMDL
MODEL 2
REMARK VINA RESULT:      -9.0      1.374      2.105
REMARK  4 active torsions:
REMARK  status: ('A' for Active; 'I' for Inactive)
REMARK    1  A    between atoms: C_2  and  C_3 
REMARK    2  A    between atoms: C_3  and  N_4 
REMARK    3  A    between atoms: N_8  and  C_9 
REMARK    4  A    between atoms: C_9  and  C_10 
ROOT
HETATM    1  N   UNL     1      27.176  44.288  52.024  1.00  0.00    -0.061 N 
HETATM    2  H   UNL     1      27.547  45.181  52.366  1.00  0.00     0.280 HD
HETATM    3  C   UNL     1      25.662  44.364  52.235  1.00  0.00     0.216 C 
HETATM    4  C   UNL     1      25.149  45.796  51.897  1.00  0.00     0.305 C 
HETATM    5  N   UNL     1      24.824  46.041  50.492  1.00  0.00     0.095 N 
HETATM    6  C   UNL     1      25.896  45.745  49.541  1.00  0.00     0.279 C 
HETATM    7  C   UNL     1      26.435  44.303  49.613  1.00  0.00     0.040 C 
HETATM    8  C   UNL     1      27.600  44.169  50.583  1.00  0.00     0.242 C 
HETATM    9  C   UNL     1      24.969  43.263  51.427  1.00  0.00     0.035 C 
HETATM   10  C   UNL     1      25.349  43.268  49.943  1.00  0.00     0.010 C 
ENDROOT
BRANCH   1  11
HETATM   11  C   UNL     1      27.867  43.243  52.885  1.00  0.00     0.274 C 
BRANCH  11  12
HETATM   12  C   UNL     1      28.623  43.816  54.052  1.00  0.00    -0.032 A 
HETATM   13  C   UNL     1      28.318  45.098  54.532  1.00  0.00     0.011 A 
HETATM   14  C   UNL     1      29.003  45.656  55.614  1.00  0.00     0.031 A 
HETATM   15  C   UNL     1      30.007  44.888  56.211  1.00  0.00     0.042 A 
HETATM   16  C   UNL     1      30.341  43.610  55.768  1.00  0.00    -0.008 A 
HETATM   17  N   UNL     1      30.822  45.172  57.285  1.00  0.00    -0.365 N 
HETATM   18  C   UNL     1      29.640  43.065  54.674  1.00  0.00     0.022 A 
HETATM   19  C   UNL     1      31.383  43.133  56.607  1.00  0.00     0.030 A 
HETATM   20  C   UNL     1      31.659  44.116  57.530  1.00  0.00     0.089 A 
HETATM   21  H   UNL     1      30.798  46.029  57.821  1.00  0.00     0.165 HD
ENDBRANCH  11  12
ENDBRANCH   1  11
BRANCH   5  22
HETATM   22  C   UNL     1      24.268  47.399  50.302  1.00  0.00     0.311 C 
BRANCH  22  23
HETATM   23  C   UNL     1      25.196  48.323  49.548  1.00  0.00    -0.027 A 
HETATM   24  C   UNL     1      24.698  49.212  48.589  1.00  0.00     0.028 A 
HETATM   25  C   UNL     1      25.587  50.034  47.917  1.00  0.00     0.116 A 
HETATM   26  N   UNL     1      26.918  50.033  48.135  1.00  0.00    -0.273 NA
HETATM   27  C   UNL     1      27.381  49.184  49.075  1.00  0.00     0.116 A 
HETATM   28  C   UNL     1      26.571  48.320  49.799  1.00  0.00     0.028 A 
ENDBRANCH  22  23
ENDBRANCH   5  22
TORSDOF 4
ENDMDL
MODEL 3
REMARK VINA RESULT:      -8.3      2.171      9.096
REMARK  4 active torsions:
REMARK  status: ('A' for Active; 'I' for Inactive)
REMARK    1  A    between atoms: C_2  and  C_3 
REMARK    2  A    between atoms: C_3  and  N_4 
REMARK    3  A    between atoms: N_8  and  C_9 
REMARK    4  A    between atoms: C_9  and  C_10 
ROOT
HETATM    1  N   UNL     1      23.923  46.819  50.030  1.00  0.00    -0.061 N 
HETATM    2  H   UNL     1      23.228  47.060  50.745  1.00  0.00     0.280 HD
HETATM    3  C   UNL     1      25.275  47.238  50.612  1.00  0.00     0.216 C 
HETATM    4  C   UNL     1      25.324  46.907  52.134  1.00  0.00     0.305 C 
HETATM    5  N   UNL     1      25.756  45.552  52.477  1.00  0.00     0.095 N 
HETATM    6  C   UNL     1      25.001  44.474  51.837  1.00  0.00     0.279 C 
HETATM    7  C   UNL     1      24.970  44.540  50.298  1.00  0.00     0.040 C 
HETATM    8  C   UNL     1      23.785  45.339  49.777  1.00  0.00     0.242 C 
HETATM    9  C   UNL     1      26.409  46.593  49.811  1.00  0.00     0.035 C 
HETATM   10  C   UNL     1      26.276  45.071  49.690  1.00  0.00     0.010 C 
ENDROOT
BRANCH   1  11
HETATM   11  C   UNL     1      23.499  47.622  48.811  1.00  0.00     0.274 C 
BRANCH  11  12
HETATM   12  C   UNL     1      22.482  48.691  49.107  1.00  0.00    -0.032 A 
HETATM   13  C   UNL     1      22.890  50.016  49.319  1.00  0.00     0.011 A 
HETATM   14  C   UNL     1      21.968  51.029  49.597  1.00  0.00     0.031 A 
HETATM   15  C   UNL     1      20.616  50.677  49.653  1.00  0.00     0.042 A 
HETATM   16  C   UNL     1      20.169  49.374  49.446  1.00  0.00    -0.008 A 
HETATM   17  N   UNL     1      19.505  51.456  49.888  1.00  0.00    -0.365 N 
HETATM   18  C   UNL     1      21.113  48.366  49.170  1.00  0.00     0.022 A 
HETATM   19  C   UNL     1      18.752  49.392  49.566  1.00  0.00     0.030 A 
HETATM   20  C   UNL     1      18.373  50.686  49.839  1.00  0.00     0.089 A 
HETATM   21  H   UNL     1      19.522  52.454  50.059  1.00  0.00     0.165 HD
ENDBRANCH  11  12
ENDBRANCH   1  11
BRANCH   5  22
HETATM   22  C   UNL     1      25.848  45.377  53.943  1.00  0.00     0.311 C 
BRANCH  22  23
HETATM   23  C   UNL     1      27.247  45.059  54.418  1.00  0.00    -0.027 A 
HETATM   24  C   UNL     1      27.860  43.846  54.084  1.00  0.00     0.028 A 
HETATM   25  C   UNL     1      29.141  43.596  54.549  1.00  0.00     0.116 A 
HETATM   26  N   UNL     1      29.843  44.460  55.310  1.00  0.00    -0.273 NA
HETATM   27  C   UNL     1      29.246  45.633  55.608  1.00  0.00     0.116 A 
HETATM   28  C   UNL     1      27.967  45.975  55.192  1.00  0.00     0.028 A 
ENDBRANCH  22  23
ENDBRANCH   5  22
TORSDOF 4
ENDMDL
MODEL 4
REMARK VINA RESULT:      -8.2      3.072      5.630
REMARK  4 active torsions:
REMARK  status: ('A' for Active; 'I' for Inactive)
REMARK    1  A    between atoms: C_2  and  C_3 
REMARK    2  A    between atoms: C_3  and  N_4 
REMARK    3  A    between atoms: N_8  and  C_9 
REMARK    4  A    between atoms: C_9  and  C_10 
ROOT
HETATM    1  N   UNL     1      26.687  44.500  52.988  1.00  0.00    -0.061 N 
HETATM    2  H   UNL     1      26.767  43.767  53.701  1.00  0.00     0.280 HD
HETATM    3  C   UNL     1      27.578  44.047  51.829  1.00  0.00     0.216 C 
HETATM    4  C   UNL     1      27.445  42.508  51.627  1.00  0.00     0.305 C 
HETATM    5  N   UNL     1      26.345  42.072  50.765  1.00  0.00     0.095 N 
HETATM    6  C   UNL     1      25.020  42.561  51.148  1.00  0.00     0.279 C 
HETATM    7  C   UNL     1      24.907  44.095  51.247  1.00  0.00     0.040 C 
HETATM    8  C   UNL     1      25.223  44.608  52.644  1.00  0.00     0.242 C 
HETATM    9  C   UNL     1      27.249  44.858  50.573  1.00  0.00     0.035 C 
HETATM   10  C   UNL     1      25.762  44.831  50.205  1.00  0.00     0.010 C 
ENDROOT
BRANCH   1  11
HETATM   11  C   UNL     1      27.177  45.757  53.689  1.00  0.00     0.274 C 
BRANCH  11  12
HETATM   12  C   UNL     1      28.195  45.498  54.766  1.00  0.00    -0.032 A 
HETATM   13  C   UNL     1      28.255  46.327  55.896  1.00  0.00     0.011 A 
HETATM   14  C   UNL     1      29.191  46.111  56.912  1.00  0.00     0.031 A 
HETATM   15  C   UNL     1      30.068  45.032  56.766  1.00  0.00     0.042 A 
HETATM   16  C   UNL     1      30.040  44.184  55.661  1.00  0.00    -0.008 A 
HETATM   17  N   UNL     1      31.065  44.579  57.602  1.00  0.00    -0.365 N 
HETATM   18  C   UNL     1      29.092  44.419  54.646  1.00  0.00     0.022 A 
HETATM   19  C   UNL     1      31.054  43.207  55.856  1.00  0.00     0.030 A 
HETATM   20  C   UNL     1      31.668  43.476  57.058  1.00  0.00     0.089 A 
HETATM   21  H   UNL     1      31.308  44.994  58.493  1.00  0.00     0.165 HD
ENDBRANCH  11  12
ENDBRANCH   1  11
BRANCH   5  22
HETATM   22  C   UNL     1      26.367  40.605  50.575  1.00  0.00     0.311 C 
BRANCH  22  23
HETATM   23  C   UNL     1      26.947  40.186  49.244  1.00  0.00    -0.027 A 
HETATM   24  C   UNL     1      26.987  38.837  48.873  1.00  0.00     0.028 A 
HETATM   25  C   UNL     1      27.536  38.499  47.647  1.00  0.00     0.116 A 
HETATM   26  N   UNL     1      28.036  39.400  46.777  1.00  0.00    -0.273 NA
HETATM   27  C   UNL     1      27.974  40.697  47.142  1.00  0.00     0.116 A 
HETATM   28  C   UNL     1      27.447  41.135  48.348  1.00  0.00     0.028 A 
ENDBRANCH  22  23
ENDBRANCH   5  22
TORSDOF 4
ENDMDL
MODEL 5
REMARK VINA RESULT:      -7.8      6.324     12.857
REMARK  4 active torsions:
REMARK  status: ('A' for Active; 'I' for Inactive)
REMARK    1  A    between atoms: C_2  and  C_3 
REMARK    2  A    between atoms: C_3  and  N_4 
REMARK    3  A    between atoms: N_8  and  C_9 
REMARK    4  A    between atoms: C_9  and  C_10 
ROOT
HETATM    1  N   UNL     1      17.929  50.624  48.147  1.00  0.00    -0.061 N 
HETATM    2  H   UNL     1      18.089  50.964  47.193  1.00  0.00     0.280 HD
HETATM    3  C   UNL     1      18.728  49.323  48.260  1.00  0.00     0.216 C 
HETATM    4  C   UNL     1      20.092  49.471  47.522  1.00  0.00     0.305 C 
HETATM    5  N   UNL     1      21.183  50.045  48.311  1.00  0.00     0.095 N 
HETATM    6  C   UNL     1      20.896  51.341  48.926  1.00  0.00     0.279 C 
HETATM    7  C   UNL     1      19.653  51.357  49.836  1.00  0.00     0.040 C 
HETATM    8  C   UNL     1      18.385  51.719  49.076  1.00  0.00     0.242 C 
HETATM    9  C   UNL     1      18.871  48.927  49.732  1.00  0.00     0.035 C 
HETATM   10  C   UNL     1      19.452  50.043  50.607  1.00  0.00     0.010 C 
ENDROOT
BRANCH   1  11
HETATM   11  C   UNL     1      16.423  50.432  48.227  1.00  0.00     0.274 C 
BRANCH  11  12
HETATM   12  C   UNL     1      15.655  51.709  48.435  1.00  0.00    -0.032 A 
HETATM   13  C   UNL     1      15.326  52.523  47.341  1.00  0.00     0.011 A 
HETATM   14  C   UNL     1      14.615  53.715  47.505  1.00  0.00     0.031 A 
HETATM   15  C   UNL     1      14.235  54.070  48.802  1.00  0.00     0.042 A 
HETATM   16  C   UNL     1      14.540  53.289  49.916  1.00  0.00    -0.008 A 
HETATM   17  N   UNL     1      13.526  55.162  49.253  1.00  0.00    -0.365 N 
HETATM   18  C   UNL     1      15.259  52.092  49.731  1.00  0.00     0.022 A 
HETATM   19  C   UNL     1      13.992  53.946  51.052  1.00  0.00     0.030 A 
HETATM   20  C   UNL     1      13.376  55.096  50.613  1.00  0.00     0.089 A 
HETATM   21  H   UNL     1      13.158  55.898  48.664  1.00  0.00     0.165 HD
ENDBRANCH  11  12
ENDBRANCH   1  11
BRANCH   5  22
HETATM   22  C   UNL     1      22.446  50.058  47.541  1.00  0.00     0.311 C 
BRANCH  22  23
HETATM   23  C   UNL     1      23.610  49.456  48.295  1.00  0.00    -0.027 A 
HETATM   24  C   UNL     1      23.412  48.402  49.195  1.00  0.00     0.028 A 
HETATM   25  C   UNL     1      24.507  47.888  49.869  1.00  0.00     0.116 A 
HETATM   26  N   UNL     1      25.767  48.341  49.706  1.00  0.00    -0.273 NA
HETATM   27  C   UNL     1      25.944  49.344  48.822  1.00  0.00     0.116 A 
HETATM   28  C   UNL     1      24.912  49.927  48.101  1.00  0.00     0.028 A 
ENDBRANCH  22  23
ENDBRANCH   5  22
TORSDOF 4
ENDMDL
MODEL 6
REMARK VINA RESULT:      -7.7      2.775      3.541
REMARK  4 active torsions:
REMARK  status: ('A' for Active; 'I' for Inactive)
REMARK    1  A    between atoms: C_2  and  C_3 
REMARK    2  A    between atoms: C_3  and  N_4 
REMARK    3  A    between atoms: N_8  and  C_9 
REMARK    4  A    between atoms: C_9  and  C_10 
ROOT
HETATM    1  N   UNL     1      27.251  43.364  51.969  1.00  0.00    -0.061 N 
HETATM    2  H   UNL     1      26.866  44.018  52.659  1.00  0.00     0.280 HD
HETATM    3  C   UNL     1      26.093  42.441  51.585  1.00  0.00     0.216 C 
HETATM    4  C   UNL     1      24.772  43.260  51.481  1.00  0.00     0.305 C 
HETATM    5  N   UNL     1      24.514  43.890  50.185  1.00  0.00     0.095 N 
HETATM    6  C   UNL     1      25.584  44.755  49.686  1.00  0.00     0.279 C 
HETATM    7  C   UNL     1      26.958  44.067  49.565  1.00  0.00     0.040 C 
HETATM    8  C   UNL     1      27.785  44.201  50.835  1.00  0.00     0.242 C 
HETATM    9  C   UNL     1      26.440  41.678  50.303  1.00  0.00     0.035 C 
HETATM   10  C   UNL     1      26.861  42.593  49.148  1.00  0.00     0.010 C 
ENDROOT
BRANCH   1  11
HETATM   11  C   UNL     1      28.380  42.664  52.709  1.00  0.00     0.274 C 
BRANCH  11  12
HETATM   12  C   UNL     1      28.903  43.432  53.892  1.00  0.00    -0.032 A 
HETATM   13  C   UNL     1      28.358  44.681  54.222  1.00  0.00     0.011 A 
HETATM   14  C   UNL     1      28.824  45.417  55.315  1.00  0.00     0.031 A 
HETATM   15  C   UNL     1      29.856  44.862  56.077  1.00  0.00     0.042 A 
HETATM   16  C   UNL     1      30.425  43.624  55.785  1.00  0.00    -0.008 A 
HETATM   17  N   UNL     1      30.491  45.347  57.199  1.00  0.00    -0.365 N 
HETATM   18  C   UNL     1      29.943  42.897  54.678  1.00  0.00     0.022 A 
HETATM   19  C   UNL     1      31.424  43.379  56.766  1.00  0.00     0.030 A 
HETATM   20  C   UNL     1      31.443  44.457  57.621  1.00  0.00     0.089 A 
HETATM   21  H   UNL     1      30.278  46.226  57.652  1.00  0.00     0.165 HD
ENDBRANCH  11  12
ENDBRANCH   1  11
BRANCH   5  22
HETATM   22  C   UNL     1      23.198  44.565  50.175  1.00  0.00     0.311 C 
BRANCH  22  23
HETATM   23  C   UNL     1      22.360  44.219  48.965  1.00  0.00    -0.027 A 
HETATM   24  C   UNL     1      21.230  44.976  48.635  1.00  0.00     0.028 A 
HETATM   25  C   UNL     1      20.488  44.615  47.522  1.00  0.00     0.116 A 
HETATM   26  N   UNL     1      20.794  43.571  46.725  1.00  0.00    -0.273 NA
HETATM   27  C   UNL     1      21.896  42.863  47.046  1.00  0.00     0.116 A 
HETATM   28  C   UNL     1      22.701  43.142  48.141  1.00  0.00     0.028 A 
ENDBRANCH  22  23
ENDBRANCH   5  22
TORSDOF 4
ENDMDL
MODEL 7
REMARK VINA RESULT:      -7.7      3.283      5.380
REMARK  4 active torsions:
REMARK  status: ('A' for Active; 'I' for Inactive)
REMARK    1  A    between atoms: C_2  and  C_3 
REMARK    2  A    between atoms: C_3  and  N_4 
REMARK    3  A    between atoms: N_8  and  C_9 
REMARK    4  A    between atoms: C_9  and  C_10 
ROOT
HETATM    1  N   UNL     1      26.184  44.101  51.830  1.00  0.00    -0.061 N 
HETATM    2  H   UNL     1      26.692  43.368  52.337  1.00  0.00     0.280 HD
HETATM    3  C   UNL     1      26.926  44.274  50.503  1.00  0.00     0.216 C 
HETATM    4  C   UNL     1      27.377  42.884  49.962  1.00  0.00     0.305 C 
HETATM    5  N   UNL     1      26.392  42.164  49.155  1.00  0.00     0.095 N 
HETATM    6  C   UNL     1      25.089  41.963  49.791  1.00  0.00     0.279 C 
HETATM    7  C   UNL     1      24.399  43.259  50.259  1.00  0.00     0.040 C 
HETATM    8  C   UNL     1      24.761  43.621  51.692  1.00  0.00     0.242 C 
HETATM    9  C   UNL     1      26.054  45.057  49.518  1.00  0.00     0.035 C 
HETATM   10  C   UNL     1      24.659  44.452  49.328  1.00  0.00     0.010 C 
ENDROOT
BRANCH   1  11
HETATM   11  C   UNL     1      26.264  45.312  52.746  1.00  0.00     0.274 C 
BRANCH  11  12
HETATM   12  C   UNL     1      27.385  45.247  53.748  1.00  0.00    -0.032 A 
HETATM   13  C   UNL     1      27.575  46.290  54.665  1.00  0.00     0.011 A 
HETATM   14  C   UNL     1      28.607  46.257  55.607  1.00  0.00     0.031 A 
HETATM   15  C   UNL     1      29.448  45.141  55.607  1.00  0.00     0.042 A 
HETATM   16  C   UNL     1      29.293  44.081  54.715  1.00  0.00    -0.008 A 
HETATM   17  N   UNL     1      30.519  44.836  56.418  1.00  0.00    -0.365 N 
HETATM   18  C   UNL     1      28.247  44.134  53.772  1.00  0.00     0.022 A 
HETATM   19  C   UNL     1      30.306  43.130  55.012  1.00  0.00     0.030 A 
HETATM   20  C   UNL     1      31.045  43.622  56.063  1.00  0.00     0.089 A 
HETATM   21  H   UNL     1      30.859  45.418  57.172  1.00  0.00     0.165 HD
ENDBRANCH  11  12
ENDBRANCH   1  11
BRANCH   5  22
HETATM   22  C   UNL     1      26.956  40.904  48.625  1.00  0.00     0.311 C 
BRANCH  22  23
HETATM   23  C   UNL     1      26.956  40.840  47.115  1.00  0.00    -0.027 A 
HETATM   24  C   UNL     1      25.756  40.747  46.401  1.00  0.00     0.028 A 
HETATM   25  C   UNL     1      25.807  40.683  45.018  1.00  0.00     0.116 A 
HETATM   26  N   UNL     1      26.953  40.709  44.309  1.00  0.00    -0.273 NA
HETATM   27  C   UNL     1      28.100  40.818  45.010  1.00  0.00     0.116 A 
HETATM   28  C   UNL     1      28.154  40.886  46.395  1.00  0.00     0.028 A 
ENDBRANCH  22  23
ENDBRANCH   5  22
TORSDOF 4
ENDMDL
MODEL 8
REMARK VINA RESULT:      -7.6      6.376     11.081
REMARK  4 active torsions:
REMARK  status: ('A' for Active; 'I' for Inactive)
REMARK    1  A    between atoms: C_2  and  C_3 
REMARK    2  A    between atoms: C_3  and  N_4 
REMARK    3  A    between atoms: N_8  and  C_9 
REMARK    4  A    between atoms: C_9  and  C_10 
ROOT
HETATM    1  N   UNL     1      18.594  49.648  48.499  1.00  0.00    -0.061 N 
HETATM    2  H   UNL     1      17.956  49.048  49.035  1.00  0.00     0.280 HD
HETATM    3  C   UNL     1      17.700  50.473  47.571  1.00  0.00     0.216 C 
HETATM    4  C   UNL     1      16.404  50.899  48.322  1.00  0.00     0.305 C 
HETATM    5  N   UNL     1      16.495  52.135  49.100  1.00  0.00     0.095 N 
HETATM    6  C   UNL     1      17.581  52.177  50.081  1.00  0.00     0.279 C 
HETATM    7  C   UNL     1      18.984  51.933  49.493  1.00  0.00     0.040 C 
HETATM    8  C   UNL     1      19.368  50.460  49.506  1.00  0.00     0.242 C 
HETATM    9  C   UNL     1      18.491  51.654  47.003  1.00  0.00     0.035 C 
HETATM   10  C   UNL     1      19.157  52.514  48.082  1.00  0.00     0.010 C 
ENDROOT
BRANCH   1  11
HETATM   11  C   UNL     1      19.503  48.670  47.773  1.00  0.00     0.274 C 
BRANCH  11  12
HETATM   12  C   UNL     1      20.969  48.903  48.017  1.00  0.00    -0.032 A 
HETATM   13  C   UNL     1      21.604  50.034  47.483  1.00  0.00     0.011 A 
HETATM   14  C   UNL     1      22.965  50.276  47.693  1.00  0.00     0.031 A 
HETATM   15  C   UNL     1      23.677  49.349  48.461  1.00  0.00     0.042 A 
HETATM   16  C   UNL     1      23.084  48.214  49.011  1.00  0.00    -0.008 A 
HETATM   17  N   UNL     1      25.002  49.339  48.837  1.00  0.00    -0.365 N 
HETATM   18  C   UNL     1      21.712  47.987  48.787  1.00  0.00     0.022 A 
HETATM   19  C   UNL     1      24.095  47.519  49.729  1.00  0.00     0.030 A 
HETATM   20  C   UNL     1      25.264  48.234  49.603  1.00  0.00     0.089 A 
HETATM   21  H   UNL     1      25.679  50.051  48.594  1.00  0.00     0.165 HD
ENDBRANCH  11  12
ENDBRANCH   1  11
BRANCH   5  22
HETATM   22  C   UNL     1      15.188  52.487  49.697  1.00  0.00     0.311 C 
BRANCH  22  23
HETATM   23  C   UNL     1      14.727  53.882  49.341  1.00  0.00    -0.027 A 
HETATM   24  C   UNL     1      14.134  54.145  48.101  1.00  0.00     0.028 A 
HETATM   25  C   UNL     1      13.734  55.441  47.816  1.00  0.00     0.116 A 
HETATM   26  N   UNL     1      13.879  56.474  48.670  1.00  0.00    -0.273 NA
HETATM   27  C   UNL     1      14.435  56.200  49.868  1.00  0.00     0.116 A 
HETATM   28  C   UNL     1      14.870  54.938  50.246  1.00  0.00     0.028 A 
ENDBRANCH  22  23
ENDBRANCH   5  22
TORSDOF 4
ENDMDL
MODEL 9
REMARK VINA RESULT:      -7.5      2.771      5.763
REMARK  4 active torsions:
REMARK  status: ('A' for Active; 'I' for Inactive)
REMARK    1  A    between atoms: C_2  and  C_3 
REMARK    2  A    between atoms: C_3  and  N_4 
REMARK    3  A    between atoms: N_8  and  C_9 
REMARK    4  A    between atoms: C_9  and  C_10 
ROOT
HETATM    1  N   UNL     1      26.454  44.573  52.043  1.00  0.00    -0.061 N 
HETATM    2  H   UNL     1      27.349  44.080  52.120  1.00  0.00     0.280 HD
HETATM    3  C   UNL     1      26.368  45.048  50.591  1.00  0.00     0.216 C 
HETATM    4  C   UNL     1      26.931  43.951  49.639  1.00  0.00     0.305 C 
HETATM    5  N   UNL     1      25.977  42.927  49.212  1.00  0.00     0.095 N 
HETATM    6  C   UNL     1      25.284  42.228  50.295  1.00  0.00     0.279 C 
HETATM    7  C   UNL     1      24.522  43.149  51.268  1.00  0.00     0.040 C 
HETATM    8  C   UNL     1      25.384  43.589  52.442  1.00  0.00     0.242 C 
HETATM    9  C   UNL     1      24.931  45.461  50.263  1.00  0.00     0.035 C 
HETATM   10  C   UNL     1      23.900  44.372  50.579  1.00  0.00     0.010 C 
ENDROOT
BRANCH   1  11
HETATM   11  C   UNL     1      26.561  45.702  53.057  1.00  0.00     0.274 C 
BRANCH  11  12
HETATM   12  C   UNL     1      27.654  45.507  54.073  1.00  0.00    -0.032 A 
HETATM   13  C   UNL     1      27.834  46.440  55.105  1.00  0.00     0.011 A 
HETATM   14  C   UNL     1      28.841  46.286  56.062  1.00  0.00     0.031 A 
HETATM   15  C   UNL     1      29.667  45.163  55.959  1.00  0.00     0.042 A 
HETATM   16  C   UNL     1      29.521  44.212  54.950  1.00  0.00    -0.008 A 
HETATM   17  N   UNL     1      30.713  44.753  56.756  1.00  0.00    -0.365 N 
HETATM   18  C   UNL     1      28.501  44.385  53.994  1.00  0.00     0.022 A 
HETATM   19  C   UNL     1      30.513  43.217  55.165  1.00  0.00     0.030 A 
HETATM   20  C   UNL     1      31.232  43.577  56.282  1.00  0.00     0.089 A 
HETATM   21  H   UNL     1      31.041  45.242  57.579  1.00  0.00     0.165 HD
ENDBRANCH  11  12
ENDBRANCH   1  11
BRANCH   5  22
HETATM   22  C   UNL     1      26.595  41.992  48.247  1.00  0.00     0.311 C 
BRANCH  22  23
HETATM   23  C   UNL     1      27.059  40.701  48.882  1.00  0.00    -0.027 A 
HETATM   24  C   UNL     1      28.179  40.678  49.721  1.00  0.00     0.028 A 
HETATM   25  C   UNL     1      28.572  39.470  50.274  1.00  0.00     0.116 A 
HETATM   26  N   UNL     1      27.932  38.303  50.055  1.00  0.00    -0.273 NA
HETATM   27  C   UNL     1      26.844  38.345  49.258  1.00  0.00     0.116 A 
HETATM   28  C   UNL     1      26.374  39.504  48.657  1.00  0.00     0.028 A 
ENDBRANCH  22  23
ENDBRANCH   5  22
TORSDOF 4
ENDMDL
MODEL 10
REMARK VINA RESULT:      -7.4     16.319     18.274
REMARK  4 active torsions:
REMARK  status: ('A' for Active; 'I' for Inactive)
REMARK    1  A    between atoms: C_2  and  C_3 
REMARK    2  A    between atoms: C_3  and  N_4 
REMARK    3  A    between atoms: N_8  and  C_9 
REMARK    4  A    between atoms: C_9  and  C_10 
ROOT
HETATM    1  N   UNL     1      36.434  45.726  66.191  1.00  0.00    -0.061 N 
HETATM    2  H   UNL     1      36.102  45.527  67.141  1.00  0.00     0.280 HD
HETATM    3  C   UNL     1      35.921  47.129  65.861  1.00  0.00     0.216 C 
HETATM    4  C   UNL     1      36.034  48.045  67.116  1.00  0.00     0.305 C 
HETATM    5  N   UNL     1      37.322  48.713  67.304  1.00  0.00     0.095 N 
HETATM    6  C   UNL     1      38.488  47.829  67.324  1.00  0.00     0.279 C 
HETATM    7  C   UNL     1      38.640  46.942  66.073  1.00  0.00     0.040 C 
HETATM    8  C   UNL     1      37.936  45.602  66.226  1.00  0.00     0.242 C 
HETATM    9  C   UNL     1      36.661  47.678  64.638  1.00  0.00     0.035 C 
HETATM   10  C   UNL     1      38.186  47.636  64.782  1.00  0.00     0.010 C 
ENDROOT
BRANCH   1  11
HETATM   11  C   UNL     1      35.815  44.626  65.343  1.00  0.00     0.274 C 
BRANCH  11  12
HETATM   12  C   UNL     1      36.821  43.782  64.608  1.00  0.00    -0.032 A 
HETATM   13  C   UNL     1      37.459  44.279  63.462  1.00  0.00     0.011 A 
HETATM   14  C   UNL     1      38.397  43.517  62.760  1.00  0.00     0.031 A 
HETATM   15  C   UNL     1      38.685  42.238  63.242  1.00  0.00     0.042 A 
HETATM   16  C   UNL     1      38.076  41.707  64.378  1.00  0.00    -0.008 A 
HETATM   17  N   UNL     1      39.563  41.287  62.770  1.00  0.00    -0.365 N 
HETATM   18  C   UNL     1      37.131  42.489  65.072  1.00  0.00     0.022 A 
HETATM   19  C   UNL     1      38.614  40.406  64.574  1.00  0.00     0.030 A 
HETATM   20  C   UNL     1      39.525  40.175  63.569  1.00  0.00     0.089 A 
HETATM   21  H   UNL     1      40.158  41.399  61.959  1.00  0.00     0.165 HD
ENDBRANCH  11  12
ENDBRANCH   1  11
BRANCH   5  22
HETATM   22  C   UNL     1      37.287  49.620  68.472  1.00  0.00     0.311 C 
BRANCH  22  23
HETATM   23  C   UNL     1      37.323  51.082  68.093  1.00  0.00    -0.027 A 
HETATM   24  C   UNL     1      36.937  52.069  69.007  1.00  0.00     0.028 A 
HETATM   25  C   UNL     1      36.979  53.396  68.611  1.00  0.00     0.116 A 
HETATM   26  N   UNL     1      37.377  53.801  67.388  1.00  0.00    -0.273 NA
HETATM   27  C   UNL     1      37.764  52.839  66.525  1.00  0.00     0.116 A 
HETATM   28  C   UNL     1      37.755  51.484  66.825  1.00  0.00     0.028 A 
ENDBRANCH  22  23
ENDBRANCH   5  22
TORSDOF 4
ENDMDL
