MODEL 1
REMARK VINA RESULT:      -9.6      0.000      0.000
REMARK  7 active torsions:
REMARK  status: ('A' for Active; 'I' for Inactive)
REMARK       I    between atoms: C_2  and  N_3 
REMARK    1  A    between atoms: N_3  and  C_4 
REMARK    2  A    between atoms: C_7  and  C_8 
REMARK    3  A    between atoms: C_8  and  C_9 
REMARK       I    between atoms: C_9  and  N_10 
REMARK    4  A    between atoms: N_10  and  C_11 
REMARK    5  A    between atoms: C_11  and  C_12 
REMARK    6  A    between atoms: C_14  and  O_15 
REMARK    7  A    between atoms: O_15  and  C_16 
ROOT
HETATM    1  C   UNL     1      25.675  44.490  51.330  1.00  0.00     0.222 C 
HETATM    2  N   UNL     1      26.090  45.723  50.874  1.00  0.00    -0.357 N 
HETATM    3  O   UNL     1      24.552  44.282  51.780  1.00  0.00    -0.273 OA
HETATM    4  H   UNL     1      26.882  45.757  50.245  1.00  0.00     0.162 HD
ENDROOT
BRANCH   2   5
HETATM    5  C   UNL     1      25.164  46.834  50.839  1.00  0.00     0.161 C 
BRANCH   5   6
HETATM    6  C   UNL     1      25.573  47.894  49.849  1.00  0.00    -0.038 A 
HETATM    7  C   UNL     1      24.594  48.539  49.074  1.00  0.00     0.046 A 
HETATM    8  C   UNL     1      24.950  49.548  48.174  1.00  0.00     0.078 A 
HETATM    9  C   UNL     1      26.281  49.952  48.073  1.00  0.00     0.037 A 
HETATM   10  C   UNL     1      27.260  49.336  48.851  1.00  0.00     0.003 A 
HETATM   11  C   UNL     1      26.906  48.319  49.739  1.00  0.00     0.009 A 
BRANCH   8  12
HETATM   12  O   UNL     1      24.036  50.277  47.447  1.00  0.00    -0.292 OA
BRANCH  12  13
HETATM   13  C   UNL     1      22.697  50.212  47.809  1.00  0.00     0.169 A 
HETATM   14  N   UNL     1      21.915  49.213  47.338  1.00  0.00    -0.237 NA
HETATM   15  C   UNL     1      20.614  49.246  47.697  1.00  0.00     0.119 A 
HETATM   16  C   UNL     1      20.057  50.233  48.496  1.00  0.00     0.019 A 
HETATM   17  C   UNL     1      20.882  51.257  48.951  1.00  0.00     0.006 A 
HETATM   18  C   UNL     1      22.227  51.253  48.597  1.00  0.00     0.058 A 
ENDBRANCH  12  13
ENDBRANCH   8  12
ENDBRANCH   5   6
ENDBRANCH   2   5
BRANCH   1  19
HETATM   19  C   UNL     1      26.733  43.406  51.251  1.00  0.00     0.141 C 
BRANCH  19  20
HETATM   20  C   UNL     1      27.670  43.294  52.432  1.00  0.00    -0.049 A 
HETATM   21  C   UNL     1      27.270  43.500  53.757  1.00  0.00     0.010 A 
HETATM   22  C   UNL     1      28.192  43.405  54.810  1.00  0.00     0.030 A 
HETATM   23  C   UNL     1      29.533  43.118  54.559  1.00  0.00     0.034 A 
HETATM   24  C   UNL     1      29.940  42.927  53.235  1.00  0.00     0.030 A 
HETATM   25  C   UNL     1      29.021  43.014  52.185  1.00  0.00     0.010 A 
BRANCH  23  26
HETATM   26  N   UNL     1      30.524  43.017  55.558  1.00  0.00    -0.328 N 
HETATM   27  C   UNL     1      31.019  44.028  56.360  1.00  0.00     0.218 C 
HETATM   28  C   UNL     1      32.093  43.557  57.309  1.00  0.00     0.117 C 
HETATM   29  O   UNL     1      30.670  45.205  56.361  1.00  0.00    -0.274 OA
HETATM   30  H   UNL     1      30.905  42.091  55.701  1.00  0.00     0.169 HD
ENDBRANCH  23  26
ENDBRANCH  19  20
ENDBRANCH   1  19
TORSDOF 7
ENDMDL
MODEL 2
REMARK VINA RESULT:      -9.1      2.188      2.912
REMARK  7 active torsions:
REMARK  status: ('A' for Active; 'I' for Inactive)
REMARK       I    between atoms: C_2  and  N_3 
REMARK    1  A    between atoms: N_3  and  C_4 
REMARK    2  A    between atoms: C_7  and  C_8 
REMARK    3  A    between atoms: C_8  and  C_9 
REMARK       I    between atoms: C_9  and  N_10 
REMARK    4  A    between atoms: N_10  and  C_11 
REMARK    5  A    between atoms: C_11  and  C_12 
REMARK    6  A    between atoms: C_14  and  O_15 
REMARK    7  A    between atoms: O_15  and  C_16 
ROOT
HETATM    1  C   UNL     1      25.636  46.951  51.644  1.00  0.00     0.222 C 
HETATM    2  N   UNL     1      24.358  46.858  51.136  1.00  0.00    -0.357 N 
HETATM    3  O   UNL     1      26.644  46.810  50.958  1.00  0.00    -0.273 OA
HETATM    4  H   UNL     1      23.604  47.283  51.662  1.00  0.00     0.162 HD
ENDROOT
BRANCH   2   5
HETATM    5  C   UNL     1      24.151  46.658  49.719  1.00  0.00     0.161 C 
BRANCH   5   6
HETATM    6  C   UNL     1      23.741  47.924  49.012  1.00  0.00    -0.038 A 
HETATM    7  C   UNL     1      22.420  48.071  48.556  1.00  0.00     0.046 A 
HETATM    8  C   UNL     1      22.012  49.252  47.926  1.00  0.00     0.078 A 
HETATM    9  C   UNL     1      22.908  50.311  47.786  1.00  0.00     0.037 A 
HETATM   10  C   UNL     1      24.216  50.187  48.252  1.00  0.00     0.003 A 
HETATM   11  C   UNL     1      24.627  49.003  48.868  1.00  0.00     0.009 A 
BRANCH   8  12
HETATM   12  O   UNL     1      20.716  49.494  47.532  1.00  0.00    -0.292 OA
BRANCH  12  13
HETATM   13  C   UNL     1      19.969  50.427  48.240  1.00  0.00     0.169 A 
HETATM   14  N   UNL     1      19.792  50.283  49.573  1.00  0.00    -0.237 NA
HETATM   15  C   UNL     1      19.015  51.205  50.180  1.00  0.00     0.119 A 
HETATM   16  C   UNL     1      18.402  52.257  49.518  1.00  0.00     0.019 A 
HETATM   17  C   UNL     1      18.588  52.370  48.145  1.00  0.00     0.006 A 
HETATM   18  C   UNL     1      19.381  51.434  47.488  1.00  0.00     0.058 A 
ENDBRANCH  12  13
ENDBRANCH   8  12
ENDBRANCH   5   6
ENDBRANCH   2   5
BRANCH   1  19
HETATM   19  C   UNL     1      25.699  47.222  53.135  1.00  0.00     0.141 C 
BRANCH  19  20
HETATM   20  C   UNL     1      26.795  46.518  53.900  1.00  0.00    -0.049 A 
HETATM   21  C   UNL     1      26.912  45.125  53.977  1.00  0.00     0.010 A 
HETATM   22  C   UNL     1      27.939  44.528  54.722  1.00  0.00     0.030 A 
HETATM   23  C   UNL     1      28.859  45.310  55.420  1.00  0.00     0.034 A 
HETATM   24  C   UNL     1      28.736  46.701  55.360  1.00  0.00     0.030 A 
HETATM   25  C   UNL     1      27.718  47.298  54.611  1.00  0.00     0.010 A 
BRANCH  23  26
HETATM   26  N   UNL     1      29.912  44.789  56.202  1.00  0.00    -0.328 N 
HETATM   27  C   UNL     1      30.803  43.791  55.856  1.00  0.00     0.218 C 
HETATM   28  C   UNL     1      31.789  43.474  56.955  1.00  0.00     0.117 C 
HETATM   29  O   UNL     1      30.853  43.184  54.791  1.00  0.00    -0.274 OA
HETATM   30  H   UNL     1      30.022  45.205  57.117  1.00  0.00     0.169 HD
ENDBRANCH  23  26
ENDBRANCH  19  20
ENDBRANCH   1  19
TORSDOF 7
ENDMDL
MODEL 3
REMARK VINA RESULT:      -9.0      4.072      8.991
REMARK  7 active torsions:
REMARK  status: ('A' for Active; 'I' for Inactive)
REMARK       I    between atoms: C_2  and  N_3 
REMARK    1  A    between atoms: N_3  and  C_4 
REMARK    2  A    between atoms: C_7  and  C_8 
REMARK    3  A    between atoms: C_8  and  C_9 
REMARK       I    between atoms: C_9  and  N_10 
REMARK    4  A    between atoms: N_10  and  C_11 
REMARK    5  A    between atoms: C_11  and  C_12 
REMARK    6  A    between atoms: C_14  and  O_15 
REMARK    7  A    between atoms: O_15  and  C_16 
ROOT
HETATM    1  C   UNL     1      26.724  47.757  55.456  1.00  0.00     0.222 C 
HETATM    2  N   UNL     1      27.849  46.967  55.549  1.00  0.00    -0.357 N 
HETATM    3  O   UNL     1      26.149  48.228  56.433  1.00  0.00    -0.273 OA
HETATM    4  H   UNL     1      28.438  46.878  54.730  1.00  0.00     0.162 HD
ENDROOT
BRANCH   2   5
HETATM    5  C   UNL     1      28.456  46.715  56.837  1.00  0.00     0.161 C 
BRANCH   5   6
HETATM    6  C   UNL     1      29.460  45.592  56.792  1.00  0.00    -0.038 A 
HETATM    7  C   UNL     1      29.588  44.818  55.627  1.00  0.00     0.046 A 
HETATM    8  C   UNL     1      30.536  43.792  55.554  1.00  0.00     0.078 A 
HETATM    9  C   UNL     1      31.395  43.562  56.629  1.00  0.00     0.037 A 
HETATM   10  C   UNL     1      31.293  44.336  57.783  1.00  0.00     0.003 A 
HETATM   11  C   UNL     1      30.337  45.350  57.861  1.00  0.00     0.009 A 
BRANCH   8  12
HETATM   12  O   UNL     1      30.771  43.052  54.418  1.00  0.00    -0.292 OA
BRANCH  12  13
HETATM   13  C   UNL     1      29.684  42.626  53.666  1.00  0.00     0.169 A 
HETATM   14  N   UNL     1      28.993  41.523  54.036  1.00  0.00    -0.237 NA
HETATM   15  C   UNL     1      27.980  41.148  53.227  1.00  0.00     0.119 A 
HETATM   16  C   UNL     1      27.629  41.816  52.064  1.00  0.00     0.019 A 
HETATM   17  C   UNL     1      28.368  42.937  51.700  1.00  0.00     0.006 A 
HETATM   18  C   UNL     1      29.421  43.349  52.510  1.00  0.00     0.058 A 
ENDBRANCH  12  13
ENDBRANCH   8  12
ENDBRANCH   5   6
ENDBRANCH   2   5
BRANCH   1  19
HETATM   19  C   UNL     1      26.234  47.985  54.038  1.00  0.00     0.141 C 
BRANCH  19  20
HETATM   20  C   UNL     1      25.742  46.765  53.293  1.00  0.00    -0.049 A 
HETATM   21  C   UNL     1      25.701  45.483  53.853  1.00  0.00     0.010 A 
HETATM   22  C   UNL     1      25.254  44.385  53.104  1.00  0.00     0.030 A 
HETATM   23  C   UNL     1      24.856  44.543  51.777  1.00  0.00     0.034 A 
HETATM   24  C   UNL     1      24.910  45.819  51.209  1.00  0.00     0.030 A 
HETATM   25  C   UNL     1      25.347  46.916  51.957  1.00  0.00     0.010 A 
BRANCH  23  26
HETATM   26  N   UNL     1      24.406  43.489  50.952  1.00  0.00    -0.328 N 
HETATM   27  C   UNL     1      24.970  43.044  49.771  1.00  0.00     0.218 C 
HETATM   28  C   UNL     1      24.204  41.904  49.145  1.00  0.00     0.117 C 
HETATM   29  O   UNL     1      25.983  43.476  49.230  1.00  0.00    -0.274 OA
HETATM   30  H   UNL     1      23.578  43.007  51.275  1.00  0.00     0.169 HD
ENDBRANCH  23  26
ENDBRANCH  19  20
ENDBRANCH   1  19
TORSDOF 7
ENDMDL
MODEL 4
REMARK VINA RESULT:      -8.9      1.491      2.058
REMARK  7 active torsions:
REMARK  status: ('A' for Active; 'I' for Inactive)
REMARK       I    between atoms: C_2  and  N_3 
REMARK    1  A    between atoms: N_3  and  C_4 
REMARK    2  A    between atoms: C_7  and  C_8 
REMARK    3  A    between atoms: C_8  and  C_9 
REMARK       I    between atoms: C_9  and  N_10 
REMARK    4  A    between atoms: N_10  and  C_11 
REMARK    5  A    between atoms: C_11  and  C_12 
REMARK    6  A    between atoms: C_14  and  O_15 
REMARK    7  A    between atoms: O_15  and  C_16 
ROOT
HETATM    1  C   UNL     1      26.588  45.680  50.326  1.00  0.00     0.222 C 
HETATM    2  N   UNL     1      26.195  46.954  50.678  1.00  0.00    -0.357 N 
HETATM    3  O   UNL     1      27.228  45.431  49.309  1.00  0.00    -0.273 OA
HETATM    4  H   UNL     1      25.959  47.129  51.647  1.00  0.00     0.162 HD
ENDROOT
BRANCH   2   5
HETATM    5  C   UNL     1      26.598  48.087  49.876  1.00  0.00     0.161 C 
BRANCH   5   6
HETATM    6  C   UNL     1      25.437  48.733  49.165  1.00  0.00    -0.038 A 
HETATM    7  C   UNL     1      24.126  48.316  49.451  1.00  0.00     0.046 A 
HETATM    8  C   UNL     1      23.034  48.926  48.825  1.00  0.00     0.078 A 
HETATM    9  C   UNL     1      23.240  49.986  47.943  1.00  0.00     0.037 A 
HETATM   10  C   UNL     1      24.534  50.423  47.666  1.00  0.00     0.003 A 
HETATM   11  C   UNL     1      25.625  49.805  48.280  1.00  0.00     0.009 A 
BRANCH   8  12
HETATM   12  O   UNL     1      21.723  48.625  49.120  1.00  0.00    -0.292 OA
BRANCH  12  13
HETATM   13  C   UNL     1      20.780  49.643  49.066  1.00  0.00     0.169 A 
HETATM   14  N   UNL     1      20.746  50.589  50.032  1.00  0.00    -0.237 NA
HETATM   15  C   UNL     1      19.771  51.517  49.934  1.00  0.00     0.119 A 
HETATM   16  C   UNL     1      18.823  51.538  48.922  1.00  0.00     0.019 A 
HETATM   17  C   UNL     1      18.871  50.543  47.952  1.00  0.00     0.006 A 
HETATM   18  C   UNL     1      19.864  49.570  48.026  1.00  0.00     0.058 A 
ENDBRANCH  12  13
ENDBRANCH   8  12
ENDBRANCH   5   6
ENDBRANCH   2   5
BRANCH   1  19
HETATM   19  C   UNL     1      26.145  44.599  51.292  1.00  0.00     0.141 C 
BRANCH  19  20
HETATM   20  C   UNL     1      27.114  44.248  52.398  1.00  0.00    -0.049 A 
HETATM   21  C   UNL     1      26.860  44.489  53.753  1.00  0.00     0.010 A 
HETATM   22  C   UNL     1      27.808  44.162  54.733  1.00  0.00     0.030 A 
HETATM   23  C   UNL     1      29.035  43.604  54.378  1.00  0.00     0.034 A 
HETATM   24  C   UNL     1      29.300  43.376  53.024  1.00  0.00     0.030 A 
HETATM   25  C   UNL     1      28.352  43.693  52.047  1.00  0.00     0.010 A 
BRANCH  23  26
HETATM   26  N   UNL     1      30.047  43.258  55.299  1.00  0.00    -0.328 N 
HETATM   27  C   UNL     1      30.789  44.110  56.094  1.00  0.00     0.218 C 
HETATM   28  C   UNL     1      31.803  43.388  56.948  1.00  0.00     0.117 C 
HETATM   29  O   UNL     1      30.691  45.332  56.157  1.00  0.00    -0.274 OA
HETATM   30  H   UNL     1      30.238  42.269  55.385  1.00  0.00     0.169 HD
ENDBRANCH  23  26
ENDBRANCH  19  20
ENDBRANCH   1  19
TORSDOF 7
ENDMDL
MODEL 5
REMARK VINA RESULT:      -8.8      1.679     10.526
REMARK  7 active torsions:
REMARK  status: ('A' for Active; 'I' for Inactive)
REMARK       I    between atoms: C_2  and  N_3 
REMARK    1  A    between atoms: N_3  and  C_4 
REMARK    2  A    between atoms: C_7  and  C_8 
REMARK    3  A    between atoms: C_8  and  C_9 
REMARK       I    between atoms: C_9  and  N_10 
REMARK    4  A    between atoms: N_10  and  C_11 
REMARK    5  A    between atoms: C_11  and  C_12 
REMARK    6  A    between atoms: C_14  and  O_15 
REMARK    7  A    between atoms: O_15  and  C_16 
ROOT
HETATM    1  C   UNL     1      26.148  46.740  51.324  1.00  0.00     0.222 C 
HETATM    2  N   UNL     1      26.316  45.373  51.381  1.00  0.00    -0.357 N 
HETATM    3  O   UNL     1      25.876  47.426  52.306  1.00  0.00    -0.273 OA
HETATM    4  H   UNL     1      26.833  44.925  50.634  1.00  0.00     0.162 HD
ENDROOT
BRANCH   2   5
HETATM    5  C   UNL     1      26.247  44.684  52.650  1.00  0.00     0.161 C 
BRANCH   5   6
HETATM    6  C   UNL     1      27.337  43.655  52.808  1.00  0.00    -0.038 A 
HETATM    7  C   UNL     1      28.534  44.003  53.457  1.00  0.00     0.046 A 
HETATM    8  C   UNL     1      29.544  43.054  53.642  1.00  0.00     0.078 A 
HETATM    9  C   UNL     1      29.349  41.739  53.220  1.00  0.00     0.037 A 
HETATM   10  C   UNL     1      28.158  41.375  52.594  1.00  0.00     0.003 A 
HETATM   11  C   UNL     1      27.155  42.326  52.397  1.00  0.00     0.009 A 
BRANCH   8  12
HETATM   12  O   UNL     1      30.704  43.303  54.341  1.00  0.00    -0.292 OA
BRANCH  12  13
HETATM   13  C   UNL     1      30.615  43.953  55.565  1.00  0.00     0.169 A 
HETATM   14  N   UNL     1      29.857  45.067  55.689  1.00  0.00    -0.237 NA
HETATM   15  C   UNL     1      29.860  45.666  56.898  1.00  0.00     0.119 A 
HETATM   16  C   UNL     1      30.589  45.210  57.985  1.00  0.00     0.019 A 
HETATM   17  C   UNL     1      31.373  44.072  57.824  1.00  0.00     0.006 A 
HETATM   18  C   UNL     1      31.394  43.433  56.589  1.00  0.00     0.058 A 
ENDBRANCH  12  13
ENDBRANCH   8  12
ENDBRANCH   5   6
ENDBRANCH   2   5
BRANCH   1  19
HETATM   19  C   UNL     1      26.309  47.333  49.938  1.00  0.00     0.141 C 
BRANCH  19  20
HETATM   20  C   UNL     1      25.154  48.163  49.424  1.00  0.00    -0.049 A 
HETATM   21  C   UNL     1      25.315  49.389  48.769  1.00  0.00     0.010 A 
HETATM   22  C   UNL     1      24.203  50.125  48.334  1.00  0.00     0.030 A 
HETATM   23  C   UNL     1      22.908  49.659  48.562  1.00  0.00     0.034 A 
HETATM   24  C   UNL     1      22.742  48.443  49.230  1.00  0.00     0.030 A 
HETATM   25  C   UNL     1      23.850  47.704  49.656  1.00  0.00     0.010 A 
BRANCH  23  26
HETATM   26  N   UNL     1      21.738  50.343  48.168  1.00  0.00    -0.328 N 
HETATM   27  C   UNL     1      20.861  51.043  48.974  1.00  0.00     0.218 C 
HETATM   28  C   UNL     1      19.700  51.633  48.210  1.00  0.00     0.117 C 
HETATM   29  O   UNL     1      20.950  51.215  50.186  1.00  0.00    -0.274 OA
HETATM   30  H   UNL     1      21.531  50.317  47.179  1.00  0.00     0.169 HD
ENDBRANCH  23  26
ENDBRANCH  19  20
ENDBRANCH   1  19
TORSDOF 7
ENDMDL
MODEL 6
REMARK VINA RESULT:      -8.7      2.079      2.874
REMARK  7 active torsions:
REMARK  status: ('A' for Active; 'I' for Inactive)
REMARK       I    between atoms: C_2  and  N_3 
REMARK    1  A    between atoms: N_3  and  C_4 
REMARK    2  A    between atoms: C_7  and  C_8 
REMARK    3  A    between atoms: C_8  and  C_9 
REMARK       I    between atoms: C_9  and  N_10 
REMARK    4  A    between atoms: N_10  and  C_11 
REMARK    5  A    between atoms: C_11  and  C_12 
REMARK    6  A    between atoms: C_14  and  O_15 
REMARK    7  A    between atoms: O_15  and  C_16 
ROOT
HETATM    1  C   UNL     1      25.217  46.154  52.300  1.00  0.00     0.222 C 
HETATM    2  N   UNL     1      25.407  46.838  51.118  1.00  0.00    -0.357 N 
HETATM    3  O   UNL     1      24.622  45.082  52.368  1.00  0.00    -0.273 OA
HETATM    4  H   UNL     1      26.150  47.525  51.080  1.00  0.00     0.162 HD
ENDROOT
BRANCH   2   5
HETATM    5  C   UNL     1      24.964  46.266  49.867  1.00  0.00     0.161 C 
BRANCH   5   6
HETATM    6  C   UNL     1      23.754  46.969  49.307  1.00  0.00    -0.038 A 
HETATM    7  C   UNL     1      23.520  48.317  49.630  1.00  0.00     0.046 A 
HETATM    8  C   UNL     1      22.421  48.996  49.094  1.00  0.00     0.078 A 
HETATM    9  C   UNL     1      21.572  48.348  48.197  1.00  0.00     0.037 A 
HETATM   10  C   UNL     1      21.804  47.017  47.852  1.00  0.00     0.003 A 
HETATM   11  C   UNL     1      22.893  46.335  48.398  1.00  0.00     0.009 A 
BRANCH   8  12
HETATM   12  O   UNL     1      22.180  50.335  49.301  1.00  0.00    -0.292 OA
BRANCH  12  13
HETATM   13  C   UNL     1      20.863  50.768  49.385  1.00  0.00     0.169 A 
HETATM   14  N   UNL     1      20.012  50.188  50.261  1.00  0.00    -0.237 NA
HETATM   15  C   UNL     1      18.738  50.633  50.249  1.00  0.00     0.119 A 
HETATM   16  C   UNL     1      18.273  51.623  49.398  1.00  0.00     0.019 A 
HETATM   17  C   UNL     1      19.166  52.190  48.495  1.00  0.00     0.006 A 
HETATM   18  C   UNL     1      20.487  51.751  48.480  1.00  0.00     0.058 A 
ENDBRANCH  12  13
ENDBRANCH   8  12
ENDBRANCH   5   6
ENDBRANCH   2   5
BRANCH   1  19
HETATM   19  C   UNL     1      25.787  46.845  53.523  1.00  0.00     0.141 C 
BRANCH  19  20
HETATM   20  C   UNL     1      27.002  46.202  54.153  1.00  0.00    -0.049 A 
HETATM   21  C   UNL     1      27.941  46.906  54.914  1.00  0.00     0.010 A 
HETATM   22  C   UNL     1      29.061  46.259  55.455  1.00  0.00     0.030 A 
HETATM   23  C   UNL     1      29.274  44.899  55.231  1.00  0.00     0.034 A 
HETATM   24  C   UNL     1      28.347  44.195  54.458  1.00  0.00     0.030 A 
HETATM   25  C   UNL     1      27.225  44.837  53.925  1.00  0.00     0.010 A 
BRANCH  23  26
HETATM   26  N   UNL     1      30.380  44.177  55.728  1.00  0.00    -0.328 N 
HETATM   27  C   UNL     1      30.945  44.261  56.987  1.00  0.00     0.218 C 
HETATM   28  C   UNL     1      32.136  43.350  57.161  1.00  0.00     0.117 C 
HETATM   29  O   UNL     1      30.573  44.972  57.915  1.00  0.00    -0.274 OA
HETATM   30  H   UNL     1      30.796  43.519  55.083  1.00  0.00     0.169 HD
ENDBRANCH  23  26
ENDBRANCH  19  20
ENDBRANCH   1  19
TORSDOF 7
ENDMDL
MODEL 7
REMARK VINA RESULT:      -8.7      2.251      2.920
REMARK  7 active torsions:
REMARK  status: ('A' for Active; 'I' for Inactive)
REMARK       I    between atoms: C_2  and  N_3 
REMARK    1  A    between atoms: N_3  and  C_4 
REMARK    2  A    between atoms: C_7  and  C_8 
REMARK    3  A    between atoms: C_8  and  C_9 
REMARK       I    between atoms: C_9  and  N_10 
REMARK    4  A    between atoms: N_10  and  C_11 
REMARK    5  A    between atoms: C_11  and  C_12 
REMARK    6  A    between atoms: C_14  and  O_15 
REMARK    7  A    between atoms: O_15  and  C_16 
ROOT
HETATM    1  C   UNL     1      25.571  45.959  50.971  1.00  0.00     0.222 C 
HETATM    2  N   UNL     1      24.992  47.157  50.611  1.00  0.00    -0.357 N 
HETATM    3  O   UNL     1      26.274  45.297  50.213  1.00  0.00    -0.273 OA
HETATM    4  H   UNL     1      24.701  47.786  51.348  1.00  0.00     0.162 HD
ENDROOT
BRANCH   2   5
HETATM    5  C   UNL     1      25.258  47.731  49.311  1.00  0.00     0.161 C 
BRANCH   5   6
HETATM    6  C   UNL     1      24.301  48.842  48.964  1.00  0.00    -0.038 A 
HETATM    7  C   UNL     1      22.978  48.795  49.437  1.00  0.00     0.046 A 
HETATM    8  C   UNL     1      22.084  49.832  49.152  1.00  0.00     0.078 A 
HETATM    9  C   UNL     1      22.516  50.945  48.431  1.00  0.00     0.037 A 
HETATM   10  C   UNL     1      23.831  51.014  47.974  1.00  0.00     0.003 A 
HETATM   11  C   UNL     1      24.720  49.973  48.246  1.00  0.00     0.009 A 
BRANCH   8  12
HETATM   12  O   UNL     1      20.803  49.890  49.652  1.00  0.00    -0.292 OA
BRANCH  12  13
HETATM   13  C   UNL     1      19.828  50.540  48.908  1.00  0.00     0.169 A 
HETATM   14  N   UNL     1      19.398  50.008  47.740  1.00  0.00    -0.237 NA
HETATM   15  C   UNL     1      18.483  50.724  47.053  1.00  0.00     0.119 A 
HETATM   16  C   UNL     1      17.984  51.947  47.471  1.00  0.00     0.019 A 
HETATM   17  C   UNL     1      18.457  52.478  48.667  1.00  0.00     0.006 A 
HETATM   18  C   UNL     1      19.402  51.767  49.399  1.00  0.00     0.058 A 
ENDBRANCH  12  13
ENDBRANCH   8  12
ENDBRANCH   5   6
ENDBRANCH   2   5
BRANCH   1  19
HETATM   19  C   UNL     1      25.253  45.509  52.384  1.00  0.00     0.141 C 
BRANCH  19  20
HETATM   20  C   UNL     1      26.352  45.681  53.407  1.00  0.00    -0.049 A 
HETATM   21  C   UNL     1      26.736  46.922  53.927  1.00  0.00     0.010 A 
HETATM   22  C   UNL     1      27.779  47.022  54.859  1.00  0.00     0.030 A 
HETATM   23  C   UNL     1      28.471  45.885  55.277  1.00  0.00     0.034 A 
HETATM   24  C   UNL     1      28.102  44.645  54.748  1.00  0.00     0.030 A 
HETATM   25  C   UNL     1      27.056  44.543  53.826  1.00  0.00     0.010 A 
BRANCH  23  26
HETATM   26  N   UNL     1      29.538  45.900  56.199  1.00  0.00    -0.328 N 
HETATM   27  C   UNL     1      29.463  46.025  57.574  1.00  0.00     0.218 C 
HETATM   28  C   UNL     1      30.816  46.021  58.242  1.00  0.00     0.117 C 
HETATM   29  O   UNL     1      28.443  46.127  58.249  1.00  0.00    -0.274 OA
HETATM   30  H   UNL     1      30.462  45.801  55.798  1.00  0.00     0.169 HD
ENDBRANCH  23  26
ENDBRANCH  19  20
ENDBRANCH   1  19
TORSDOF 7
ENDMDL
MODEL 8
REMARK VINA RESULT:      -8.7      2.514     10.197
REMARK  7 active torsions:
REMARK  status: ('A' for Active; 'I' for Inactive)
REMARK       I    between atoms: C_2  and  N_3 
REMARK    1  A    between atoms: N_3  and  C_4 
REMARK    2  A    between atoms: C_7  and  C_8 
REMARK    3  A    between atoms: C_8  and  C_9 
REMARK       I    between atoms: C_9  and  N_10 
REMARK    4  A    between atoms: N_10  and  C_11 
REMARK    5  A    between atoms: C_11  and  C_12 
REMARK    6  A    between atoms: C_14  and  O_15 
REMARK    7  A    between atoms: O_15  and  C_16 
ROOT
HETATM    1  C   UNL     1      24.983  49.984  48.162  1.00  0.00     0.222 C 
HETATM    2  N   UNL     1      24.964  49.159  49.266  1.00  0.00    -0.357 N 
HETATM    3  O   UNL     1      25.913  50.016  47.361  1.00  0.00    -0.273 OA
HETATM    4  H   UNL     1      24.069  48.954  49.692  1.00  0.00     0.162 HD
ENDROOT
BRANCH   2   5
HETATM    5  C   UNL     1      26.039  48.218  49.488  1.00  0.00     0.161 C 
BRANCH   5   6
HETATM    6  C   UNL     1      25.608  47.036  50.318  1.00  0.00    -0.038 A 
HETATM    7  C   UNL     1      25.854  47.029  51.701  1.00  0.00     0.046 A 
HETATM    8  C   UNL     1      25.433  45.955  52.493  1.00  0.00     0.078 A 
HETATM    9  C   UNL     1      24.724  44.901  51.916  1.00  0.00     0.037 A 
HETATM   10  C   UNL     1      24.456  44.905  50.548  1.00  0.00     0.003 A 
HETATM   11  C   UNL     1      24.889  45.970  49.756  1.00  0.00     0.009 A 
BRANCH   8  12
HETATM   12  O   UNL     1      25.566  45.922  53.863  1.00  0.00    -0.292 OA
BRANCH  12  13
HETATM   13  C   UNL     1      26.830  45.732  54.403  1.00  0.00     0.169 A 
HETATM   14  N   UNL     1      27.468  46.756  55.015  1.00  0.00    -0.237 NA
HETATM   15  C   UNL     1      28.712  46.503  55.473  1.00  0.00     0.119 A 
HETATM   16  C   UNL     1      29.352  45.281  55.340  1.00  0.00     0.019 A 
HETATM   17  C   UNL     1      28.679  44.251  54.691  1.00  0.00     0.006 A 
HETATM   18  C   UNL     1      27.395  44.479  54.205  1.00  0.00     0.058 A 
ENDBRANCH  12  13
ENDBRANCH   8  12
ENDBRANCH   5   6
ENDBRANCH   2   5
BRANCH   1  19
HETATM   19  C   UNL     1      23.762  50.873  48.024  1.00  0.00     0.141 C 
BRANCH  19  20
HETATM   20  C   UNL     1      22.421  50.176  48.013  1.00  0.00    -0.049 A 
HETATM   21  C   UNL     1      22.267  48.802  47.799  1.00  0.00     0.010 A 
HETATM   22  C   UNL     1      20.994  48.214  47.778  1.00  0.00     0.030 A 
HETATM   23  C   UNL     1      19.849  48.990  47.953  1.00  0.00     0.034 A 
HETATM   24  C   UNL     1      19.997  50.366  48.152  1.00  0.00     0.030 A 
HETATM   25  C   UNL     1      21.266  50.952  48.182  1.00  0.00     0.010 A 
BRANCH  23  26
HETATM   26  N   UNL     1      18.533  48.480  47.933  1.00  0.00    -0.328 N 
HETATM   27  C   UNL     1      17.774  48.066  49.011  1.00  0.00     0.218 C 
HETATM   28  C   UNL     1      16.411  47.556  48.611  1.00  0.00     0.117 C 
HETATM   29  O   UNL     1      18.101  48.084  50.194  1.00  0.00    -0.274 OA
HETATM   30  H   UNL     1      18.103  48.421  47.020  1.00  0.00     0.169 HD
ENDBRANCH  23  26
ENDBRANCH  19  20
ENDBRANCH   1  19
TORSDOF 7
ENDMDL
MODEL 9
REMARK VINA RESULT:      -8.3      3.487     11.213
REMARK  7 active torsions:
REMARK  status: ('A' for Active; 'I' for Inactive)
REMARK       I    between atoms: C_2  and  N_3 
REMARK    1  A    between atoms: N_3  and  C_4 
REMARK    2  A    between atoms: C_7  and  C_8 
REMARK    3  A    between atoms: C_8  and  C_9 
REMARK       I    between atoms: C_9  and  N_10 
REMARK    4  A    between atoms: N_10  and  C_11 
REMARK    5  A    between atoms: C_11  and  C_12 
REMARK    6  A    between atoms: C_14  and  O_15 
REMARK    7  A    between atoms: O_15  and  C_16 
ROOT
HETATM    1  C   UNL     1      21.400  49.480  48.585  1.00  0.00     0.222 C 
HETATM    2  N   UNL     1      22.497  50.203  49.003  1.00  0.00    -0.357 N 
HETATM    3  O   UNL     1      21.326  48.948  47.481  1.00  0.00    -0.273 OA
HETATM    4  H   UNL     1      22.626  50.339  49.998  1.00  0.00     0.162 HD
ENDROOT
BRANCH   2   5
HETATM    5  C   UNL     1      23.666  50.304  48.159  1.00  0.00     0.161 C 
BRANCH   5   6
HETATM    6  C   UNL     1      24.826  49.495  48.681  1.00  0.00    -0.038 A 
HETATM    7  C   UNL     1      24.583  48.309  49.394  1.00  0.00     0.046 A 
HETATM    8  C   UNL     1      25.646  47.528  49.859  1.00  0.00     0.078 A 
HETATM    9  C   UNL     1      26.960  47.903  49.577  1.00  0.00     0.037 A 
HETATM   10  C   UNL     1      27.215  49.066  48.854  1.00  0.00     0.003 A 
HETATM   11  C   UNL     1      26.154  49.853  48.402  1.00  0.00     0.009 A 
BRANCH   8  12
HETATM   12  O   UNL     1      25.481  46.315  50.488  1.00  0.00    -0.292 OA
BRANCH  12  13
HETATM   13  C   UNL     1      26.000  46.153  51.766  1.00  0.00     0.169 A 
HETATM   14  N   UNL     1      26.787  45.090  52.049  1.00  0.00    -0.237 NA
HETATM   15  C   UNL     1      27.214  44.979  53.325  1.00  0.00     0.119 A 
HETATM   16  C   UNL     1      26.885  45.874  54.331  1.00  0.00     0.019 A 
HETATM   17  C   UNL     1      26.061  46.949  54.015  1.00  0.00     0.006 A 
HETATM   18  C   UNL     1      25.602  47.090  52.709  1.00  0.00     0.058 A 
ENDBRANCH  12  13
ENDBRANCH   8  12
ENDBRANCH   5   6
ENDBRANCH   2   5
BRANCH   1  19
HETATM   19  C   UNL     1      20.274  49.409  49.597  1.00  0.00     0.141 C 
BRANCH  19  20
HETATM   20  C   UNL     1      19.077  50.295  49.334  1.00  0.00    -0.049 A 
HETATM   21  C   UNL     1      17.886  49.833  48.763  1.00  0.00     0.010 A 
HETATM   22  C   UNL     1      16.816  50.709  48.522  1.00  0.00     0.030 A 
HETATM   23  C   UNL     1      16.923  52.064  48.830  1.00  0.00     0.034 A 
HETATM   24  C   UNL     1      18.117  52.533  49.386  1.00  0.00     0.030 A 
HETATM   25  C   UNL     1      19.180  51.660  49.635  1.00  0.00     0.010 A 
BRANCH  23  26
HETATM   26  N   UNL     1      15.900  53.011  48.608  1.00  0.00    -0.328 N 
HETATM   27  C   UNL     1      15.108  53.634  49.554  1.00  0.00     0.218 C 
HETATM   28  C   UNL     1      14.098  54.578  48.949  1.00  0.00     0.117 C 
HETATM   29  O   UNL     1      15.163  53.488  50.772  1.00  0.00    -0.274 OA
HETATM   30  H   UNL     1      15.741  53.261  47.641  1.00  0.00     0.169 HD
ENDBRANCH  23  26
ENDBRANCH  19  20
ENDBRANCH   1  19
TORSDOF 7
ENDMDL
MODEL 10
REMARK VINA RESULT:      -8.3      3.169     11.026
REMARK  7 active torsions:
REMARK  status: ('A' for Active; 'I' for Inactive)
REMARK       I    between atoms: C_2  and  N_3 
REMARK    1  A    between atoms: N_3  and  C_4 
REMARK    2  A    between atoms: C_7  and  C_8 
REMARK    3  A    between atoms: C_8  and  C_9 
REMARK       I    between atoms: C_9  and  N_10 
REMARK    4  A    between atoms: N_10  and  C_11 
REMARK    5  A    between atoms: C_11  and  C_12 
REMARK    6  A    between atoms: C_14  and  O_15 
REMARK    7  A    between atoms: O_15  and  C_16 
ROOT
HETATM    1  C   UNL     1      22.749  48.748  48.919  1.00  0.00     0.222 C 
HETATM    2  N   UNL     1      23.166  47.735  49.756  1.00  0.00    -0.357 N 
HETATM    3  O   UNL     1      22.722  48.643  47.696  1.00  0.00    -0.273 OA
HETATM    4  H   UNL     1      22.874  47.766  50.724  1.00  0.00     0.162 HD
ENDROOT
BRANCH   2   5
HETATM    5  C   UNL     1      23.529  46.445  49.211  1.00  0.00     0.161 C 
BRANCH   5   6
HETATM    6  C   UNL     1      24.672  45.806  49.956  1.00  0.00    -0.038 A 
HETATM    7  C   UNL     1      24.668  45.794  51.361  1.00  0.00     0.046 A 
HETATM    8  C   UNL     1      25.704  45.176  52.070  1.00  0.00     0.078 A 
HETATM    9  C   UNL     1      26.729  44.528  51.381  1.00  0.00     0.037 A 
HETATM   10  C   UNL     1      26.734  44.514  49.987  1.00  0.00     0.003 A 
HETATM   11  C   UNL     1      25.708  45.143  49.279  1.00  0.00     0.009 A 
BRANCH   8  12
HETATM   12  O   UNL     1      25.720  45.055  53.441  1.00  0.00    -0.292 OA
BRANCH  12  13
HETATM   13  C   UNL     1      26.823  45.532  54.137  1.00  0.00     0.169 A 
HETATM   14  N   UNL     1      27.654  44.670  54.766  1.00  0.00    -0.237 NA
HETATM   15  C   UNL     1      28.676  45.214  55.459  1.00  0.00     0.119 A 
HETATM   16  C   UNL     1      28.901  46.578  55.561  1.00  0.00     0.019 A 
HETATM   17  C   UNL     1      28.020  47.442  54.919  1.00  0.00     0.006 A 
HETATM   18  C   UNL     1      26.955  46.913  54.197  1.00  0.00     0.058 A 
ENDBRANCH  12  13
ENDBRANCH   8  12
ENDBRANCH   5   6
ENDBRANCH   2   5
BRANCH   1  19
HETATM   19  C   UNL     1      22.341  50.022  49.634  1.00  0.00     0.141 C 
BRANCH  19  20
HETATM   20  C   UNL     1      20.925  50.498  49.403  1.00  0.00    -0.049 A 
HETATM   21  C   UNL     1      19.807  49.917  50.010  1.00  0.00     0.010 A 
HETATM   22  C   UNL     1      18.514  50.388  49.739  1.00  0.00     0.030 A 
HETATM   23  C   UNL     1      18.312  51.437  48.844  1.00  0.00     0.034 A 
HETATM   24  C   UNL     1      19.425  52.010  48.222  1.00  0.00     0.030 A 
HETATM   25  C   UNL     1      20.715  51.547  48.497  1.00  0.00     0.010 A 
BRANCH  23  26
HETATM   26  N   UNL     1      17.045  51.961  48.507  1.00  0.00    -0.328 N 
HETATM   27  C   UNL     1      16.254  52.803  49.265  1.00  0.00     0.218 C 
HETATM   28  C   UNL     1      14.946  53.146  48.594  1.00  0.00     0.117 C 
HETATM   29  O   UNL     1      16.519  53.268  50.369  1.00  0.00    -0.274 OA
HETATM   30  H   UNL     1      16.687  51.687  47.602  1.00  0.00     0.169 HD
ENDBRANCH  23  26
ENDBRANCH  19  20
ENDBRANCH   1  19
TORSDOF 7
ENDMDL
