MODEL 1
REMARK VINA RESULT:      -9.9      0.000      0.000
REMARK  7 active torsions:
REMARK  status: ('A' for Active; 'I' for Inactive)
REMARK    1  A    between atoms: C_4  and  C_5 
REMARK    2  A    between atoms: C_5  and  C_6 
REMARK    3  A    between atoms: C_6  and  N_7 
REMARK       I    between atoms: N_7  and  C_8 
REMARK    4  A    between atoms: C_8  and  C_9 
REMARK    5  A    between atoms: C_10  and  N_11 
REMARK    6  A    between atoms: N_12  and  N_13 
REMARK    7  A    between atoms: C_14  and  C_15 
ROOT
HETATM    1  C   UNL     1      24.353  46.999  49.669  1.00  0.00     0.110 A 
HETATM    2  C   UNL     1      24.811  48.234  49.225  1.00  0.00     0.143 A 
HETATM    3  N   UNL     1      23.885  48.745  48.313  1.00  0.00    -0.197 N 
HETATM    4  C   UNL     1      22.934  47.771  48.076  1.00  0.00     0.183 A 
HETATM    5  C   UNL     1      23.193  46.696  48.918  1.00  0.00     0.125 A 
HETATM    6  N   UNL     1      22.428  45.573  48.884  1.00  0.00    -0.242 NA
HETATM    7  C   UNL     1      21.442  45.592  47.969  1.00  0.00     0.086 A 
HETATM    8  C   UNL     1      21.191  46.712  47.132  1.00  0.00     0.088 A 
HETATM    9  N   UNL     1      21.920  47.835  47.180  1.00  0.00    -0.225 NA
HETATM   10  C   UNL     1      20.647  44.462  47.825  1.00  0.00     0.034 A 
HETATM   11  C   UNL     1      19.615  44.404  46.885  1.00  0.00     0.002 A 
HETATM   12  C   UNL     1      19.365  45.504  46.077  1.00  0.00     0.002 A 
HETATM   13  C   UNL     1      20.153  46.647  46.211  1.00  0.00     0.034 A 
ENDROOT
BRANCH   1  14
HETATM   14  C   UNL     1      25.022  46.196  50.673  1.00  0.00     0.257 C 
HETATM   15  N   UNL     1      25.567  45.033  50.151  1.00  0.00    -0.356 N 
HETATM   16  H   UNL     1      25.363  44.911  49.164  1.00  0.00     0.162 HD
HETATM   17  O   UNL     1      25.194  46.589  51.819  1.00  0.00    -0.267 OA
BRANCH  15  18
HETATM   18  C   UNL     1      26.906  44.612  50.512  1.00  0.00     0.127 C 
BRANCH  18  19
HETATM   19  C   UNL     1      27.063  43.298  51.279  1.00  0.00     0.058 C 
BRANCH  19  20
HETATM   20  C   UNL     1      28.048  43.512  52.408  1.00  0.00    -0.057 A 
HETATM   21  C   UNL     1      29.264  42.810  52.416  1.00  0.00     0.007 A 
HETATM   22  C   UNL     1      30.135  42.911  53.500  1.00  0.00     0.001 A 
HETATM   23  C   UNL     1      29.803  43.721  54.585  1.00  0.00     0.000 A 
HETATM   24  C   UNL     1      28.604  44.433  54.581  1.00  0.00     0.001 A 
HETATM   25  C   UNL     1      27.728  44.329  53.499  1.00  0.00     0.007 A 
ENDBRANCH  19  20
ENDBRANCH  18  19
ENDBRANCH  15  18
ENDBRANCH   1  14
BRANCH   2  26
HETATM   26  N   UNL     1      25.957  48.895  49.557  1.00  0.00    -0.383 N 
HETATM   27  H   UNL     1      26.605  48.452  50.206  1.00  0.00     0.157 HD
HETATM   28  H   UNL     1      25.923  49.900  49.710  1.00  0.00     0.157 HD
ENDBRANCH   2  26
BRANCH   3  29
HETATM   29  N   UNL     1      24.002  49.904  47.593  1.00  0.00    -0.176 NA
HETATM   30  C   UNL     1      23.281  50.926  47.941  1.00  0.00     0.153 C 
BRANCH  30  31
HETATM   31  C   UNL     1      22.224  50.971  48.930  1.00  0.00     0.011 A 
HETATM   32  C   UNL     1      20.814  50.937  48.675  1.00  0.00     0.004 A 
HETATM   33  C   UNL     1      20.167  50.970  49.910  1.00  0.00     0.043 A 
HETATM   34  C   UNL     1      20.028  50.914  47.504  1.00  0.00     0.014 A 
HETATM   35  C   UNL     1      18.773  50.965  50.036  1.00  0.00     0.030 A 
HETATM   36  N   UNL     1      21.145  51.004  50.880  1.00  0.00    -0.364 N 
HETATM   37  C   UNL     1      18.017  50.948  48.861  1.00  0.00     0.002 A 
HETATM   38  C   UNL     1      18.632  50.925  47.611  1.00  0.00     0.001 A 
HETATM   39  H   UNL     1      20.966  51.023  51.875  1.00  0.00     0.165 HD
HETATM   40  C   UNL     1      22.386  51.011  50.300  1.00  0.00     0.102 A 
ENDBRANCH  30  31
ENDBRANCH   3  29
TORSDOF 7
ENDMDL
MODEL 2
REMARK VINA RESULT:      -9.7      3.411      6.753
REMARK  7 active torsions:
REMARK  status: ('A' for Active; 'I' for Inactive)
REMARK    1  A    between atoms: C_4  and  C_5 
REMARK    2  A    between atoms: C_5  and  C_6 
REMARK    3  A    between atoms: C_6  and  N_7 
REMARK       I    between atoms: N_7  and  C_8 
REMARK    4  A    between atoms: C_8  and  C_9 
REMARK    5  A    between atoms: C_10  and  N_11 
REMARK    6  A    between atoms: N_12  and  N_13 
REMARK    7  A    between atoms: C_14  and  C_15 
ROOT
HETATM    1  C   UNL     1      26.210  44.114  50.755  1.00  0.00     0.110 A 
HETATM    2  C   UNL     1      24.908  43.637  50.852  1.00  0.00     0.143 A 
HETATM    3  N   UNL     1      24.055  44.559  50.241  1.00  0.00    -0.197 N 
HETATM    4  C   UNL     1      24.801  45.672  49.899  1.00  0.00     0.183 A 
HETATM    5  C   UNL     1      26.134  45.407  50.189  1.00  0.00     0.125 A 
HETATM    6  N   UNL     1      27.100  46.341  49.979  1.00  0.00    -0.242 NA
HETATM    7  C   UNL     1      26.651  47.517  49.504  1.00  0.00     0.086 A 
HETATM    8  C   UNL     1      25.283  47.753  49.202  1.00  0.00     0.088 A 
HETATM    9  N   UNL     1      24.329  46.828  49.376  1.00  0.00    -0.225 NA
HETATM   10  C   UNL     1      27.562  48.548  49.315  1.00  0.00     0.034 A 
HETATM   11  C   UNL     1      27.167  49.801  48.839  1.00  0.00     0.002 A 
HETATM   12  C   UNL     1      25.831  50.025  48.534  1.00  0.00     0.002 A 
HETATM   13  C   UNL     1      24.905  48.998  48.717  1.00  0.00     0.034 A 
ENDROOT
BRANCH   1  14
HETATM   14  C   UNL     1      27.377  43.392  51.223  1.00  0.00     0.257 C 
HETATM   15  N   UNL     1      28.005  44.024  52.285  1.00  0.00    -0.356 N 
HETATM   16  H   UNL     1      27.575  44.912  52.525  1.00  0.00     0.162 HD
HETATM   17  O   UNL     1      27.673  42.282  50.802  1.00  0.00    -0.267 OA
BRANCH  15  18
HETATM   18  C   UNL     1      28.444  43.272  53.444  1.00  0.00     0.127 C 
BRANCH  18  19
HETATM   19  C   UNL     1      29.946  43.188  53.717  1.00  0.00     0.058 C 
BRANCH  19  20
HETATM   20  C   UNL     1      30.235  43.866  55.040  1.00  0.00    -0.057 A 
HETATM   21  C   UNL     1      31.129  43.273  55.947  1.00  0.00     0.007 A 
HETATM   22  C   UNL     1      31.325  43.824  57.213  1.00  0.00     0.001 A 
HETATM   23  C   UNL     1      30.636  44.978  57.582  1.00  0.00     0.000 A 
HETATM   24  C   UNL     1      29.757  45.582  56.684  1.00  0.00     0.001 A 
HETATM   25  C   UNL     1      29.555  45.028  55.419  1.00  0.00     0.007 A 
ENDBRANCH  19  20
ENDBRANCH  18  19
ENDBRANCH  15  18
ENDBRANCH   1  14
BRANCH   2  26
HETATM   26  N   UNL     1      24.453  42.492  51.436  1.00  0.00    -0.383 N 
HETATM   27  H   UNL     1      25.133  41.799  51.746  1.00  0.00     0.157 HD
HETATM   28  H   UNL     1      23.622  42.039  51.063  1.00  0.00     0.157 HD
ENDBRANCH   2  26
BRANCH   3  29
HETATM   29  N   UNL     1      22.688  44.498  50.188  1.00  0.00    -0.176 NA
HETATM   30  C   UNL     1      22.129  44.041  49.110  1.00  0.00     0.153 C 
BRANCH  30  31
HETATM   31  C   UNL     1      22.765  43.711  47.851  1.00  0.00     0.011 A 
HETATM   32  C   UNL     1      23.338  42.449  47.489  1.00  0.00     0.004 A 
HETATM   33  C   UNL     1      23.809  42.566  46.180  1.00  0.00     0.043 A 
HETATM   34  C   UNL     1      23.529  41.226  48.165  1.00  0.00     0.014 A 
HETATM   35  C   UNL     1      24.447  41.517  45.508  1.00  0.00     0.030 A 
HETATM   36  N   UNL     1      23.516  43.844  45.757  1.00  0.00    -0.364 N 
HETATM   37  C   UNL     1      24.629  40.318  46.203  1.00  0.00     0.002 A 
HETATM   38  C   UNL     1      24.180  40.172  47.513  1.00  0.00     0.001 A 
HETATM   39  H   UNL     1      23.735  44.208  44.839  1.00  0.00     0.165 HD
HETATM   40  C   UNL     1      22.894  44.543  46.757  1.00  0.00     0.102 A 
ENDBRANCH  30  31
ENDBRANCH   3  29
TORSDOF 7
ENDMDL
MODEL 3
REMARK VINA RESULT:      -9.5      2.151      5.434
REMARK  7 active torsions:
REMARK  status: ('A' for Active; 'I' for Inactive)
REMARK    1  A    between atoms: C_4  and  C_5 
REMARK    2  A    between atoms: C_5  and  C_6 
REMARK    3  A    between atoms: C_6  and  N_7 
REMARK       I    between atoms: N_7  and  C_8 
REMARK    4  A    between atoms: C_8  and  C_9 
REMARK    5  A    between atoms: C_10  and  N_11 
REMARK    6  A    between atoms: N_12  and  N_13 
REMARK    7  A    between atoms: C_14  and  C_15 
ROOT
HETATM    1  C   UNL     1      25.050  45.451  49.915  1.00  0.00     0.110 A 
HETATM    2  C   UNL     1      24.138  44.402  49.897  1.00  0.00     0.143 A 
HETATM    3  N   UNL     1      22.967  44.848  49.278  1.00  0.00    -0.197 N 
HETATM    4  C   UNL     1      23.094  46.206  49.049  1.00  0.00     0.183 A 
HETATM    5  C   UNL     1      24.378  46.590  49.415  1.00  0.00     0.125 A 
HETATM    6  N   UNL     1      24.779  47.886  49.323  1.00  0.00    -0.242 NA
HETATM    7  C   UNL     1      23.835  48.736  48.881  1.00  0.00     0.086 A 
HETATM    8  C   UNL     1      22.535  48.311  48.499  1.00  0.00     0.088 A 
HETATM    9  N   UNL     1      22.141  47.032  48.557  1.00  0.00    -0.225 NA
HETATM   10  C   UNL     1      24.141  50.090  48.811  1.00  0.00     0.034 A 
HETATM   11  C   UNL     1      23.206  51.033  48.377  1.00  0.00     0.002 A 
HETATM   12  C   UNL     1      21.940  50.613  47.993  1.00  0.00     0.002 A 
HETATM   13  C   UNL     1      21.619  49.257  48.056  1.00  0.00     0.034 A 
ENDROOT
BRANCH   1  14
HETATM   14  C   UNL     1      26.403  45.342  50.423  1.00  0.00     0.257 C 
HETATM   15  N   UNL     1      26.469  45.479  51.802  1.00  0.00    -0.356 N 
HETATM   16  H   UNL     1      25.567  45.683  52.220  1.00  0.00     0.162 HD
HETATM   17  O   UNL     1      27.347  45.027  49.712  1.00  0.00    -0.267 OA
BRANCH  15  18
HETATM   18  C   UNL     1      27.276  44.579  52.601  1.00  0.00     0.127 C 
BRANCH  18  19
HETATM   19  C   UNL     1      27.146  44.659  54.122  1.00  0.00     0.058 C 
BRANCH  19  20
HETATM   20  C   UNL     1      28.531  44.581  54.731  1.00  0.00    -0.057 A 
HETATM   21  C   UNL     1      29.341  43.461  54.480  1.00  0.00     0.007 A 
HETATM   22  C   UNL     1      30.573  43.321  55.118  1.00  0.00     0.001 A 
HETATM   23  C   UNL     1      31.012  44.301  56.006  1.00  0.00     0.000 A 
HETATM   24  C   UNL     1      30.221  45.423  56.251  1.00  0.00     0.001 A 
HETATM   25  C   UNL     1      28.984  45.563  55.618  1.00  0.00     0.007 A 
ENDBRANCH  19  20
ENDBRANCH  18  19
ENDBRANCH  15  18
ENDBRANCH   1  14
BRANCH   2  26
HETATM   26  N   UNL     1      24.273  43.136  50.386  1.00  0.00    -0.383 N 
HETATM   27  H   UNL     1      24.415  43.013  51.387  1.00  0.00     0.157 HD
HETATM   28  H   UNL     1      24.813  42.455  49.859  1.00  0.00     0.157 HD
ENDBRANCH   2  26
BRANCH   3  29
HETATM   29  N   UNL     1      21.803  44.143  49.128  1.00  0.00    -0.176 NA
HETATM   30  C   UNL     1      21.594  43.523  48.008  1.00  0.00     0.153 C 
BRANCH  30  31
HETATM   31  C   UNL     1      22.380  43.593  46.793  1.00  0.00     0.011 A 
HETATM   32  C   UNL     1      22.102  44.398  45.641  1.00  0.00     0.004 A 
HETATM   33  C   UNL     1      23.130  44.181  44.724  1.00  0.00     0.043 A 
HETATM   34  C   UNL     1      21.051  45.267  45.280  1.00  0.00     0.014 A 
HETATM   35  C   UNL     1      23.171  44.801  43.470  1.00  0.00     0.030 A 
HETATM   36  N   UNL     1      24.010  43.293  45.304  1.00  0.00    -0.364 N 
HETATM   37  C   UNL     1      22.115  45.653  43.134  1.00  0.00     0.002 A 
HETATM   38  C   UNL     1      21.067  45.883  44.023  1.00  0.00     0.001 A 
HETATM   39  H   UNL     1      24.860  42.961  44.867  1.00  0.00     0.165 HD
HETATM   40  C   UNL     1      23.565  42.929  46.547  1.00  0.00     0.102 A 
ENDBRANCH  30  31
ENDBRANCH   3  29
TORSDOF 7
ENDMDL
MODEL 4
REMARK VINA RESULT:      -9.4      2.073      8.961
REMARK  7 active torsions:
REMARK  status: ('A' for Active; 'I' for Inactive)
REMARK    1  A    between atoms: C_4  and  C_5 
REMARK    2  A    between atoms: C_5  and  C_6 
REMARK    3  A    between atoms: C_6  and  N_7 
REMARK       I    between atoms: N_7  and  C_8 
REMARK    4  A    between atoms: C_8  and  C_9 
REMARK    5  A    between atoms: C_10  and  N_11 
REMARK    6  A    between atoms: N_12  and  N_13 
REMARK    7  A    between atoms: C_14  and  C_15 
ROOT
HETATM    1  C   UNL     1      23.349  44.790  49.158  1.00  0.00     0.110 A 
HETATM    2  C   UNL     1      24.045  43.592  49.274  1.00  0.00     0.143 A 
HETATM    3  N   UNL     1      25.388  43.885  49.525  1.00  0.00    -0.197 N 
HETATM    4  C   UNL     1      25.555  45.253  49.416  1.00  0.00     0.183 A 
HETATM    5  C   UNL     1      24.307  45.829  49.212  1.00  0.00     0.125 A 
HETATM    6  N   UNL     1      24.170  47.171  49.040  1.00  0.00    -0.242 NA
HETATM    7  C   UNL     1      25.324  47.861  49.062  1.00  0.00     0.086 A 
HETATM    8  C   UNL     1      26.584  47.246  49.290  1.00  0.00     0.088 A 
HETATM    9  N   UNL     1      26.726  45.929  49.490  1.00  0.00    -0.225 NA
HETATM   10  C   UNL     1      25.282  49.232  48.838  1.00  0.00     0.034 A 
HETATM   11  C   UNL     1      26.442  50.011  48.830  1.00  0.00     0.002 A 
HETATM   12  C   UNL     1      27.671  49.409  49.064  1.00  0.00     0.002 A 
HETATM   13  C   UNL     1      27.728  48.034  49.293  1.00  0.00     0.034 A 
ENDROOT
BRANCH   1  14
HETATM   14  C   UNL     1      21.917  44.882  48.959  1.00  0.00     0.257 C 
HETATM   15  N   UNL     1      21.426  46.158  49.190  1.00  0.00    -0.356 N 
HETATM   16  H   UNL     1      22.142  46.803  49.509  1.00  0.00     0.162 HD
HETATM   17  O   UNL     1      21.258  43.957  48.503  1.00  0.00    -0.267 OA
BRANCH  15  18
HETATM   18  C   UNL     1      20.477  46.767  48.278  1.00  0.00     0.127 C 
BRANCH  18  19
HETATM   19  C   UNL     1      21.021  47.692  47.190  1.00  0.00     0.058 C 
BRANCH  19  20
HETATM   20  C   UNL     1      20.763  49.127  47.601  1.00  0.00    -0.057 A 
HETATM   21  C   UNL     1      21.621  49.754  48.519  1.00  0.00     0.007 A 
HETATM   22  C   UNL     1      21.339  51.035  48.992  1.00  0.00     0.001 A 
HETATM   23  C   UNL     1      20.201  51.705  48.547  1.00  0.00     0.000 A 
HETATM   24  C   UNL     1      19.350  51.096  47.626  1.00  0.00     0.001 A 
HETATM   25  C   UNL     1      19.627  49.811  47.155  1.00  0.00     0.007 A 
ENDBRANCH  19  20
ENDBRANCH  18  19
ENDBRANCH  15  18
ENDBRANCH   1  14
BRANCH   2  26
HETATM   26  N   UNL     1      23.581  42.314  49.161  1.00  0.00    -0.383 N 
HETATM   27  H   UNL     1      23.455  41.765  50.010  1.00  0.00     0.157 HD
HETATM   28  H   UNL     1      23.915  41.730  48.399  1.00  0.00     0.157 HD
ENDBRANCH   2  26
BRANCH   3  29
HETATM   29  N   UNL     1      26.414  42.985  49.630  1.00  0.00    -0.176 NA
HETATM   30  C   UNL     1      26.908  42.742  50.805  1.00  0.00     0.153 C 
BRANCH  30  31
HETATM   31  C   UNL     1      26.614  43.422  52.050  1.00  0.00     0.011 A 
HETATM   32  C   UNL     1      27.561  43.825  53.046  1.00  0.00     0.004 A 
HETATM   33  C   UNL     1      26.851  44.471  54.058  1.00  0.00     0.043 A 
HETATM   34  C   UNL     1      28.956  43.672  53.195  1.00  0.00     0.014 A 
HETATM   35  C   UNL     1      27.465  44.986  55.206  1.00  0.00     0.030 A 
HETATM   36  N   UNL     1      25.525  44.477  53.683  1.00  0.00    -0.364 N 
HETATM   37  C   UNL     1      28.846  44.816  55.333  1.00  0.00     0.002 A 
HETATM   38  C   UNL     1      29.584  44.166  54.345  1.00  0.00     0.001 A 
HETATM   39  H   UNL     1      24.778  44.890  54.225  1.00  0.00     0.165 HD
HETATM   40  C   UNL     1      25.371  43.843  52.478  1.00  0.00     0.102 A 
ENDBRANCH  30  31
ENDBRANCH   3  29
TORSDOF 7
ENDMDL
MODEL 5
REMARK VINA RESULT:      -9.3      2.909      7.035
REMARK  7 active torsions:
REMARK  status: ('A' for Active; 'I' for Inactive)
REMARK    1  A    between atoms: C_4  and  C_5 
REMARK    2  A    between atoms: C_5  and  C_6 
REMARK    3  A    between atoms: C_6  and  N_7 
REMARK       I    between atoms: N_7  and  C_8 
REMARK    4  A    between atoms: C_8  and  C_9 
REMARK    5  A    between atoms: C_10  and  N_11 
REMARK    6  A    between atoms: N_12  and  N_13 
REMARK    7  A    between atoms: C_14  and  C_15 
ROOT
HETATM    1  C   UNL     1      25.226  44.732  50.652  1.00  0.00     0.110 A 
HETATM    2  C   UNL     1      24.668  43.460  50.711  1.00  0.00     0.143 A 
HETATM    3  N   UNL     1      23.543  43.435  49.882  1.00  0.00    -0.197 N 
HETATM    4  C   UNL     1      23.316  44.721  49.430  1.00  0.00     0.183 A 
HETATM    5  C   UNL     1      24.354  45.530  49.877  1.00  0.00     0.125 A 
HETATM    6  N   UNL     1      24.379  46.861  49.603  1.00  0.00    -0.242 NA
HETATM    7  C   UNL     1      23.322  47.310  48.902  1.00  0.00     0.086 A 
HETATM    8  C   UNL     1      22.283  46.457  48.445  1.00  0.00     0.088 A 
HETATM    9  N   UNL     1      22.266  45.138  48.683  1.00  0.00    -0.225 NA
HETATM   10  C   UNL     1      23.237  48.670  48.628  1.00  0.00     0.034 A 
HETATM   11  C   UNL     1      22.161  49.210  47.919  1.00  0.00     0.002 A 
HETATM   12  C   UNL     1      21.153  48.372  47.463  1.00  0.00     0.002 A 
HETATM   13  C   UNL     1      21.226  47.004  47.729  1.00  0.00     0.034 A 
ENDROOT
BRANCH   1  14
HETATM   14  C   UNL     1      26.446  45.116  51.336  1.00  0.00     0.257 C 
HETATM   15  N   UNL     1      26.258  46.176  52.209  1.00  0.00    -0.356 N 
HETATM   16  H   UNL     1      25.311  46.540  52.187  1.00  0.00     0.162 HD
HETATM   17  O   UNL     1      27.482  44.472  51.239  1.00  0.00    -0.267 OA
BRANCH  15  18
HETATM   18  C   UNL     1      26.829  46.153  53.541  1.00  0.00     0.127 C 
BRANCH  18  19
HETATM   19  C   UNL     1      26.893  44.811  54.270  1.00  0.00     0.058 C 
BRANCH  19  20
HETATM   20  C   UNL     1      28.315  44.583  54.740  1.00  0.00    -0.057 A 
HETATM   21  C   UNL     1      29.010  43.436  54.327  1.00  0.00     0.007 A 
HETATM   22  C   UNL     1      30.278  43.154  54.835  1.00  0.00     0.001 A 
HETATM   23  C   UNL     1      30.867  44.020  55.755  1.00  0.00     0.000 A 
HETATM   24  C   UNL     1      30.189  45.169  56.161  1.00  0.00     0.001 A 
HETATM   25  C   UNL     1      28.918  45.450  55.658  1.00  0.00     0.007 A 
ENDBRANCH  19  20
ENDBRANCH  18  19
ENDBRANCH  15  18
ENDBRANCH   1  14
BRANCH   2  26
HETATM   26  N   UNL     1      25.072  42.376  51.433  1.00  0.00    -0.383 N 
HETATM   27  H   UNL     1      25.828  42.492  52.106  1.00  0.00     0.157 HD
HETATM   28  H   UNL     1      25.132  41.469  50.976  1.00  0.00     0.157 HD
ENDBRANCH   2  26
BRANCH   3  29
HETATM   29  N   UNL     1      22.673  42.391  49.719  1.00  0.00    -0.176 NA
HETATM   30  C   UNL     1      22.942  41.493  48.822  1.00  0.00     0.153 C 
BRANCH  30  31
HETATM   31  C   UNL     1      23.999  41.516  47.832  1.00  0.00     0.011 A 
HETATM   32  C   UNL     1      25.295  40.916  47.951  1.00  0.00     0.004 A 
HETATM   33  C   UNL     1      25.976  41.154  46.757  1.00  0.00     0.043 A 
HETATM   34  C   UNL     1      25.963  40.219  48.979  1.00  0.00     0.014 A 
HETATM   35  C   UNL     1      27.286  40.718  46.531  1.00  0.00     0.030 A 
HETATM   36  N   UNL     1      25.120  41.856  45.936  1.00  0.00    -0.364 N 
HETATM   37  C   UNL     1      27.928  40.035  47.568  1.00  0.00     0.002 A 
HETATM   38  C   UNL     1      27.281  39.789  48.777  1.00  0.00     0.001 A 
HETATM   39  H   UNL     1      25.346  42.159  44.997  1.00  0.00     0.165 HD
HETATM   40  C   UNL     1      23.930  42.084  46.575  1.00  0.00     0.102 A 
ENDBRANCH  30  31
ENDBRANCH   3  29
TORSDOF 7
ENDMDL
MODEL 6
REMARK VINA RESULT:      -9.3      2.924      8.888
REMARK  7 active torsions:
REMARK  status: ('A' for Active; 'I' for Inactive)
REMARK    1  A    between atoms: C_4  and  C_5 
REMARK    2  A    between atoms: C_5  and  C_6 
REMARK    3  A    between atoms: C_6  and  N_7 
REMARK       I    between atoms: N_7  and  C_8 
REMARK    4  A    between atoms: C_8  and  C_9 
REMARK    5  A    between atoms: C_10  and  N_11 
REMARK    6  A    between atoms: N_12  and  N_13 
REMARK    7  A    between atoms: C_14  and  C_15 
ROOT
HETATM    1  C   UNL     1      19.537  45.928  47.834  1.00  0.00     0.110 A 
HETATM    2  C   UNL     1      20.253  45.005  47.082  1.00  0.00     0.143 A 
HETATM    3  N   UNL     1      21.578  45.441  46.995  1.00  0.00    -0.197 N 
HETATM    4  C   UNL     1      21.652  46.700  47.559  1.00  0.00     0.183 A 
HETATM    5  C   UNL     1      20.410  47.008  48.101  1.00  0.00     0.125 A 
HETATM    6  N   UNL     1      20.180  48.206  48.701  1.00  0.00    -0.242 NA
HETATM    7  C   UNL     1      21.230  49.047  48.699  1.00  0.00     0.086 A 
HETATM    8  C   UNL     1      22.494  48.698  48.152  1.00  0.00     0.088 A 
HETATM    9  N   UNL     1      22.738  47.508  47.586  1.00  0.00    -0.225 NA
HETATM   10  C   UNL     1      21.066  50.315  49.241  1.00  0.00     0.034 A 
HETATM   11  C   UNL     1      22.108  51.247  49.260  1.00  0.00     0.002 A 
HETATM   12  C   UNL     1      23.344  50.898  48.735  1.00  0.00     0.002 A 
HETATM   13  C   UNL     1      23.525  49.628  48.189  1.00  0.00     0.034 A 
ENDROOT
BRANCH   1  14
HETATM   14  C   UNL     1      18.140  45.778  48.190  1.00  0.00     0.257 C 
HETATM   15  N   UNL     1      17.685  46.798  49.011  1.00  0.00    -0.356 N 
HETATM   16  H   UNL     1      18.416  47.453  49.267  1.00  0.00     0.162 HD
HETATM   17  O   UNL     1      17.428  44.914  47.697  1.00  0.00    -0.267 OA
BRANCH  15  18
HETATM   18  C   UNL     1      16.409  47.440  48.762  1.00  0.00     0.127 C 
BRANCH  18  19
HETATM   19  C   UNL     1      16.241  48.221  47.458  1.00  0.00     0.058 C 
BRANCH  19  20
HETATM   20  C   UNL     1      17.047  49.499  47.553  1.00  0.00    -0.057 A 
HETATM   21  C   UNL     1      16.878  50.350  48.657  1.00  0.00     0.007 A 
HETATM   22  C   UNL     1      17.529  51.583  48.709  1.00  0.00     0.001 A 
HETATM   23  C   UNL     1      18.362  51.973  47.662  1.00  0.00     0.000 A 
HETATM   24  C   UNL     1      18.548  51.129  46.568  1.00  0.00     0.001 A 
HETATM   25  C   UNL     1      17.892  49.898  46.511  1.00  0.00     0.007 A 
ENDBRANCH  19  20
ENDBRANCH  18  19
ENDBRANCH  15  18
ENDBRANCH   1  14
BRANCH   2  26
HETATM   26  N   UNL     1      19.817  43.858  46.485  1.00  0.00    -0.383 N 
HETATM   27  H   UNL     1      18.914  43.478  46.761  1.00  0.00     0.157 HD
HETATM   28  H   UNL     1      20.482  43.111  46.300  1.00  0.00     0.157 HD
ENDBRANCH   2  26
BRANCH   3  29
HETATM   29  N   UNL     1      22.586  44.852  46.280  1.00  0.00    -0.176 NA
HETATM   30  C   UNL     1      23.391  44.041  46.895  1.00  0.00     0.153 C 
BRANCH  30  31
HETATM   31  C   UNL     1      23.465  43.772  48.316  1.00  0.00     0.011 A 
HETATM   32  C   UNL     1      24.227  44.503  49.285  1.00  0.00     0.004 A 
HETATM   33  C   UNL     1      23.983  43.923  50.530  1.00  0.00     0.043 A 
HETATM   34  C   UNL     1      25.128  45.586  49.212  1.00  0.00     0.014 A 
HETATM   35  C   UNL     1      24.582  44.380  51.710  1.00  0.00     0.030 A 
HETATM   36  N   UNL     1      23.093  42.891  50.329  1.00  0.00    -0.364 N 
HETATM   37  C   UNL     1      25.475  45.450  51.610  1.00  0.00     0.002 A 
HETATM   38  C   UNL     1      25.748  46.046  50.380  1.00  0.00     0.001 A 
HETATM   39  H   UNL     1      22.729  42.296  51.062  1.00  0.00     0.165 HD
HETATM   40  C   UNL     1      22.779  42.787  49.000  1.00  0.00     0.102 A 
ENDBRANCH  30  31
ENDBRANCH   3  29
TORSDOF 7
ENDMDL
MODEL 7
REMARK VINA RESULT:      -9.2      2.227      3.462
REMARK  7 active torsions:
REMARK  status: ('A' for Active; 'I' for Inactive)
REMARK    1  A    between atoms: C_4  and  C_5 
REMARK    2  A    between atoms: C_5  and  C_6 
REMARK    3  A    between atoms: C_6  and  N_7 
REMARK       I    between atoms: N_7  and  C_8 
REMARK    4  A    between atoms: C_8  and  C_9 
REMARK    5  A    between atoms: C_10  and  N_11 
REMARK    6  A    between atoms: N_12  and  N_13 
REMARK    7  A    between atoms: C_14  and  C_15 
ROOT
HETATM    1  C   UNL     1      24.030  46.717  49.437  1.00  0.00     0.110 A 
HETATM    2  C   UNL     1      23.271  47.417  48.507  1.00  0.00     0.143 A 
HETATM    3  N   UNL     1      22.616  46.493  47.688  1.00  0.00    -0.197 N 
HETATM    4  C   UNL     1      23.082  45.231  48.009  1.00  0.00     0.183 A 
HETATM    5  C   UNL     1      23.937  45.347  49.099  1.00  0.00     0.125 A 
HETATM    6  N   UNL     1      24.569  44.261  49.618  1.00  0.00    -0.242 NA
HETATM    7  C   UNL     1      24.313  43.104  48.980  1.00  0.00     0.086 A 
HETATM    8  C   UNL     1      23.421  43.014  47.878  1.00  0.00     0.088 A 
HETATM    9  N   UNL     1      22.771  44.074  47.380  1.00  0.00    -0.225 NA
HETATM   10  C   UNL     1      24.962  41.953  49.408  1.00  0.00     0.034 A 
HETATM   11  C   UNL     1      24.758  40.719  48.784  1.00  0.00     0.002 A 
HETATM   12  C   UNL     1      23.877  40.632  47.716  1.00  0.00     0.002 A 
HETATM   13  C   UNL     1      23.216  41.779  47.276  1.00  0.00     0.034 A 
ENDROOT
BRANCH   1  14
HETATM   14  C   UNL     1      24.799  47.343  50.495  1.00  0.00     0.257 C 
HETATM   15  N   UNL     1      24.903  46.545  51.624  1.00  0.00    -0.356 N 
HETATM   16  H   UNL     1      24.381  45.679  51.543  1.00  0.00     0.162 HD
HETATM   17  O   UNL     1      25.397  48.398  50.333  1.00  0.00    -0.267 OA
BRANCH  15  18
HETATM   18  C   UNL     1      26.171  46.384  52.308  1.00  0.00     0.127 C 
BRANCH  18  19
HETATM   19  C   UNL     1      26.181  46.488  53.833  1.00  0.00     0.058 C 
BRANCH  19  20
HETATM   20  C   UNL     1      27.370  45.713  54.362  1.00  0.00    -0.057 A 
HETATM   21  C   UNL     1      28.210  46.296  55.325  1.00  0.00     0.007 A 
HETATM   22  C   UNL     1      29.369  45.643  55.743  1.00  0.00     0.001 A 
HETATM   23  C   UNL     1      29.696  44.398  55.210  1.00  0.00     0.000 A 
HETATM   24  C   UNL     1      28.861  43.804  54.264  1.00  0.00     0.001 A 
HETATM   25  C   UNL     1      27.704  44.459  53.839  1.00  0.00     0.007 A 
ENDBRANCH  19  20
ENDBRANCH  18  19
ENDBRANCH  15  18
ENDBRANCH   1  14
BRANCH   2  26
HETATM   26  N   UNL     1      23.143  48.764  48.341  1.00  0.00    -0.383 N 
HETATM   27  H   UNL     1      22.253  49.132  48.007  1.00  0.00     0.157 HD
HETATM   28  H   UNL     1      23.920  49.294  47.953  1.00  0.00     0.157 HD
ENDBRANCH   2  26
BRANCH   3  29
HETATM   29  N   UNL     1      21.831  46.776  46.603  1.00  0.00    -0.176 NA
HETATM   30  C   UNL     1      20.714  47.407  46.794  1.00  0.00     0.153 C 
BRANCH  30  31
HETATM   31  C   UNL     1      20.086  47.740  48.057  1.00  0.00     0.011 A 
HETATM   32  C   UNL     1      19.790  49.055  48.543  1.00  0.00     0.004 A 
HETATM   33  C   UNL     1      19.161  48.909  49.779  1.00  0.00     0.043 A 
HETATM   34  C   UNL     1      20.029  50.358  48.059  1.00  0.00     0.014 A 
HETATM   35  C   UNL     1      18.743  50.000  50.550  1.00  0.00     0.030 A 
HETATM   36  N   UNL     1      19.061  47.557  50.027  1.00  0.00    -0.364 N 
HETATM   37  C   UNL     1      18.997  51.281  50.051  1.00  0.00     0.002 A 
HETATM   38  C   UNL     1      19.633  51.461  48.825  1.00  0.00     0.001 A 
HETATM   39  H   UNL     1      18.637  47.156  50.852  1.00  0.00     0.165 HD
HETATM   40  C   UNL     1      19.621  46.845  48.999  1.00  0.00     0.102 A 
ENDBRANCH  30  31
ENDBRANCH   3  29
TORSDOF 7
ENDMDL
MODEL 8
REMARK VINA RESULT:      -9.2      2.800      6.453
REMARK  7 active torsions:
REMARK  status: ('A' for Active; 'I' for Inactive)
REMARK    1  A    between atoms: C_4  and  C_5 
REMARK    2  A    between atoms: C_5  and  C_6 
REMARK    3  A    between atoms: C_6  and  N_7 
REMARK       I    between atoms: N_7  and  C_8 
REMARK    4  A    between atoms: C_8  and  C_9 
REMARK    5  A    between atoms: C_10  and  N_11 
REMARK    6  A    between atoms: N_12  and  N_13 
REMARK    7  A    between atoms: C_14  and  C_15 
ROOT
HETATM    1  C   UNL     1      25.119  45.385  49.882  1.00  0.00     0.110 A 
HETATM    2  C   UNL     1      24.198  44.345  49.855  1.00  0.00     0.143 A 
HETATM    3  N   UNL     1      23.039  44.800  49.220  1.00  0.00    -0.197 N 
HETATM    4  C   UNL     1      23.181  46.156  48.989  1.00  0.00     0.183 A 
HETATM    5  C   UNL     1      24.465  46.529  49.370  1.00  0.00     0.125 A 
HETATM    6  N   UNL     1      24.879  47.821  49.279  1.00  0.00    -0.242 NA
HETATM    7  C   UNL     1      23.949  48.679  48.823  1.00  0.00     0.086 A 
HETATM    8  C   UNL     1      22.649  48.264  48.425  1.00  0.00     0.088 A 
HETATM    9  N   UNL     1      22.243  46.989  48.482  1.00  0.00    -0.225 NA
HETATM   10  C   UNL     1      24.268  50.029  48.752  1.00  0.00     0.034 A 
HETATM   11  C   UNL     1      23.347  50.979  48.303  1.00  0.00     0.002 A 
HETATM   12  C   UNL     1      22.083  50.570  47.905  1.00  0.00     0.002 A 
HETATM   13  C   UNL     1      21.748  49.217  47.968  1.00  0.00     0.034 A 
ENDROOT
BRANCH   1  14
HETATM   14  C   UNL     1      26.465  45.265  50.408  1.00  0.00     0.257 C 
HETATM   15  N   UNL     1      26.511  45.380  51.789  1.00  0.00    -0.356 N 
HETATM   16  H   UNL     1      25.603  45.579  52.198  1.00  0.00     0.162 HD
HETATM   17  O   UNL     1      27.419  44.960  49.705  1.00  0.00    -0.267 OA
BRANCH  15  18
HETATM   18  C   UNL     1      27.305  44.465  52.585  1.00  0.00     0.127 C 
BRANCH  18  19
HETATM   19  C   UNL     1      27.164  44.530  54.106  1.00  0.00     0.058 C 
BRANCH  19  20
HETATM   20  C   UNL     1      28.547  44.487  54.722  1.00  0.00    -0.057 A 
HETATM   21  C   UNL     1      29.352  43.349  54.549  1.00  0.00     0.007 A 
HETATM   22  C   UNL     1      30.582  43.245  55.199  1.00  0.00     0.001 A 
HETATM   23  C   UNL     1      31.023  44.281  56.021  1.00  0.00     0.000 A 
HETATM   24  C   UNL     1      30.237  45.420  56.188  1.00  0.00     0.001 A 
HETATM   25  C   UNL     1      29.003  45.523  55.544  1.00  0.00     0.007 A 
ENDBRANCH  19  20
ENDBRANCH  18  19
ENDBRANCH  15  18
ENDBRANCH   1  14
BRANCH   2  26
HETATM   26  N   UNL     1      24.315  43.080  50.350  1.00  0.00    -0.383 N 
HETATM   27  H   UNL     1      24.877  42.404  49.835  1.00  0.00     0.157 HD
HETATM   28  H   UNL     1      23.501  42.631  50.763  1.00  0.00     0.157 HD
ENDBRANCH   2  26
BRANCH   3  29
HETATM   29  N   UNL     1      21.871  44.106  49.058  1.00  0.00    -0.176 NA
HETATM   30  C   UNL     1      21.780  43.267  48.072  1.00  0.00     0.153 C 
BRANCH  30  31
HETATM   31  C   UNL     1      22.723  43.060  46.992  1.00  0.00     0.011 A 
HETATM   32  C   UNL     1      23.543  41.904  46.784  1.00  0.00     0.004 A 
HETATM   33  C   UNL     1      24.271  42.115  45.613  1.00  0.00     0.043 A 
HETATM   34  C   UNL     1      23.756  40.708  47.502  1.00  0.00     0.014 A 
HETATM   35  C   UNL     1      25.192  41.186  45.114  1.00  0.00     0.030 A 
HETATM   36  N   UNL     1      23.895  43.345  45.118  1.00  0.00    -0.364 N 
HETATM   37  C   UNL     1      25.389  40.013  45.848  1.00  0.00     0.002 A 
HETATM   38  C   UNL     1      24.686  39.775  47.026  1.00  0.00     0.001 A 
HETATM   39  H   UNL     1      24.257  43.756  44.268  1.00  0.00     0.165 HD
HETATM   40  C   UNL     1      22.968  43.924  45.944  1.00  0.00     0.102 A 
ENDBRANCH  30  31
ENDBRANCH   3  29
TORSDOF 7
ENDMDL
MODEL 9
REMARK VINA RESULT:      -8.7      6.228      9.117
REMARK  7 active torsions:
REMARK  status: ('A' for Active; 'I' for Inactive)
REMARK    1  A    between atoms: C_4  and  C_5 
REMARK    2  A    between atoms: C_5  and  C_6 
REMARK    3  A    between atoms: C_6  and  N_7 
REMARK       I    between atoms: N_7  and  C_8 
REMARK    4  A    between atoms: C_8  and  C_9 
REMARK    5  A    between atoms: C_10  and  N_11 
REMARK    6  A    between atoms: N_12  and  N_13 
REMARK    7  A    between atoms: C_14  and  C_15 
ROOT
HETATM    1  C   UNL     1      25.348  41.770  49.309  1.00  0.00     0.110 A 
HETATM    2  C   UNL     1      25.041  41.907  47.960  1.00  0.00     0.143 A 
HETATM    3  N   UNL     1      25.798  40.979  47.240  1.00  0.00    -0.197 N 
HETATM    4  C   UNL     1      26.679  40.373  48.115  1.00  0.00     0.183 A 
HETATM    5  C   UNL     1      26.403  40.832  49.398  1.00  0.00     0.125 A 
HETATM    6  N   UNL     1      27.137  40.423  50.466  1.00  0.00    -0.242 NA
HETATM    7  C   UNL     1      28.140  39.578  50.168  1.00  0.00     0.086 A 
HETATM    8  C   UNL     1      28.389  39.114  48.849  1.00  0.00     0.088 A 
HETATM    9  N   UNL     1      27.652  39.487  47.795  1.00  0.00    -0.225 NA
HETATM   10  C   UNL     1      28.978  39.155  51.193  1.00  0.00     0.034 A 
HETATM   11  C   UNL     1      30.050  38.290  50.956  1.00  0.00     0.002 A 
HETATM   12  C   UNL     1      30.283  37.829  49.667  1.00  0.00     0.002 A 
HETATM   13  C   UNL     1      29.449  38.244  48.629  1.00  0.00     0.034 A 
ENDROOT
BRANCH   1  14
HETATM   14  C   UNL     1      24.710  42.525  50.368  1.00  0.00     0.257 C 
HETATM   15  N   UNL     1      25.450  42.532  51.541  1.00  0.00    -0.356 N 
HETATM   16  H   UNL     1      26.290  41.966  51.479  1.00  0.00     0.162 HD
HETATM   17  O   UNL     1      23.698  43.188  50.183  1.00  0.00    -0.267 OA
BRANCH  15  18
HETATM   18  C   UNL     1      25.643  43.757  52.291  1.00  0.00     0.127 C 
BRANCH  18  19
HETATM   19  C   UNL     1      26.855  44.624  51.949  1.00  0.00     0.058 C 
BRANCH  19  20
HETATM   20  C   UNL     1      28.035  44.152  52.772  1.00  0.00    -0.057 A 
HETATM   21  C   UNL     1      28.897  43.171  52.257  1.00  0.00     0.007 A 
HETATM   22  C   UNL     1      29.924  42.646  53.042  1.00  0.00     0.001 A 
HETATM   23  C   UNL     1      30.104  43.102  54.346  1.00  0.00     0.000 A 
HETATM   24  C   UNL     1      29.262  44.086  54.862  1.00  0.00     0.001 A 
HETATM   25  C   UNL     1      28.230  44.608  54.081  1.00  0.00     0.007 A 
ENDBRANCH  19  20
ENDBRANCH  18  19
ENDBRANCH  15  18
ENDBRANCH   1  14
BRANCH   2  26
HETATM   26  N   UNL     1      24.179  42.776  47.359  1.00  0.00    -0.383 N 
HETATM   27  H   UNL     1      24.542  43.413  46.652  1.00  0.00     0.157 HD
HETATM   28  H   UNL     1      23.460  43.230  47.917  1.00  0.00     0.157 HD
ENDBRANCH   2  26
BRANCH   3  29
HETATM   29  N   UNL     1      25.842  40.842  45.878  1.00  0.00    -0.176 NA
HETATM   30  C   UNL     1      25.009  40.025  45.310  1.00  0.00     0.153 C 
BRANCH  30  31
HETATM   31  C   UNL     1      24.103  39.093  45.949  1.00  0.00     0.011 A 
HETATM   32  C   UNL     1      22.692  39.261  46.129  1.00  0.00     0.004 A 
HETATM   33  C   UNL     1      22.213  38.113  46.760  1.00  0.00     0.043 A 
HETATM   34  C   UNL     1      21.781  40.300  45.841  1.00  0.00     0.014 A 
HETATM   35  C   UNL     1      20.867  37.942  47.105  1.00  0.00     0.030 A 
HETATM   36  N   UNL     1      23.289  37.271  46.940  1.00  0.00    -0.364 N 
HETATM   37  C   UNL     1      19.987  38.988  46.814  1.00  0.00     0.002 A 
HETATM   38  C   UNL     1      20.434  40.153  46.194  1.00  0.00     0.001 A 
HETATM   39  H   UNL     1      23.235  36.356  47.368  1.00  0.00     0.165 HD
HETATM   40  C   UNL     1      24.432  37.854  46.461  1.00  0.00     0.102 A 
ENDBRANCH  30  31
ENDBRANCH   3  29
TORSDOF 7
ENDMDL
MODEL 10
REMARK VINA RESULT:      -8.6      2.598      5.947
REMARK  7 active torsions:
REMARK  status: ('A' for Active; 'I' for Inactive)
REMARK    1  A    between atoms: C_4  and  C_5 
REMARK    2  A    between atoms: C_5  and  C_6 
REMARK    3  A    between atoms: C_6  and  N_7 
REMARK       I    between atoms: N_7  and  C_8 
REMARK    4  A    between atoms: C_8  and  C_9 
REMARK    5  A    between atoms: C_10  and  N_11 
REMARK    6  A    between atoms: N_12  and  N_13 
REMARK    7  A    between atoms: C_14  and  C_15 
ROOT
HETATM    1  C   UNL     1      23.479  45.673  49.140  1.00  0.00     0.110 A 
HETATM    2  C   UNL     1      22.639  44.616  48.813  1.00  0.00     0.143 A 
HETATM    3  N   UNL     1      21.491  45.136  48.209  1.00  0.00    -0.197 N 
HETATM    4  C   UNL     1      21.549  46.515  48.295  1.00  0.00     0.183 A 
HETATM    5  C   UNL     1      22.776  46.865  48.847  1.00  0.00     0.125 A 
HETATM    6  N   UNL     1      23.101  48.165  49.076  1.00  0.00    -0.242 NA
HETATM    7  C   UNL     1      22.141  49.049  48.752  1.00  0.00     0.086 A 
HETATM    8  C   UNL     1      20.902  48.663  48.175  1.00  0.00     0.088 A 
HETATM    9  N   UNL     1      20.585  47.387  47.916  1.00  0.00    -0.225 NA
HETATM   10  C   UNL     1      22.365  50.396  49.008  1.00  0.00     0.034 A 
HETATM   11  C   UNL     1      21.408  51.370  48.712  1.00  0.00     0.002 A 
HETATM   12  C   UNL     1      20.203  50.990  48.138  1.00  0.00     0.002 A 
HETATM   13  C   UNL     1      19.964  49.642  47.873  1.00  0.00     0.034 A 
ENDROOT
BRANCH   1  14
HETATM   14  C   UNL     1      24.795  45.514  49.727  1.00  0.00     0.257 C 
HETATM   15  N   UNL     1      25.500  46.706  49.791  1.00  0.00    -0.356 N 
HETATM   16  H   UNL     1      24.999  47.482  49.370  1.00  0.00     0.162 HD
HETATM   17  O   UNL     1      25.165  44.461  50.229  1.00  0.00    -0.267 OA
BRANCH  15  18
HETATM   18  C   UNL     1      26.224  47.079  50.989  1.00  0.00     0.127 C 
BRANCH  18  19
HETATM   19  C   UNL     1      25.488  46.995  52.327  1.00  0.00     0.058 C 
BRANCH  19  20
HETATM   20  C   UNL     1      26.462  46.520  53.386  1.00  0.00    -0.057 A 
HETATM   21  C   UNL     1      27.001  47.440  54.300  1.00  0.00     0.007 A 
HETATM   22  C   UNL     1      27.980  47.043  55.210  1.00  0.00     0.001 A 
HETATM   23  C   UNL     1      28.424  45.722  55.222  1.00  0.00     0.000 A 
HETATM   24  C   UNL     1      27.885  44.799  54.327  1.00  0.00     0.001 A 
HETATM   25  C   UNL     1      26.910  45.195  53.410  1.00  0.00     0.007 A 
ENDBRANCH  19  20
ENDBRANCH  18  19
ENDBRANCH  15  18
ENDBRANCH   1  14
BRANCH   2  26
HETATM   26  N   UNL     1      22.816  43.280  49.022  1.00  0.00    -0.383 N 
HETATM   27  H   UNL     1      22.216  42.808  49.697  1.00  0.00     0.157 HD
HETATM   28  H   UNL     1      23.760  42.903  49.054  1.00  0.00     0.157 HD
ENDBRANCH   2  26
BRANCH   3  29
HETATM   29  N   UNL     1      20.388  44.432  47.808  1.00  0.00    -0.176 NA
HETATM   30  C   UNL     1      20.295  44.083  46.561  1.00  0.00     0.153 C 
BRANCH  30  31
HETATM   31  C   UNL     1      21.154  44.475  45.463  1.00  0.00     0.011 A 
HETATM   32  C   UNL     1      22.295  43.760  44.975  1.00  0.00     0.004 A 
HETATM   33  C   UNL     1      22.804  44.477  43.892  1.00  0.00     0.043 A 
HETATM   34  C   UNL     1      22.963  42.583  45.376  1.00  0.00     0.014 A 
HETATM   35  C   UNL     1      23.937  44.070  43.178  1.00  0.00     0.030 A 
HETATM   36  N   UNL     1      21.991  45.575  43.716  1.00  0.00    -0.364 N 
HETATM   37  C   UNL     1      24.584  42.905  43.599  1.00  0.00     0.002 A 
HETATM   38  C   UNL     1      24.108  42.171  44.684  1.00  0.00     0.001 A 
HETATM   39  H   UNL     1      22.117  46.271  42.992  1.00  0.00     0.165 HD
HETATM   40  C   UNL     1      20.999  45.587  44.660  1.00  0.00     0.102 A 
ENDBRANCH  30  31
ENDBRANCH   3  29
TORSDOF 7
ENDMDL
