MODEL 1
REMARK VINA RESULT:     -10.5      0.000      0.000
REMARK  4 active torsions:
REMARK  status: ('A' for Active; 'I' for Inactive)
REMARK    1  A    between atoms: C_5  and  C_6 
REMARK    2  A    between atoms: C_6  and  C_7 
REMARK       I    between atoms: C_7  and  N_8 
REMARK    3  A    between atoms: N_8  and  C_9 
REMARK    4  A    between atoms: C_16  and  C_17 
REMARK       I    between atoms: C_17  and  N_18 
ROOT
HETATM    1  C   UNL     1      25.742  47.236  50.642  1.00  0.00     0.035 A 
HETATM    2  C   UNL     1      24.496  47.628  50.135  1.00  0.00     0.046 A 
HETATM    3  C   UNL     1      24.432  48.620  49.131  1.00  0.00     0.030 A 
HETATM    4  C   UNL     1      25.614  49.198  48.684  1.00  0.00     0.063 A 
HETATM    5  N   UNL     1      25.237  50.109  47.737  1.00  0.00    -0.277 N 
HETATM    6  H   UNL     1      25.841  50.720  47.199  1.00  0.00     0.189 HD
HETATM    7  N   UNL     1      23.914  50.164  47.512  1.00  0.00    -0.168 NA
HETATM    8  C   UNL     1      23.403  49.247  48.366  1.00  0.00     0.156 A 
HETATM    9  C   UNL     1      26.871  48.837  49.171  1.00  0.00     0.034 A 
HETATM   10  C   UNL     1      26.909  47.838  50.152  1.00  0.00     0.032 A 
ENDROOT
BRANCH   1  11
HETATM   11  N   UNL     1      25.910  46.235  51.623  1.00  0.00    -0.327 N 
HETATM   12  C   UNL     1      26.278  46.402  52.947  1.00  0.00     0.226 C 
HETATM   13  O   UNL     1      26.620  47.453  53.480  1.00  0.00    -0.273 OA
HETATM   14  H   UNL     1      25.716  45.287  51.326  1.00  0.00     0.169 HD
BRANCH  12  15
HETATM   15  C   UNL     1      26.308  45.099  53.735  1.00  0.00     0.142 C 
BRANCH  15  16
HETATM   16  C   UNL     1      27.673  44.439  53.798  1.00  0.00    -0.038 A 
HETATM   17  C   UNL     1      28.600  44.713  54.845  1.00  0.00    -0.019 A 
HETATM   18  C   UNL     1      29.850  44.043  54.840  1.00  0.00    -0.025 A 
HETATM   19  C   UNL     1      28.353  45.623  55.899  1.00  0.00     0.013 A 
HETATM   20  C   UNL     1      30.786  44.289  55.859  1.00  0.00     0.012 A 
HETATM   21  C   UNL     1      30.154  43.136  53.814  1.00  0.00     0.012 A 
HETATM   22  C   UNL     1      30.510  45.189  56.886  1.00  0.00     0.001 A 
HETATM   23  C   UNL     1      29.294  45.856  56.907  1.00  0.00     0.001 A 
HETATM   24  C   UNL     1      29.246  42.884  52.790  1.00  0.00     0.001 A 
HETATM   25  C   UNL     1      28.016  43.530  52.780  1.00  0.00     0.008 A 
ENDBRANCH  15  16
ENDBRANCH  12  15
ENDBRANCH   1  11
BRANCH   8  26
HETATM   26  C   UNL     1      21.957  48.984  48.420  1.00  0.00     0.270 C 
HETATM   27  N   UNL     1      21.372  49.334  49.607  1.00  0.00    -0.365 N 
HETATM   28  H   UNL     1      21.950  49.748  50.329  1.00  0.00     0.159 HD
HETATM   29  H   UNL     1      20.380  49.212  49.727  1.00  0.00     0.159 HD
HETATM   30  O   UNL     1      21.297  48.503  47.506  1.00  0.00    -0.266 OA
ENDBRANCH   8  26
TORSDOF 4
ENDMDL
MODEL 2
REMARK VINA RESULT:     -10.4      0.588      2.131
REMARK  4 active torsions:
REMARK  status: ('A' for Active; 'I' for Inactive)
REMARK    1  A    between atoms: C_5  and  C_6 
REMARK    2  A    between atoms: C_6  and  C_7 
REMARK       I    between atoms: C_7  and  N_8 
REMARK    3  A    between atoms: N_8  and  C_9 
REMARK    4  A    between atoms: C_16  and  C_17 
REMARK       I    between atoms: C_17  and  N_18 
ROOT
HETATM    1  C   UNL     1      25.820  47.405  50.795  1.00  0.00     0.035 A 
HETATM    2  C   UNL     1      24.592  47.789  50.242  1.00  0.00     0.046 A 
HETATM    3  C   UNL     1      24.566  48.705  49.166  1.00  0.00     0.030 A 
HETATM    4  C   UNL     1      25.768  49.218  48.694  1.00  0.00     0.063 A 
HETATM    5  N   UNL     1      25.426  50.064  47.677  1.00  0.00    -0.277 N 
HETATM    6  H   UNL     1      26.052  50.618  47.103  1.00  0.00     0.189 HD
HETATM    7  N   UNL     1      24.108  50.135  47.430  1.00  0.00    -0.168 NA
HETATM    8  C   UNL     1      23.563  49.298  48.342  1.00  0.00     0.156 A 
HETATM    9  C   UNL     1      27.009  48.863  49.225  1.00  0.00     0.034 A 
HETATM   10  C   UNL     1      27.009  47.940  50.278  1.00  0.00     0.032 A 
ENDROOT
BRANCH   1  11
HETATM   11  N   UNL     1      25.951  46.476  51.850  1.00  0.00    -0.327 N 
HETATM   12  C   UNL     1      25.786  46.708  53.205  1.00  0.00     0.226 C 
HETATM   13  O   UNL     1      25.590  47.795  53.739  1.00  0.00    -0.273 OA
HETATM   14  H   UNL     1      26.168  45.526  51.579  1.00  0.00     0.169 HD
BRANCH  12  15
HETATM   15  C   UNL     1      25.950  45.455  54.056  1.00  0.00     0.142 C 
BRANCH  15  16
HETATM   16  C   UNL     1      27.341  45.271  54.633  1.00  0.00    -0.038 A 
HETATM   17  C   UNL     1      28.243  44.284  54.138  1.00  0.00    -0.019 A 
HETATM   18  C   UNL     1      29.532  44.187  54.722  1.00  0.00    -0.025 A 
HETATM   19  C   UNL     1      27.932  43.384  53.093  1.00  0.00     0.013 A 
HETATM   20  C   UNL     1      30.446  43.227  54.256  1.00  0.00     0.012 A 
HETATM   21  C   UNL     1      29.894  45.048  55.769  1.00  0.00     0.012 A 
HETATM   22  C   UNL     1      30.109  42.357  53.221  1.00  0.00     0.001 A 
HETATM   23  C   UNL     1      28.852  42.435  52.639  1.00  0.00     0.001 A 
HETATM   24  C   UNL     1      29.001  46.000  56.253  1.00  0.00     0.001 A 
HETATM   25  C   UNL     1      27.735  46.111  55.691  1.00  0.00     0.008 A 
ENDBRANCH  15  16
ENDBRANCH  12  15
ENDBRANCH   1  11
BRANCH   8  26
HETATM   26  C   UNL     1      22.110  49.075  48.395  1.00  0.00     0.270 C 
HETATM   27  N   UNL     1      21.525  49.495  49.559  1.00  0.00    -0.365 N 
HETATM   28  H   UNL     1      22.108  49.926  50.267  1.00  0.00     0.159 HD
HETATM   29  H   UNL     1      20.529  49.405  49.677  1.00  0.00     0.159 HD
HETATM   30  O   UNL     1      21.444  48.571  47.499  1.00  0.00    -0.266 OA
ENDBRANCH   8  26
TORSDOF 4
ENDMDL
MODEL 3
REMARK VINA RESULT:     -10.2      1.868      2.508
REMARK  4 active torsions:
REMARK  status: ('A' for Active; 'I' for Inactive)
REMARK    1  A    between atoms: C_5  and  C_6 
REMARK    2  A    between atoms: C_6  and  C_7 
REMARK       I    between atoms: C_7  and  N_8 
REMARK    3  A    between atoms: N_8  and  C_9 
REMARK    4  A    between atoms: C_16  and  C_17 
REMARK       I    between atoms: C_17  and  N_18 
ROOT
HETATM    1  C   UNL     1      25.536  46.016  51.602  1.00  0.00     0.035 A 
HETATM    2  C   UNL     1      24.951  47.022  50.822  1.00  0.00     0.046 A 
HETATM    3  C   UNL     1      24.004  46.677  49.831  1.00  0.00     0.030 A 
HETATM    4  C   UNL     1      23.690  45.337  49.643  1.00  0.00     0.063 A 
HETATM    5  N   UNL     1      22.770  45.318  48.633  1.00  0.00    -0.277 N 
HETATM    6  H   UNL     1      22.320  44.505  48.228  1.00  0.00     0.189 HD
HETATM    7  N   UNL     1      22.441  46.530  48.157  1.00  0.00    -0.168 NA
HETATM    8  C   UNL     1      23.195  47.381  48.889  1.00  0.00     0.156 A 
HETATM    9  C   UNL     1      24.258  44.307  50.397  1.00  0.00     0.034 A 
HETATM   10  C   UNL     1      25.178  44.678  51.384  1.00  0.00     0.032 A 
ENDROOT
BRANCH   1  11
HETATM   11  N   UNL     1      26.467  46.263  52.633  1.00  0.00    -0.327 N 
HETATM   12  C   UNL     1      26.337  45.965  53.979  1.00  0.00     0.226 C 
HETATM   13  O   UNL     1      25.338  45.515  54.532  1.00  0.00    -0.273 OA
HETATM   14  H   UNL     1      27.340  46.688  52.349  1.00  0.00     0.169 HD
BRANCH  12  15
HETATM   15  C   UNL     1      27.570  46.324  54.799  1.00  0.00     0.142 C 
BRANCH  15  16
HETATM   16  C   UNL     1      28.614  45.226  54.868  1.00  0.00    -0.038 A 
HETATM   17  C   UNL     1      29.504  45.094  55.974  1.00  0.00    -0.019 A 
HETATM   18  C   UNL     1      30.442  44.030  55.969  1.00  0.00    -0.025 A 
HETATM   19  C   UNL     1      29.514  45.966  57.087  1.00  0.00     0.013 A 
HETATM   20  C   UNL     1      31.332  43.870  57.045  1.00  0.00     0.012 A 
HETATM   21  C   UNL     1      30.484  43.139  54.887  1.00  0.00     0.012 A 
HETATM   22  C   UNL     1      31.313  44.746  58.129  1.00  0.00     0.001 A 
HETATM   23  C   UNL     1      30.405  45.794  58.150  1.00  0.00     0.001 A 
HETATM   24  C   UNL     1      29.619  43.283  53.806  1.00  0.00     0.001 A 
HETATM   25  C   UNL     1      28.692  44.319  53.796  1.00  0.00     0.008 A 
ENDBRANCH  15  16
ENDBRANCH  12  15
ENDBRANCH   1  11
BRANCH   8  26
HETATM   26  C   UNL     1      23.115  48.835  48.685  1.00  0.00     0.270 C 
HETATM   27  N   UNL     1      22.486  49.507  49.698  1.00  0.00    -0.365 N 
HETATM   28  H   UNL     1      22.148  48.977  50.493  1.00  0.00     0.159 HD
HETATM   29  H   UNL     1      22.405  50.509  49.656  1.00  0.00     0.159 HD
HETATM   30  O   UNL     1      23.564  49.432  47.713  1.00  0.00    -0.266 OA
ENDBRANCH   8  26
TORSDOF 4
ENDMDL
MODEL 4
REMARK VINA RESULT:      -9.8      2.062      3.143
REMARK  4 active torsions:
REMARK  status: ('A' for Active; 'I' for Inactive)
REMARK    1  A    between atoms: C_5  and  C_6 
REMARK    2  A    between atoms: C_6  and  C_7 
REMARK       I    between atoms: C_7  and  N_8 
REMARK    3  A    between atoms: N_8  and  C_9 
REMARK    4  A    between atoms: C_16  and  C_17 
REMARK       I    between atoms: C_17  and  N_18 
ROOT
HETATM    1  C   UNL     1      24.331  45.228  50.496  1.00  0.00     0.035 A 
HETATM    2  C   UNL     1      24.396  46.582  50.142  1.00  0.00     0.046 A 
HETATM    3  C   UNL     1      23.533  47.085  49.142  1.00  0.00     0.030 A 
HETATM    4  C   UNL     1      22.649  46.212  48.520  1.00  0.00     0.063 A 
HETATM    5  N   UNL     1      21.966  46.974  47.613  1.00  0.00    -0.277 N 
HETATM    6  H   UNL     1      21.241  46.665  46.976  1.00  0.00     0.189 HD
HETATM    7  N   UNL     1      22.313  48.271  47.601  1.00  0.00    -0.168 NA
HETATM    8  C   UNL     1      23.280  48.356  48.543  1.00  0.00     0.156 A 
HETATM    9  C   UNL     1      22.561  44.857  48.842  1.00  0.00     0.034 A 
HETATM   10  C   UNL     1      23.414  44.388  49.849  1.00  0.00     0.032 A 
ENDROOT
BRANCH   1  11
HETATM   11  N   UNL     1      25.129  44.640  51.501  1.00  0.00    -0.327 N 
HETATM   12  C   UNL     1      26.492  44.401  51.465  1.00  0.00     0.226 C 
HETATM   13  O   UNL     1      27.236  44.573  50.505  1.00  0.00    -0.273 OA
HETATM   14  H   UNL     1      24.649  44.385  52.355  1.00  0.00     0.169 HD
BRANCH  12  15
HETATM   15  C   UNL     1      27.033  43.799  52.756  1.00  0.00     0.142 C 
BRANCH  15  16
HETATM   16  C   UNL     1      27.575  44.819  53.740  1.00  0.00    -0.038 A 
HETATM   17  C   UNL     1      28.727  44.564  54.540  1.00  0.00    -0.019 A 
HETATM   18  C   UNL     1      29.178  45.576  55.425  1.00  0.00    -0.025 A 
HETATM   19  C   UNL     1      29.454  43.352  54.512  1.00  0.00     0.013 A 
HETATM   20  C   UNL     1      30.312  45.357  56.227  1.00  0.00     0.012 A 
HETATM   21  C   UNL     1      28.491  46.796  55.503  1.00  0.00     0.012 A 
HETATM   22  C   UNL     1      31.009  44.152  56.171  1.00  0.00     0.001 A 
HETATM   23  C   UNL     1      30.580  43.149  55.314  1.00  0.00     0.001 A 
HETATM   24  C   UNL     1      27.360  47.031  54.725  1.00  0.00     0.001 A 
HETATM   25  C   UNL     1      26.905  46.051  53.852  1.00  0.00     0.008 A 
ENDBRANCH  15  16
ENDBRANCH  12  15
ENDBRANCH   1  11
BRANCH   8  26
HETATM   26  C   UNL     1      23.924  49.640  48.857  1.00  0.00     0.270 C 
HETATM   27  N   UNL     1      25.177  49.779  48.325  1.00  0.00    -0.365 N 
HETATM   28  H   UNL     1      25.551  49.024  47.762  1.00  0.00     0.159 HD
HETATM   29  H   UNL     1      25.686  50.636  48.468  1.00  0.00     0.159 HD
HETATM   30  O   UNL     1      23.417  50.535  49.524  1.00  0.00    -0.266 OA
ENDBRANCH   8  26
TORSDOF 4
ENDMDL
MODEL 5
REMARK VINA RESULT:      -9.4      4.385      5.696
REMARK  4 active torsions:
REMARK  status: ('A' for Active; 'I' for Inactive)
REMARK    1  A    between atoms: C_5  and  C_6 
REMARK    2  A    between atoms: C_6  and  C_7 
REMARK       I    between atoms: C_7  and  N_8 
REMARK    3  A    between atoms: N_8  and  C_9 
REMARK    4  A    between atoms: C_16  and  C_17 
REMARK       I    between atoms: C_17  and  N_18 
ROOT
HETATM    1  C   UNL     1      27.485  41.699  50.696  1.00  0.00     0.035 A 
HETATM    2  C   UNL     1      26.246  42.310  50.460  1.00  0.00     0.046 A 
HETATM    3  C   UNL     1      25.325  41.705  49.576  1.00  0.00     0.030 A 
HETATM    4  C   UNL     1      25.683  40.520  48.945  1.00  0.00     0.063 A 
HETATM    5  N   UNL     1      24.612  40.188  48.163  1.00  0.00    -0.277 N 
HETATM    6  H   UNL     1      24.522  39.382  47.556  1.00  0.00     0.189 HD
HETATM    7  N   UNL     1      23.578  41.042  48.242  1.00  0.00    -0.168 NA
HETATM    8  C   UNL     1      24.004  41.985  49.114  1.00  0.00     0.156 A 
HETATM    9  C   UNL     1      26.910  39.887  49.149  1.00  0.00     0.034 A 
HETATM   10  C   UNL     1      27.797  40.497  50.045  1.00  0.00     0.032 A 
ENDROOT
BRANCH   1  11
HETATM   11  N   UNL     1      28.457  42.210  51.582  1.00  0.00    -0.327 N 
HETATM   12  C   UNL     1      28.599  41.934  52.931  1.00  0.00     0.226 C 
HETATM   13  O   UNL     1      27.837  41.264  53.621  1.00  0.00    -0.273 OA
HETATM   14  H   UNL     1      29.143  42.833  51.175  1.00  0.00     0.169 HD
BRANCH  12  15
HETATM   15  C   UNL     1      29.801  42.623  53.565  1.00  0.00     0.142 C 
BRANCH  15  16
HETATM   16  C   UNL     1      29.449  43.821  54.427  1.00  0.00    -0.038 A 
HETATM   17  C   UNL     1      30.121  44.096  55.654  1.00  0.00    -0.019 A 
HETATM   18  C   UNL     1      29.743  45.246  56.394  1.00  0.00    -0.025 A 
HETATM   19  C   UNL     1      31.149  43.286  56.189  1.00  0.00     0.013 A 
HETATM   20  C   UNL     1      30.386  45.546  57.607  1.00  0.00     0.012 A 
HETATM   21  C   UNL     1      28.723  46.081  55.917  1.00  0.00     0.012 A 
HETATM   22  C   UNL     1      31.400  44.729  58.105  1.00  0.00     0.001 A 
HETATM   23  C   UNL     1      31.781  43.599  57.396  1.00  0.00     0.001 A 
HETATM   24  C   UNL     1      28.065  45.798  54.723  1.00  0.00     0.001 A 
HETATM   25  C   UNL     1      28.424  44.677  53.985  1.00  0.00     0.008 A 
ENDBRANCH  15  16
ENDBRANCH  12  15
ENDBRANCH   1  11
BRANCH   8  26
HETATM   26  C   UNL     1      23.141  43.113  49.494  1.00  0.00     0.270 C 
HETATM   27  N   UNL     1      23.647  43.888  50.502  1.00  0.00    -0.365 N 
HETATM   28  H   UNL     1      24.553  43.647  50.890  1.00  0.00     0.159 HD
HETATM   29  H   UNL     1      23.136  44.697  50.813  1.00  0.00     0.159 HD
HETATM   30  O   UNL     1      22.063  43.377  48.974  1.00  0.00    -0.266 OA
ENDBRANCH   8  26
TORSDOF 4
ENDMDL
MODEL 6
REMARK VINA RESULT:      -9.1      4.340     10.341
REMARK  4 active torsions:
REMARK  status: ('A' for Active; 'I' for Inactive)
REMARK    1  A    between atoms: C_5  and  C_6 
REMARK    2  A    between atoms: C_6  and  C_7 
REMARK       I    between atoms: C_7  and  N_8 
REMARK    3  A    between atoms: N_8  and  C_9 
REMARK    4  A    between atoms: C_16  and  C_17 
REMARK       I    between atoms: C_17  and  N_18 
ROOT
HETATM    1  C   UNL     1      22.362  49.152  49.179  1.00  0.00     0.035 A 
HETATM    2  C   UNL     1      23.465  48.352  49.504  1.00  0.00     0.046 A 
HETATM    3  C   UNL     1      24.755  48.731  49.069  1.00  0.00     0.030 A 
HETATM    4  C   UNL     1      24.893  49.885  48.308  1.00  0.00     0.063 A 
HETATM    5  N   UNL     1      26.229  49.983  48.037  1.00  0.00    -0.277 N 
HETATM    6  H   UNL     1      26.695  50.704  47.499  1.00  0.00     0.189 HD
HETATM    7  N   UNL     1      26.979  49.004  48.570  1.00  0.00    -0.168 NA
HETATM    8  C   UNL     1      26.081  48.223  49.213  1.00  0.00     0.156 A 
HETATM    9  C   UNL     1      23.817  50.702  47.959  1.00  0.00     0.034 A 
HETATM   10  C   UNL     1      22.552  50.315  48.419  1.00  0.00     0.032 A 
ENDROOT
BRANCH   1  11
HETATM   11  N   UNL     1      21.041  48.874  49.591  1.00  0.00    -0.327 N 
HETATM   12  C   UNL     1      20.095  48.106  48.935  1.00  0.00     0.226 C 
HETATM   13  O   UNL     1      20.209  47.605  47.820  1.00  0.00    -0.273 OA
HETATM   14  H   UNL     1      20.764  49.266  50.482  1.00  0.00     0.169 HD
BRANCH  12  15
HETATM   15  C   UNL     1      18.785  47.974  49.703  1.00  0.00     0.142 C 
BRANCH  15  16
HETATM   16  C   UNL     1      17.586  48.579  48.997  1.00  0.00    -0.038 A 
HETATM   17  C   UNL     1      17.282  49.969  49.074  1.00  0.00    -0.019 A 
HETATM   18  C   UNL     1      16.150  50.458  48.372  1.00  0.00    -0.025 A 
HETATM   19  C   UNL     1      18.041  50.903  49.816  1.00  0.00     0.013 A 
HETATM   20  C   UNL     1      15.823  51.824  48.425  1.00  0.00     0.012 A 
HETATM   21  C   UNL     1      15.354  49.576  47.626  1.00  0.00     0.012 A 
HETATM   22  C   UNL     1      16.595  52.719  49.163  1.00  0.00     0.001 A 
HETATM   23  C   UNL     1      17.704  52.259  49.858  1.00  0.00     0.001 A 
HETATM   24  C   UNL     1      15.653  48.218  47.566  1.00  0.00     0.001 A 
HETATM   25  C   UNL     1      16.759  47.722  48.247  1.00  0.00     0.008 A 
ENDBRANCH  15  16
ENDBRANCH  12  15
ENDBRANCH   1  11
BRANCH   8  26
HETATM   26  C   UNL     1      26.509  47.027  49.955  1.00  0.00     0.270 C 
HETATM   27  N   UNL     1      26.222  47.070  51.292  1.00  0.00    -0.365 N 
HETATM   28  H   UNL     1      25.740  47.883  51.659  1.00  0.00     0.159 HD
HETATM   29  H   UNL     1      26.457  46.285  51.877  1.00  0.00     0.159 HD
HETATM   30  O   UNL     1      27.067  46.056  49.458  1.00  0.00    -0.266 OA
ENDBRANCH   8  26
TORSDOF 4
ENDMDL
MODEL 7
REMARK VINA RESULT:      -8.6      4.173     10.567
REMARK  4 active torsions:
REMARK  status: ('A' for Active; 'I' for Inactive)
REMARK    1  A    between atoms: C_5  and  C_6 
REMARK    2  A    between atoms: C_6  and  C_7 
REMARK       I    between atoms: C_7  and  N_8 
REMARK    3  A    between atoms: N_8  and  C_9 
REMARK    4  A    between atoms: C_16  and  C_17 
REMARK       I    between atoms: C_17  and  N_18 
ROOT
HETATM    1  C   UNL     1      22.550  49.372  49.247  1.00  0.00     0.035 A 
HETATM    2  C   UNL     1      23.557  48.488  49.656  1.00  0.00     0.046 A 
HETATM    3  C   UNL     1      24.881  48.678  49.201  1.00  0.00     0.030 A 
HETATM    4  C   UNL     1      25.148  49.733  48.337  1.00  0.00     0.063 A 
HETATM    5  N   UNL     1      26.486  49.656  48.072  1.00  0.00    -0.277 N 
HETATM    6  H   UNL     1      27.029  50.267  47.474  1.00  0.00     0.189 HD
HETATM    7  N   UNL     1      27.122  48.653  48.701  1.00  0.00    -0.168 NA
HETATM    8  C   UNL     1      26.143  48.041  49.405  1.00  0.00     0.156 A 
HETATM    9  C   UNL     1      24.169  50.629  47.903  1.00  0.00     0.034 A 
HETATM   10  C   UNL     1      22.869  50.430  48.384  1.00  0.00     0.032 A 
ENDROOT
BRANCH   1  11
HETATM   11  N   UNL     1      21.207  49.282  49.670  1.00  0.00    -0.327 N 
HETATM   12  C   UNL     1      20.269  48.331  49.308  1.00  0.00     0.226 C 
HETATM   13  O   UNL     1      20.415  47.444  48.472  1.00  0.00    -0.273 OA
HETATM   14  H   UNL     1      20.904  49.984  50.332  1.00  0.00     0.169 HD
BRANCH  12  15
HETATM   15  C   UNL     1      18.926  48.512  50.005  1.00  0.00     0.142 C 
BRANCH  15  16
HETATM   16  C   UNL     1      18.127  49.707  49.519  1.00  0.00    -0.038 A 
HETATM   17  C   UNL     1      17.080  49.581  48.560  1.00  0.00    -0.019 A 
HETATM   18  C   UNL     1      16.372  50.746  48.169  1.00  0.00    -0.025 A 
HETATM   19  C   UNL     1      16.701  48.356  47.963  1.00  0.00     0.013 A 
HETATM   20  C   UNL     1      15.332  50.655  47.227  1.00  0.00     0.012 A 
HETATM   21  C   UNL     1      16.710  51.990  48.721  1.00  0.00     0.012 A 
HETATM   22  C   UNL     1      14.980  49.432  46.661  1.00  0.00     0.001 A 
HETATM   23  C   UNL     1      15.665  48.282  47.028  1.00  0.00     0.001 A 
HETATM   24  C   UNL     1      17.742  52.104  49.649  1.00  0.00     0.001 A 
HETATM   25  C   UNL     1      18.445  50.973  50.044  1.00  0.00     0.008 A 
ENDBRANCH  15  16
ENDBRANCH  12  15
ENDBRANCH   1  11
BRANCH   8  26
HETATM   26  C   UNL     1      26.434  46.880  50.259  1.00  0.00     0.270 C 
HETATM   27  N   UNL     1      26.174  47.086  51.587  1.00  0.00    -0.365 N 
HETATM   28  H   UNL     1      25.799  47.983  51.874  1.00  0.00     0.159 HD
HETATM   29  H   UNL     1      26.321  46.339  52.245  1.00  0.00     0.159 HD
HETATM   30  O   UNL     1      26.864  45.804  49.858  1.00  0.00    -0.266 OA
ENDBRANCH   8  26
TORSDOF 4
ENDMDL
MODEL 8
REMARK VINA RESULT:      -8.6      4.671      6.335
REMARK  4 active torsions:
REMARK  status: ('A' for Active; 'I' for Inactive)
REMARK    1  A    between atoms: C_5  and  C_6 
REMARK    2  A    between atoms: C_6  and  C_7 
REMARK       I    between atoms: C_7  and  N_8 
REMARK    3  A    between atoms: N_8  and  C_9 
REMARK    4  A    between atoms: C_16  and  C_17 
REMARK       I    between atoms: C_17  and  N_18 
ROOT
HETATM    1  C   UNL     1      26.925  40.499  50.667  1.00  0.00     0.035 A 
HETATM    2  C   UNL     1      25.876  41.050  49.919  1.00  0.00     0.046 A 
HETATM    3  C   UNL     1      25.680  40.639  48.582  1.00  0.00     0.030 A 
HETATM    4  C   UNL     1      26.552  39.706  48.033  1.00  0.00     0.063 A 
HETATM    5  N   UNL     1      26.121  39.517  46.751  1.00  0.00    -0.277 N 
HETATM    6  H   UNL     1      26.524  38.904  46.052  1.00  0.00     0.189 HD
HETATM    7  N   UNL     1      25.033  40.231  46.417  1.00  0.00    -0.168 NA
HETATM    8  C   UNL     1      24.747  40.928  47.540  1.00  0.00     0.156 A 
HETATM    9  C   UNL     1      27.611  39.141  48.746  1.00  0.00     0.034 A 
HETATM   10  C   UNL     1      27.771  39.551  50.075  1.00  0.00     0.032 A 
ENDROOT
BRANCH   1  11
HETATM   11  N   UNL     1      27.182  40.823  52.016  1.00  0.00    -0.327 N 
HETATM   12  C   UNL     1      27.959  41.860  52.503  1.00  0.00     0.226 C 
HETATM   13  O   UNL     1      28.646  42.630  51.837  1.00  0.00    -0.273 OA
HETATM   14  H   UNL     1      26.725  40.242  52.707  1.00  0.00     0.169 HD
BRANCH  12  15
HETATM   15  C   UNL     1      27.970  41.946  54.024  1.00  0.00     0.142 C 
BRANCH  15  16
HETATM   16  C   UNL     1      28.715  43.146  54.575  1.00  0.00    -0.038 A 
HETATM   17  C   UNL     1      28.117  44.437  54.660  1.00  0.00    -0.019 A 
HETATM   18  C   UNL     1      28.877  45.505  55.203  1.00  0.00    -0.025 A 
HETATM   19  C   UNL     1      26.802  44.727  54.229  1.00  0.00     0.013 A 
HETATM   20  C   UNL     1      28.317  46.790  55.302  1.00  0.00     0.012 A 
HETATM   21  C   UNL     1      30.191  45.279  55.638  1.00  0.00     0.012 A 
HETATM   22  C   UNL     1      27.015  47.041  54.872  1.00  0.00     0.001 A 
HETATM   23  C   UNL     1      26.258  46.010  54.336  1.00  0.00     0.001 A 
HETATM   24  C   UNL     1      30.770  44.017  55.541  1.00  0.00     0.001 A 
HETATM   25  C   UNL     1      30.040  42.959  55.013  1.00  0.00     0.008 A 
ENDBRANCH  15  16
ENDBRANCH  12  15
ENDBRANCH   1  11
BRANCH   8  26
HETATM   26  C   UNL     1      23.592  41.837  47.597  1.00  0.00     0.270 C 
HETATM   27  N   UNL     1      23.817  43.060  47.027  1.00  0.00    -0.365 N 
HETATM   28  H   UNL     1      24.722  43.241  46.609  1.00  0.00     0.159 HD
HETATM   29  H   UNL     1      23.075  43.740  46.998  1.00  0.00     0.159 HD
HETATM   30  O   UNL     1      22.506  41.560  48.094  1.00  0.00    -0.266 OA
ENDBRANCH   8  26
TORSDOF 4
ENDMDL
MODEL 9
REMARK VINA RESULT:      -8.4      3.576      4.212
REMARK  4 active torsions:
REMARK  status: ('A' for Active; 'I' for Inactive)
REMARK    1  A    between atoms: C_5  and  C_6 
REMARK    2  A    between atoms: C_6  and  C_7 
REMARK       I    between atoms: C_7  and  N_8 
REMARK    3  A    between atoms: N_8  and  C_9 
REMARK    4  A    between atoms: C_16  and  C_17 
REMARK       I    between atoms: C_17  and  N_18 
ROOT
HETATM    1  C   UNL     1      24.945  42.967  50.543  1.00  0.00     0.035 A 
HETATM    2  C   UNL     1      24.097  43.759  49.758  1.00  0.00     0.046 A 
HETATM    3  C   UNL     1      23.570  43.238  48.555  1.00  0.00     0.030 A 
HETATM    4  C   UNL     1      23.924  41.951  48.171  1.00  0.00     0.063 A 
HETATM    5  N   UNL     1      23.276  41.734  46.987  1.00  0.00    -0.277 N 
HETATM    6  H   UNL     1      23.306  40.898  46.415  1.00  0.00     0.189 HD
HETATM    7  N   UNL     1      22.514  42.760  46.573  1.00  0.00    -0.168 NA
HETATM    8  C   UNL     1      22.684  43.697  47.534  1.00  0.00     0.156 A 
HETATM    9  C   UNL     1      24.771  41.136  48.923  1.00  0.00     0.034 A 
HETATM   10  C   UNL     1      25.265  41.669  50.120  1.00  0.00     0.032 A 
ENDROOT
BRANCH   1  11
HETATM   11  N   UNL     1      25.497  43.387  51.772  1.00  0.00    -0.327 N 
HETATM   12  C   UNL     1      26.344  44.458  51.996  1.00  0.00     0.226 C 
HETATM   13  O   UNL     1      26.845  45.181  51.140  1.00  0.00    -0.273 OA
HETATM   14  H   UNL     1      25.222  42.853  52.587  1.00  0.00     0.169 HD
BRANCH  12  15
HETATM   15  C   UNL     1      26.700  44.651  53.465  1.00  0.00     0.142 C 
BRANCH  15  16
HETATM   16  C   UNL     1      28.077  44.139  53.845  1.00  0.00    -0.038 A 
HETATM   17  C   UNL     1      28.782  44.632  54.982  1.00  0.00    -0.019 A 
HETATM   18  C   UNL     1      30.059  44.090  55.277  1.00  0.00    -0.025 A 
HETATM   19  C   UNL     1      28.287  45.640  55.841  1.00  0.00     0.013 A 
HETATM   20  C   UNL     1      30.780  44.553  56.392  1.00  0.00     0.012 A 
HETATM   21  C   UNL     1      30.605  43.094  54.455  1.00  0.00     0.012 A 
HETATM   22  C   UNL     1      30.261  45.545  57.222  1.00  0.00     0.001 A 
HETATM   23  C   UNL     1      29.015  46.089  56.946  1.00  0.00     0.001 A 
HETATM   24  C   UNL     1      29.913  42.627  53.341  1.00  0.00     0.001 A 
HETATM   25  C   UNL     1      28.660  43.146  53.037  1.00  0.00     0.008 A 
ENDBRANCH  15  16
ENDBRANCH  12  15
ENDBRANCH   1  11
BRANCH   8  26
HETATM   26  C   UNL     1      21.992  44.993  47.463  1.00  0.00     0.270 C 
HETATM   27  N   UNL     1      20.902  45.088  48.284  1.00  0.00    -0.365 N 
HETATM   28  H   UNL     1      20.667  44.296  48.872  1.00  0.00     0.159 HD
HETATM   29  H   UNL     1      20.378  45.947  48.320  1.00  0.00     0.159 HD
HETATM   30  O   UNL     1      22.332  45.931  46.751  1.00  0.00    -0.266 OA
ENDBRANCH   8  26
TORSDOF 4
ENDMDL
MODEL 10
REMARK VINA RESULT:      -8.3      3.389      6.200
REMARK  4 active torsions:
REMARK  status: ('A' for Active; 'I' for Inactive)
REMARK    1  A    between atoms: C_5  and  C_6 
REMARK    2  A    between atoms: C_6  and  C_7 
REMARK       I    between atoms: C_7  and  N_8 
REMARK    3  A    between atoms: N_8  and  C_9 
REMARK    4  A    between atoms: C_16  and  C_17 
REMARK       I    between atoms: C_17  and  N_18 
ROOT
HETATM    1  C   UNL     1      20.981  49.828  49.287  1.00  0.00     0.035 A 
HETATM    2  C   UNL     1      19.781  49.116  49.151  1.00  0.00     0.046 A 
HETATM    3  C   UNL     1      18.600  49.801  48.788  1.00  0.00     0.030 A 
HETATM    4  C   UNL     1      18.656  51.175  48.593  1.00  0.00     0.063 A 
HETATM    5  N   UNL     1      17.382  51.547  48.265  1.00  0.00    -0.277 N 
HETATM    6  H   UNL     1      17.050  52.481  48.057  1.00  0.00     0.189 HD
HETATM    7  N   UNL     1      16.502  50.533  48.210  1.00  0.00    -0.168 NA
HETATM    8  C   UNL     1      17.242  49.446  48.530  1.00  0.00     0.156 A 
HETATM    9  C   UNL     1      19.830  51.918  48.727  1.00  0.00     0.034 A 
HETATM   10  C   UNL     1      20.991  51.213  49.068  1.00  0.00     0.032 A 
ENDROOT
BRANCH   1  11
HETATM   11  N   UNL     1      22.216  49.230  49.617  1.00  0.00    -0.327 N 
HETATM   12  C   UNL     1      23.270  48.944  48.766  1.00  0.00     0.226 C 
HETATM   13  O   UNL     1      23.277  49.074  47.546  1.00  0.00    -0.273 OA
HETATM   14  H   UNL     1      22.353  49.006  50.594  1.00  0.00     0.169 HD
BRANCH  12  15
HETATM   15  C   UNL     1      24.476  48.346  49.479  1.00  0.00     0.142 C 
BRANCH  15  16
HETATM   16  C   UNL     1      24.288  46.908  49.924  1.00  0.00    -0.038 A 
HETATM   17  C   UNL     1      24.853  46.408  51.133  1.00  0.00    -0.019 A 
HETATM   18  C   UNL     1      24.617  45.054  51.485  1.00  0.00    -0.025 A 
HETATM   19  C   UNL     1      25.645  47.181  52.012  1.00  0.00     0.013 A 
HETATM   20  C   UNL     1      25.158  44.530  52.672  1.00  0.00     0.012 A 
HETATM   21  C   UNL     1      23.846  44.236  50.646  1.00  0.00     0.012 A 
HETATM   22  C   UNL     1      25.932  45.320  53.519  1.00  0.00     0.001 A 
HETATM   23  C   UNL     1      26.175  46.646  53.189  1.00  0.00     0.001 A 
HETATM   24  C   UNL     1      23.307  44.731  49.462  1.00  0.00     0.001 A 
HETATM   25  C   UNL     1      23.527  46.056  49.102  1.00  0.00     0.008 A 
ENDBRANCH  15  16
ENDBRANCH  12  15
ENDBRANCH   1  11
BRANCH   8  26
HETATM   26  C   UNL     1      16.642  48.104  48.566  1.00  0.00     0.270 C 
HETATM   27  N   UNL     1      17.285  47.229  49.398  1.00  0.00    -0.365 N 
HETATM   28  H   UNL     1      18.088  47.559  49.922  1.00  0.00     0.159 HD
HETATM   29  H   UNL     1      16.932  46.293  49.506  1.00  0.00     0.159 HD
HETATM   30  O   UNL     1      15.651  47.761  47.931  1.00  0.00    -0.266 OA
ENDBRANCH   8  26
TORSDOF 4
ENDMDL
