MODEL 1
REMARK VINA RESULT:      -9.7      0.000      0.000
REMARK  4 active torsions:
REMARK  status: ('A' for Active; 'I' for Inactive)
REMARK    1  A    between atoms: O_2  and  C_3 
REMARK    2  A    between atoms: C_4  and  C_5 
REMARK    3  A    between atoms: C_9  and  C_10 
REMARK       I    between atoms: C_10  and  N_11 
REMARK    4  A    between atoms: N_11  and  N_12 
ROOT
HETATM    1  C   UNL     1      26.510  45.335  50.809  1.00  0.00     0.289 C 
HETATM    2  N   UNL     1      26.491  45.240  52.191  1.00  0.00    -0.241 N 
HETATM    3  O   UNL     1      27.374  44.829  50.097  1.00  0.00    -0.264 OA
HETATM    4  H   UNL     1      25.737  45.663  52.732  1.00  0.00     0.192 HD
ENDROOT
BRANCH   1   5
HETATM    5  C   UNL     1      25.410  46.068  50.235  1.00  0.00     0.121 A 
HETATM    6  N   UNL     1      24.416  45.423  49.550  1.00  0.00    -0.272 N 
HETATM    7  N   UNL     1      23.433  46.225  49.117  1.00  0.00    -0.174 NA
HETATM    8  H   UNL     1      24.354  44.425  49.373  1.00  0.00     0.189 HD
HETATM    9  C   UNL     1      23.824  47.457  49.476  1.00  0.00     0.092 A 
HETATM   10  C   UNL     1      25.056  47.401  50.191  1.00  0.00     0.071 A 
BRANCH   9  11
HETATM   11  C   UNL     1      23.014  48.642  49.200  1.00  0.00     0.028 A 
HETATM   12  C   UNL     1      23.582  49.897  48.923  1.00  0.00     0.080 A 
HETATM   13  C   UNL     1      22.765  51.005  48.667  1.00  0.00     0.037 A 
HETATM   14  C   UNL     1      21.378  50.866  48.655  1.00  0.00     0.003 A 
HETATM   15  C   UNL     1      20.802  49.625  48.917  1.00  0.00     0.001 A 
HETATM   16  C   UNL     1      21.614  48.521  49.192  1.00  0.00     0.017 A 
BRANCH  12  17
HETATM   17  O   UNL     1      24.940  50.080  49.002  1.00  0.00    -0.355 OA
HETATM   18  C   UNL     1      25.521  50.135  47.699  1.00  0.00     0.210 C 
ENDBRANCH  12  17
ENDBRANCH   9  11
ENDBRANCH   1   5
BRANCH   2  19
HETATM   19  N   UNL     1      27.457  44.523  52.848  1.00  0.00    -0.165 NA
HETATM   20  C   UNL     1      28.015  45.096  53.865  1.00  0.00     0.157 A 
HETATM   21  C   UNL     1      27.740  46.485  54.448  1.00  0.00     0.277 A 
HETATM   22  C   UNL     1      29.053  44.510  54.706  1.00  0.00     0.027 A 
HETATM   23  O   UNL     1      26.925  47.268  54.009  1.00  0.00    -0.266 OA
HETATM   24  N   UNL     1      28.588  46.609  55.527  1.00  0.00    -0.321 N 
HETATM   25  C   UNL     1      29.357  45.456  55.682  1.00  0.00     0.048 A 
HETATM   26  H   UNL     1      28.628  47.429  56.113  1.00  0.00     0.169 HD
HETATM   27  C   UNL     1      30.307  45.206  56.650  1.00  0.00     0.030 A 
HETATM   28  C   UNL     1      30.952  43.962  56.608  1.00  0.00     0.002 A 
HETATM   29  C   UNL     1      30.639  43.010  55.616  1.00  0.00     0.001 A 
HETATM   30  C   UNL     1      29.673  43.279  54.644  1.00  0.00     0.016 A 
ENDBRANCH   2  19
TORSDOF 4
ENDMDL
MODEL 2
REMARK VINA RESULT:      -9.6      1.938      9.033
REMARK  4 active torsions:
REMARK  status: ('A' for Active; 'I' for Inactive)
REMARK    1  A    between atoms: O_2  and  C_3 
REMARK    2  A    between atoms: C_4  and  C_5 
REMARK    3  A    between atoms: C_9  and  C_10 
REMARK       I    between atoms: C_10  and  N_11 
REMARK    4  A    between atoms: N_11  and  N_12 
ROOT
HETATM    1  C   UNL     1      25.290  44.279  51.372  1.00  0.00     0.289 C 
HETATM    2  N   UNL     1      25.344  45.045  50.219  1.00  0.00    -0.241 N 
HETATM    3  O   UNL     1      24.274  43.719  51.778  1.00  0.00    -0.264 OA
HETATM    4  H   UNL     1      26.220  45.470  49.918  1.00  0.00     0.192 HD
ENDROOT
BRANCH   1   5
HETATM    5  C   UNL     1      26.539  44.154  52.079  1.00  0.00     0.121 A 
HETATM    6  N   UNL     1      27.668  43.715  51.441  1.00  0.00    -0.272 N 
HETATM    7  N   UNL     1      28.766  43.698  52.209  1.00  0.00    -0.174 NA
HETATM    8  H   UNL     1      27.742  43.437  50.467  1.00  0.00     0.189 HD
HETATM    9  C   UNL     1      28.333  44.081  53.420  1.00  0.00     0.092 A 
HETATM   10  C   UNL     1      26.942  44.388  53.378  1.00  0.00     0.071 A 
BRANCH   9  11
HETATM   11  C   UNL     1      29.234  44.210  54.564  1.00  0.00     0.028 A 
HETATM   12  C   UNL     1      29.360  45.403  55.295  1.00  0.00     0.080 A 
HETATM   13  C   UNL     1      30.239  45.481  56.382  1.00  0.00     0.037 A 
HETATM   14  C   UNL     1      30.976  44.362  56.768  1.00  0.00     0.003 A 
HETATM   15  C   UNL     1      30.853  43.170  56.059  1.00  0.00     0.001 A 
HETATM   16  C   UNL     1      29.991  43.095  54.962  1.00  0.00     0.017 A 
BRANCH  12  17
HETATM   17  O   UNL     1      28.703  46.539  54.891  1.00  0.00    -0.355 OA
HETATM   18  C   UNL     1      27.802  46.991  55.903  1.00  0.00     0.210 C 
ENDBRANCH  12  17
ENDBRANCH   9  11
ENDBRANCH   1   5
BRANCH   2  19
HETATM   19  N   UNL     1      24.231  45.194  49.435  1.00  0.00    -0.165 NA
HETATM   20  C   UNL     1      23.712  46.378  49.379  1.00  0.00     0.157 A 
HETATM   21  C   UNL     1      24.179  47.658  50.078  1.00  0.00     0.277 A 
HETATM   22  C   UNL     1      22.537  46.755  48.601  1.00  0.00     0.027 A 
HETATM   23  O   UNL     1      25.142  47.732  50.813  1.00  0.00    -0.266 OA
HETATM   24  N   UNL     1      23.295  48.640  49.685  1.00  0.00    -0.321 N 
HETATM   25  C   UNL     1      22.335  48.117  48.820  1.00  0.00     0.048 A 
HETATM   26  H   UNL     1      23.356  49.600  49.989  1.00  0.00     0.169 HD
HETATM   27  C   UNL     1      21.295  48.791  48.215  1.00  0.00     0.030 A 
HETATM   28  C   UNL     1      20.453  48.050  47.374  1.00  0.00     0.002 A 
HETATM   29  C   UNL     1      20.665  46.673  47.159  1.00  0.00     0.001 A 
HETATM   30  C   UNL     1      21.724  46.005  47.778  1.00  0.00     0.016 A 
ENDBRANCH   2  19
TORSDOF 4
ENDMDL
MODEL 3
REMARK VINA RESULT:      -9.5      1.767      2.732
REMARK  4 active torsions:
REMARK  status: ('A' for Active; 'I' for Inactive)
REMARK    1  A    between atoms: O_2  and  C_3 
REMARK    2  A    between atoms: C_4  and  C_5 
REMARK    3  A    between atoms: C_9  and  C_10 
REMARK       I    between atoms: C_10  and  N_11 
REMARK    4  A    between atoms: N_11  and  N_12 
ROOT
HETATM    1  C   UNL     1      24.988  46.085  50.011  1.00  0.00     0.289 C 
HETATM    2  N   UNL     1      25.046  45.814  51.368  1.00  0.00    -0.241 N 
HETATM    3  O   UNL     1      25.837  45.722  49.200  1.00  0.00    -0.264 OA
HETATM    4  H   UNL     1      24.302  46.122  51.993  1.00  0.00     0.192 HD
ENDROOT
BRANCH   1   5
HETATM    5  C   UNL     1      23.824  46.821  49.587  1.00  0.00     0.121 A 
HETATM    6  N   UNL     1      22.819  46.209  48.889  1.00  0.00    -0.272 N 
HETATM    7  N   UNL     1      21.777  47.004  48.607  1.00  0.00    -0.174 NA
HETATM    8  H   UNL     1      22.789  45.236  48.601  1.00  0.00     0.189 HD
HETATM    9  C   UNL     1      22.136  48.206  49.084  1.00  0.00     0.092 A 
HETATM   10  C   UNL     1      23.410  48.132  49.719  1.00  0.00     0.071 A 
BRANCH   9  11
HETATM   11  C   UNL     1      21.259  49.372  48.993  1.00  0.00     0.028 A 
HETATM   12  C   UNL     1      19.969  49.393  49.547  1.00  0.00     0.080 A 
HETATM   13  C   UNL     1      19.164  50.532  49.432  1.00  0.00     0.037 A 
HETATM   14  C   UNL     1      19.649  51.671  48.790  1.00  0.00     0.003 A 
HETATM   15  C   UNL     1      20.931  51.668  48.245  1.00  0.00     0.001 A 
HETATM   16  C   UNL     1      21.729  50.526  48.342  1.00  0.00     0.017 A 
BRANCH  12  17
HETATM   17  O   UNL     1      19.438  48.262  50.118  1.00  0.00    -0.355 OA
HETATM   18  C   UNL     1      18.575  48.600  51.204  1.00  0.00     0.210 C 
ENDBRANCH  12  17
ENDBRANCH   9  11
ENDBRANCH   1   5
BRANCH   2  19
HETATM   19  N   UNL     1      26.080  45.075  51.882  1.00  0.00    -0.165 NA
HETATM   20  C   UNL     1      26.667  45.548  52.933  1.00  0.00     0.157 A 
HETATM   21  C   UNL     1      26.361  46.840  53.698  1.00  0.00     0.277 A 
HETATM   22  C   UNL     1      27.777  44.921  53.641  1.00  0.00     0.027 A 
HETATM   23  O   UNL     1      25.486  47.626  53.401  1.00  0.00    -0.266 OA
HETATM   24  N   UNL     1      27.262  46.877  54.740  1.00  0.00    -0.321 N 
HETATM   25  C   UNL     1      28.090  45.756  54.712  1.00  0.00     0.048 A 
HETATM   26  H   UNL     1      27.296  47.620  55.421  1.00  0.00     0.169 HD
HETATM   27  C   UNL     1      29.104  45.441  55.592  1.00  0.00     0.030 A 
HETATM   28  C   UNL     1      29.803  44.248  55.364  1.00  0.00     0.002 A 
HETATM   29  C   UNL     1      29.480  43.408  54.278  1.00  0.00     0.001 A 
HETATM   30  C   UNL     1      28.450  43.741  53.396  1.00  0.00     0.016 A 
ENDBRANCH   2  19
TORSDOF 4
ENDMDL
MODEL 4
REMARK VINA RESULT:      -9.5      1.164      1.938
REMARK  4 active torsions:
REMARK  status: ('A' for Active; 'I' for Inactive)
REMARK    1  A    between atoms: O_2  and  C_3 
REMARK    2  A    between atoms: C_4  and  C_5 
REMARK    3  A    between atoms: C_9  and  C_10 
REMARK       I    between atoms: C_10  and  N_11 
REMARK    4  A    between atoms: N_11  and  N_12 
ROOT
HETATM    1  C   UNL     1      26.234  45.521  50.483  1.00  0.00     0.289 C 
HETATM    2  N   UNL     1      26.196  45.340  51.857  1.00  0.00    -0.241 N 
HETATM    3  O   UNL     1      27.127  45.089  49.758  1.00  0.00    -0.264 OA
HETATM    4  H   UNL     1      25.419  45.703  52.408  1.00  0.00     0.192 HD
ENDROOT
BRANCH   1   5
HETATM    5  C   UNL     1      25.118  46.248  49.935  1.00  0.00     0.121 A 
HETATM    6  N   UNL     1      24.140  45.607  49.224  1.00  0.00    -0.272 N 
HETATM    7  N   UNL     1      23.139  46.401  48.818  1.00  0.00    -0.174 NA
HETATM    8  H   UNL     1      24.102  44.616  49.009  1.00  0.00     0.189 HD
HETATM    9  C   UNL     1      23.501  47.628  49.225  1.00  0.00     0.092 A 
HETATM   10  C   UNL     1      24.732  47.574  49.941  1.00  0.00     0.071 A 
BRANCH   9  11
HETATM   11  C   UNL     1      22.664  48.803  48.991  1.00  0.00     0.028 A 
HETATM   12  C   UNL     1      21.263  48.729  48.913  1.00  0.00     0.080 A 
HETATM   13  C   UNL     1      20.502  49.882  48.685  1.00  0.00     0.037 A 
HETATM   14  C   UNL     1      21.128  51.122  48.563  1.00  0.00     0.003 A 
HETATM   15  C   UNL     1      22.516  51.211  48.650  1.00  0.00     0.001 A 
HETATM   16  C   UNL     1      23.279  50.060  48.858  1.00  0.00     0.017 A 
BRANCH  12  17
HETATM   17  O   UNL     1      20.627  47.513  48.954  1.00  0.00    -0.355 OA
HETATM   18  C   UNL     1      19.262  47.668  49.344  1.00  0.00     0.210 C 
ENDBRANCH  12  17
ENDBRANCH   9  11
ENDBRANCH   1   5
BRANCH   2  19
HETATM   19  N   UNL     1      27.176  44.619  52.487  1.00  0.00    -0.165 NA
HETATM   20  C   UNL     1      27.732  45.170  53.518  1.00  0.00     0.157 A 
HETATM   21  C   UNL     1      27.441  46.537  54.143  1.00  0.00     0.277 A 
HETATM   22  C   UNL     1      28.783  44.574  54.334  1.00  0.00     0.027 A 
HETATM   23  O   UNL     1      26.611  47.321  53.732  1.00  0.00    -0.266 OA
HETATM   24  N   UNL     1      28.293  46.642  55.220  1.00  0.00    -0.321 N 
HETATM   25  C   UNL     1      29.079  45.496  55.337  1.00  0.00     0.048 A 
HETATM   26  H   UNL     1      28.325  47.445  55.830  1.00  0.00     0.169 HD
HETATM   27  C   UNL     1      30.039  45.231  56.291  1.00  0.00     0.030 A 
HETATM   28  C   UNL     1      30.702  43.999  56.209  1.00  0.00     0.002 A 
HETATM   29  C   UNL     1      30.397  43.072  55.191  1.00  0.00     0.001 A 
HETATM   30  C   UNL     1      29.421  43.355  54.233  1.00  0.00     0.016 A 
ENDBRANCH   2  19
TORSDOF 4
ENDMDL
MODEL 5
REMARK VINA RESULT:      -9.4      1.705      9.282
REMARK  4 active torsions:
REMARK  status: ('A' for Active; 'I' for Inactive)
REMARK    1  A    between atoms: O_2  and  C_3 
REMARK    2  A    between atoms: C_4  and  C_5 
REMARK    3  A    between atoms: C_9  and  C_10 
REMARK       I    between atoms: C_10  and  N_11 
REMARK    4  A    between atoms: N_11  and  N_12 
ROOT
HETATM    1  C   UNL     1      25.758  46.603  52.582  1.00  0.00     0.289 C 
HETATM    2  N   UNL     1      25.382  46.245  51.297  1.00  0.00    -0.241 N 
HETATM    3  O   UNL     1      25.235  47.511  53.224  1.00  0.00    -0.264 OA
HETATM    4  H   UNL     1      25.837  45.469  50.819  1.00  0.00     0.192 HD
ENDROOT
BRANCH   1   5
HETATM    5  C   UNL     1      26.818  45.807  53.149  1.00  0.00     0.121 A 
HETATM    6  N   UNL     1      27.279  44.689  52.509  1.00  0.00    -0.272 N 
HETATM    7  N   UNL     1      28.299  44.079  53.127  1.00  0.00    -0.174 NA
HETATM    8  H   UNL     1      26.940  44.315  51.628  1.00  0.00     0.189 HD
HETATM    9  C   UNL     1      28.479  44.787  54.253  1.00  0.00     0.092 A 
HETATM   10  C   UNL     1      27.576  45.889  54.300  1.00  0.00     0.071 A 
BRANCH   9  11
HETATM   11  C   UNL     1      29.523  44.457  55.221  1.00  0.00     0.028 A 
HETATM   12  C   UNL     1      29.714  45.189  56.405  1.00  0.00     0.080 A 
HETATM   13  C   UNL     1      30.731  44.838  57.301  1.00  0.00     0.037 A 
HETATM   14  C   UNL     1      31.545  43.736  57.041  1.00  0.00     0.003 A 
HETATM   15  C   UNL     1      31.359  42.995  55.877  1.00  0.00     0.001 A 
HETATM   16  C   UNL     1      30.358  43.355  54.971  1.00  0.00     0.017 A 
BRANCH  12  17
HETATM   17  O   UNL     1      28.978  46.322  56.649  1.00  0.00    -0.355 OA
HETATM   18  C   UNL     1      28.604  46.396  58.025  1.00  0.00     0.210 C 
ENDBRANCH  12  17
ENDBRANCH   9  11
ENDBRANCH   1   5
BRANCH   2  19
HETATM   19  N   UNL     1      24.350  46.895  50.673  1.00  0.00    -0.165 NA
HETATM   20  C   UNL     1      24.668  47.879  49.894  1.00  0.00     0.157 A 
HETATM   21  C   UNL     1      26.061  48.425  49.566  1.00  0.00     0.277 A 
HETATM   22  C   UNL     1      23.731  48.694  49.130  1.00  0.00     0.027 A 
HETATM   23  O   UNL     1      27.098  47.986  50.018  1.00  0.00    -0.266 OA
HETATM   24  N   UNL     1      25.855  49.464  48.685  1.00  0.00    -0.321 N 
HETATM   25  C   UNL     1      24.494  49.624  48.426  1.00  0.00     0.048 A 
HETATM   26  H   UNL     1      26.600  50.016  48.290  1.00  0.00     0.169 HD
HETATM   27  C   UNL     1      23.902  50.550  47.593  1.00  0.00     0.030 A 
HETATM   28  C   UNL     1      22.505  50.516  47.486  1.00  0.00     0.002 A 
HETATM   29  C   UNL     1      21.740  49.573  48.203  1.00  0.00     0.001 A 
HETATM   30  C   UNL     1      22.355  48.641  49.042  1.00  0.00     0.016 A 
ENDBRANCH   2  19
TORSDOF 4
ENDMDL
MODEL 6
REMARK VINA RESULT:      -9.4      2.167      3.202
REMARK  4 active torsions:
REMARK  status: ('A' for Active; 'I' for Inactive)
REMARK    1  A    between atoms: O_2  and  C_3 
REMARK    2  A    between atoms: C_4  and  C_5 
REMARK    3  A    between atoms: C_9  and  C_10 
REMARK       I    between atoms: C_10  and  N_11 
REMARK    4  A    between atoms: N_11  and  N_12 
ROOT
HETATM    1  C   UNL     1      25.695  47.660  49.471  1.00  0.00     0.289 C 
HETATM    2  N   UNL     1      25.260  46.619  50.276  1.00  0.00    -0.241 N 
HETATM    3  O   UNL     1      26.871  47.850  49.169  1.00  0.00    -0.264 OA
HETATM    4  H   UNL     1      24.269  46.496  50.478  1.00  0.00     0.192 HD
ENDROOT
BRANCH   1   5
HETATM    5  C   UNL     1      24.652  48.521  48.975  1.00  0.00     0.121 A 
HETATM    6  N   UNL     1      24.923  49.499  48.057  1.00  0.00    -0.272 N 
HETATM    7  N   UNL     1      23.849  50.189  47.649  1.00  0.00    -0.174 NA
HETATM    8  H   UNL     1      25.831  49.719  47.659  1.00  0.00     0.189 HD
HETATM    9  C   UNL     1      22.836  49.687  48.372  1.00  0.00     0.092 A 
HETATM   10  C   UNL     1      23.296  48.629  49.209  1.00  0.00     0.071 A 
BRANCH   9  11
HETATM   11  C   UNL     1      21.462  50.161  48.220  1.00  0.00     0.028 A 
HETATM   12  C   UNL     1      20.454  49.380  47.630  1.00  0.00     0.080 A 
HETATM   13  C   UNL     1      19.152  49.878  47.503  1.00  0.00     0.037 A 
HETATM   14  C   UNL     1      18.836  51.146  47.990  1.00  0.00     0.003 A 
HETATM   15  C   UNL     1      19.823  51.926  48.586  1.00  0.00     0.001 A 
HETATM   16  C   UNL     1      21.127  51.440  48.697  1.00  0.00     0.017 A 
BRANCH  12  17
HETATM   17  O   UNL     1      20.754  48.160  47.076  1.00  0.00    -0.355 OA
HETATM   18  C   UNL     1      20.118  47.105  47.798  1.00  0.00     0.210 C 
ENDBRANCH  12  17
ENDBRANCH   9  11
ENDBRANCH   1   5
BRANCH   2  19
HETATM   19  N   UNL     1      26.155  45.703  50.765  1.00  0.00    -0.165 NA
HETATM   20  C   UNL     1      26.466  45.805  52.017  1.00  0.00     0.157 A 
HETATM   21  C   UNL     1      25.964  46.822  53.045  1.00  0.00     0.277 A 
HETATM   22  C   UNL     1      27.386  44.932  52.737  1.00  0.00     0.027 A 
HETATM   23  O   UNL     1      25.172  47.710  52.808  1.00  0.00    -0.266 OA
HETATM   24  N   UNL     1      26.590  46.494  54.228  1.00  0.00    -0.321 N 
HETATM   25  C   UNL     1      27.421  45.389  54.053  1.00  0.00     0.048 A 
HETATM   26  H   UNL     1      26.449  46.996  55.092  1.00  0.00     0.169 HD
HETATM   27  C   UNL     1      28.202  44.767  55.005  1.00  0.00     0.030 A 
HETATM   28  C   UNL     1      28.956  43.660  54.593  1.00  0.00     0.002 A 
HETATM   29  C   UNL     1      28.915  43.204  53.258  1.00  0.00     0.001 A 
HETATM   30  C   UNL     1      28.118  43.845  52.306  1.00  0.00     0.016 A 
ENDBRANCH   2  19
TORSDOF 4
ENDMDL
MODEL 7
REMARK VINA RESULT:      -9.3      1.641      2.152
REMARK  4 active torsions:
REMARK  status: ('A' for Active; 'I' for Inactive)
REMARK    1  A    between atoms: O_2  and  C_3 
REMARK    2  A    between atoms: C_4  and  C_5 
REMARK    3  A    between atoms: C_9  and  C_10 
REMARK       I    between atoms: C_10  and  N_11 
REMARK    4  A    between atoms: N_11  and  N_12 
ROOT
HETATM    1  C   UNL     1      27.020  43.643  52.227  1.00  0.00     0.289 C 
HETATM    2  N   UNL     1      27.697  44.512  53.068  1.00  0.00    -0.241 N 
HETATM    3  O   UNL     1      27.299  42.453  52.098  1.00  0.00    -0.264 OA
HETATM    4  H   UNL     1      27.409  45.486  53.152  1.00  0.00     0.192 HD
ENDROOT
BRANCH   1   5
HETATM    5  C   UNL     1      25.918  44.230  51.507  1.00  0.00     0.121 A 
HETATM    6  N   UNL     1      24.679  43.650  51.518  1.00  0.00    -0.272 N 
HETATM    7  N   UNL     1      23.741  44.333  50.847  1.00  0.00    -0.174 NA
HETATM    8  H   UNL     1      24.419  42.792  51.995  1.00  0.00     0.189 HD
HETATM    9  C   UNL     1      24.402  45.375  50.319  1.00  0.00     0.092 A 
HETATM   10  C   UNL     1      25.769  45.354  50.719  1.00  0.00     0.071 A 
BRANCH   9  11
HETATM   11  C   UNL     1      23.731  46.391  49.511  1.00  0.00     0.028 A 
HETATM   12  C   UNL     1      24.192  47.716  49.429  1.00  0.00     0.080 A 
HETATM   13  C   UNL     1      23.514  48.657  48.644  1.00  0.00     0.037 A 
HETATM   14  C   UNL     1      22.391  48.278  47.910  1.00  0.00     0.003 A 
HETATM   15  C   UNL     1      21.929  46.966  47.974  1.00  0.00     0.001 A 
HETATM   16  C   UNL     1      22.592  46.030  48.772  1.00  0.00     0.017 A 
BRANCH  12  17
HETATM   17  O   UNL     1      25.250  48.134  50.198  1.00  0.00    -0.355 OA
HETATM   18  C   UNL     1      26.275  48.703  49.383  1.00  0.00     0.210 C 
ENDBRANCH  12  17
ENDBRANCH   9  11
ENDBRANCH   1   5
BRANCH   2  19
HETATM   19  N   UNL     1      28.730  44.056  53.845  1.00  0.00    -0.165 NA
HETATM   20  C   UNL     1      28.986  44.725  54.924  1.00  0.00     0.157 A 
HETATM   21  C   UNL     1      28.280  45.973  55.462  1.00  0.00     0.277 A 
HETATM   22  C   UNL     1      30.030  44.409  55.891  1.00  0.00     0.027 A 
HETATM   23  O   UNL     1      27.346  46.526  54.920  1.00  0.00    -0.266 OA
HETATM   24  N   UNL     1      28.924  46.284  56.640  1.00  0.00    -0.321 N 
HETATM   25  C   UNL     1      29.947  45.371  56.895  1.00  0.00     0.048 A 
HETATM   26  H   UNL     1      28.672  47.067  57.224  1.00  0.00     0.169 HD
HETATM   27  C   UNL     1      30.803  45.352  57.977  1.00  0.00     0.030 A 
HETATM   28  C   UNL     1      31.756  44.325  58.022  1.00  0.00     0.002 A 
HETATM   29  C   UNL     1      31.833  43.355  57.001  1.00  0.00     0.001 A 
HETATM   30  C   UNL     1      30.958  43.389  55.913  1.00  0.00     0.016 A 
ENDBRANCH   2  19
TORSDOF 4
ENDMDL
MODEL 8
REMARK VINA RESULT:      -9.1      5.488      9.523
REMARK  4 active torsions:
REMARK  status: ('A' for Active; 'I' for Inactive)
REMARK    1  A    between atoms: O_2  and  C_3 
REMARK    2  A    between atoms: C_4  and  C_5 
REMARK    3  A    between atoms: C_9  and  C_10 
REMARK       I    between atoms: C_10  and  N_11 
REMARK    4  A    between atoms: N_11  and  N_12 
ROOT
HETATM    1  C   UNL     1      27.315  42.217  50.409  1.00  0.00     0.289 C 
HETATM    2  N   UNL     1      28.182  41.301  49.834  1.00  0.00    -0.241 N 
HETATM    3  O   UNL     1      26.324  42.674  49.843  1.00  0.00    -0.264 OA
HETATM    4  H   UNL     1      28.978  40.939  50.358  1.00  0.00     0.192 HD
ENDROOT
BRANCH   1   5
HETATM    5  C   UNL     1      27.641  42.598  51.760  1.00  0.00     0.121 A 
HETATM    6  N   UNL     1      26.871  42.185  52.813  1.00  0.00    -0.272 N 
HETATM    7  N   UNL     1      27.322  42.573  54.014  1.00  0.00    -0.174 NA
HETATM    8  H   UNL     1      26.035  41.611  52.761  1.00  0.00     0.189 HD
HETATM    9  C   UNL     1      28.399  43.325  53.739  1.00  0.00     0.092 A 
HETATM   10  C   UNL     1      28.641  43.356  52.335  1.00  0.00     0.071 A 
BRANCH   9  11
HETATM   11  C   UNL     1      29.207  43.940  54.790  1.00  0.00     0.028 A 
HETATM   12  C   UNL     1      28.854  45.154  55.401  1.00  0.00     0.080 A 
HETATM   13  C   UNL     1      29.662  45.707  56.403  1.00  0.00     0.037 A 
HETATM   14  C   UNL     1      30.811  45.039  56.824  1.00  0.00     0.003 A 
HETATM   15  C   UNL     1      31.167  43.829  56.234  1.00  0.00     0.001 A 
HETATM   16  C   UNL     1      30.374  43.285  55.221  1.00  0.00     0.017 A 
BRANCH  12  17
HETATM   17  O   UNL     1      27.770  45.869  54.955  1.00  0.00    -0.355 OA
HETATM   18  C   UNL     1      28.065  47.265  54.915  1.00  0.00     0.210 C 
ENDBRANCH  12  17
ENDBRANCH   9  11
ENDBRANCH   1   5
BRANCH   2  19
HETATM   19  N   UNL     1      27.947  40.824  48.572  1.00  0.00    -0.165 NA
HETATM   20  C   UNL     1      28.300  39.601  48.337  1.00  0.00     0.157 A 
HETATM   21  C   UNL     1      28.953  38.596  49.290  1.00  0.00     0.277 A 
HETATM   22  C   UNL     1      28.132  38.897  47.071  1.00  0.00     0.027 A 
HETATM   23  O   UNL     1      29.240  38.828  50.446  1.00  0.00    -0.266 OA
HETATM   24  N   UNL     1      29.114  37.440  48.558  1.00  0.00    -0.321 N 
HETATM   25  C   UNL     1      28.634  37.611  47.260  1.00  0.00     0.048 A 
HETATM   26  H   UNL     1      29.522  36.596  48.931  1.00  0.00     0.169 HD
HETATM   27  C   UNL     1      28.617  36.680  46.243  1.00  0.00     0.030 A 
HETATM   28  C   UNL     1      28.075  37.081  45.015  1.00  0.00     0.002 A 
HETATM   29  C   UNL     1      27.570  38.385  44.831  1.00  0.00     0.001 A 
HETATM   30  C   UNL     1      27.593  39.316  45.872  1.00  0.00     0.016 A 
ENDBRANCH   2  19
TORSDOF 4
ENDMDL
MODEL 9
REMARK VINA RESULT:      -9.1      3.187      9.146
REMARK  4 active torsions:
REMARK  status: ('A' for Active; 'I' for Inactive)
REMARK    1  A    between atoms: O_2  and  C_3 
REMARK    2  A    between atoms: C_4  and  C_5 
REMARK    3  A    between atoms: C_9  and  C_10 
REMARK       I    between atoms: C_10  and  N_11 
REMARK    4  A    between atoms: N_11  and  N_12 
ROOT
HETATM    1  C   UNL     1      27.434  42.092  51.738  1.00  0.00     0.289 C 
HETATM    2  N   UNL     1      26.541  43.078  51.349  1.00  0.00    -0.241 N 
HETATM    3  O   UNL     1      27.423  40.943  51.302  1.00  0.00    -0.264 OA
HETATM    4  H   UNL     1      26.609  44.021  51.728  1.00  0.00     0.192 HD
ENDROOT
BRANCH   1   5
HETATM    5  C   UNL     1      28.423  42.512  52.698  1.00  0.00     0.121 A 
HETATM    6  N   UNL     1      29.758  42.333  52.458  1.00  0.00    -0.272 N 
HETATM    7  N   UNL     1      30.563  42.818  53.414  1.00  0.00    -0.174 NA
HETATM    8  H   UNL     1      30.171  41.902  51.636  1.00  0.00     0.189 HD
HETATM    9  C   UNL     1      29.723  43.281  54.353  1.00  0.00     0.092 A 
HETATM   10  C   UNL     1      28.369  43.119  53.937  1.00  0.00     0.071 A 
BRANCH   9  11
HETATM   11  C   UNL     1      30.201  43.915  55.580  1.00  0.00     0.028 A 
HETATM   12  C   UNL     1      29.824  45.215  55.954  1.00  0.00     0.080 A 
HETATM   13  C   UNL     1      30.311  45.784  57.138  1.00  0.00     0.037 A 
HETATM   14  C   UNL     1      31.152  45.050  57.973  1.00  0.00     0.003 A 
HETATM   15  C   UNL     1      31.526  43.756  57.619  1.00  0.00     0.001 A 
HETATM   16  C   UNL     1      31.057  43.193  56.429  1.00  0.00     0.017 A 
BRANCH  12  17
HETATM   17  O   UNL     1      29.058  45.987  55.116  1.00  0.00    -0.355 OA
HETATM   18  C   UNL     1      27.909  46.490  55.798  1.00  0.00     0.210 C 
ENDBRANCH  12  17
ENDBRANCH   9  11
ENDBRANCH   1   5
BRANCH   2  19
HETATM   19  N   UNL     1      25.587  42.811  50.402  1.00  0.00    -0.165 NA
HETATM   20  C   UNL     1      24.772  43.774  50.110  1.00  0.00     0.157 A 
HETATM   21  C   UNL     1      24.727  45.193  50.684  1.00  0.00     0.277 A 
HETATM   22  C   UNL     1      23.695  43.707  49.129  1.00  0.00     0.027 A 
HETATM   23  O   UNL     1      25.485  45.619  51.530  1.00  0.00    -0.266 OA
HETATM   24  N   UNL     1      23.686  45.822  50.037  1.00  0.00    -0.321 N 
HETATM   25  C   UNL     1      23.081  44.958  49.126  1.00  0.00     0.048 A 
HETATM   26  H   UNL     1      23.418  46.779  50.211  1.00  0.00     0.169 HD
HETATM   27  C   UNL     1      22.016  45.229  48.293  1.00  0.00     0.030 A 
HETATM   28  C   UNL     1      21.580  44.196  47.452  1.00  0.00     0.002 A 
HETATM   29  C   UNL     1      22.207  42.932  47.462  1.00  0.00     0.001 A 
HETATM   30  C   UNL     1      23.286  42.674  48.311  1.00  0.00     0.016 A 
ENDBRANCH   2  19
TORSDOF 4
ENDMDL
MODEL 10
REMARK VINA RESULT:      -9.1      2.784      9.581
REMARK  4 active torsions:
REMARK  status: ('A' for Active; 'I' for Inactive)
REMARK    1  A    between atoms: O_2  and  C_3 
REMARK    2  A    between atoms: C_4  and  C_5 
REMARK    3  A    between atoms: C_9  and  C_10 
REMARK       I    between atoms: C_10  and  N_11 
REMARK    4  A    between atoms: N_11  and  N_12 
ROOT
HETATM    1  C   UNL     1      25.100  47.318  50.807  1.00  0.00     0.289 C 
HETATM    2  N   UNL     1      24.688  47.747  49.556  1.00  0.00    -0.241 N 
HETATM    3  O   UNL     1      24.778  47.862  51.861  1.00  0.00    -0.264 OA
HETATM    4  H   UNL     1      24.969  47.245  48.714  1.00  0.00     0.192 HD
ENDROOT
BRANCH   1   5
HETATM    5  C   UNL     1      25.936  46.144  50.802  1.00  0.00     0.121 A 
HETATM    6  N   UNL     1      26.571  45.737  49.661  1.00  0.00    -0.272 N 
HETATM    7  N   UNL     1      27.355  44.661  49.817  1.00  0.00    -0.174 NA
HETATM    8  H   UNL     1      26.518  46.181  48.749  1.00  0.00     0.189 HD
HETATM    9  C   UNL     1      27.182  44.306  51.100  1.00  0.00     0.092 A 
HETATM   10  C   UNL     1      26.307  45.219  51.757  1.00  0.00     0.071 A 
BRANCH   9  11
HETATM   11  C   UNL     1      27.881  43.167  51.693  1.00  0.00     0.028 A 
HETATM   12  C   UNL     1      27.434  41.844  51.541  1.00  0.00     0.080 A 
HETATM   13  C   UNL     1      28.135  40.785  52.131  1.00  0.00     0.037 A 
HETATM   14  C   UNL     1      29.304  41.033  52.850  1.00  0.00     0.003 A 
HETATM   15  C   UNL     1      29.764  42.339  52.998  1.00  0.00     0.001 A 
HETATM   16  C   UNL     1      29.056  43.400  52.428  1.00  0.00     0.017 A 
BRANCH  12  17
HETATM   17  O   UNL     1      26.248  41.579  50.903  1.00  0.00    -0.355 OA
HETATM   18  C   UNL     1      26.220  40.234  50.424  1.00  0.00     0.210 C 
ENDBRANCH  12  17
ENDBRANCH   9  11
ENDBRANCH   1   5
BRANCH   2  19
HETATM   19  N   UNL     1      23.846  48.822  49.436  1.00  0.00    -0.165 NA
HETATM   20  C   UNL     1      22.749  48.632  48.776  1.00  0.00     0.157 A 
HETATM   21  C   UNL     1      22.251  47.351  48.102  1.00  0.00     0.277 A 
HETATM   22  C   UNL     1      21.716  49.634  48.540  1.00  0.00     0.027 A 
HETATM   23  O   UNL     1      22.851  46.296  48.096  1.00  0.00    -0.266 OA
HETATM   24  N   UNL     1      21.031  47.672  47.548  1.00  0.00    -0.321 N 
HETATM   25  C   UNL     1      20.714  49.006  47.803  1.00  0.00     0.048 A 
HETATM   26  H   UNL     1      20.461  47.017  47.035  1.00  0.00     0.169 HD
HETATM   27  C   UNL     1      19.578  49.686  47.417  1.00  0.00     0.030 A 
HETATM   28  C   UNL     1      19.475  51.031  47.797  1.00  0.00     0.002 A 
HETATM   29  C   UNL     1      20.494  51.659  48.542  1.00  0.00     0.001 A 
HETATM   30  C   UNL     1      21.639  50.956  48.926  1.00  0.00     0.016 A 
ENDBRANCH   2  19
TORSDOF 4
ENDMDL
