MODEL 1
REMARK VINA RESULT:      -9.0      0.000      0.000
REMARK  4 active torsions:
REMARK  status: ('A' for Active; 'I' for Inactive)
REMARK    1  A    between atoms: O_2  and  C_3 
REMARK    2  A    between atoms: C_7  and  N_8 
REMARK       I    between atoms: N_8  and  C_9 
REMARK    3  A    between atoms: C_9  and  C_10 
REMARK    4  A    between atoms: C_12  and  C_13 
ROOT
HETATM    1  N   UNL     1      26.451  45.604  51.179  1.00  0.00    -0.323 N 
HETATM    2  C   UNL     1      27.053  44.461  50.678  1.00  0.00     0.256 C 
HETATM    3  O   UNL     1      27.142  44.146  49.498  1.00  0.00    -0.267 OA
HETATM    4  H   UNL     1      26.348  45.666  52.182  1.00  0.00     0.169 HD
ENDROOT
BRANCH   2   5
HETATM    5  C   UNL     1      27.610  43.529  51.702  1.00  0.00     0.033 A 
HETATM    6  C   UNL     1      28.351  44.074  52.761  1.00  0.00     0.029 A 
HETATM    7  C   UNL     1      28.883  43.251  53.763  1.00  0.00    -0.023 A 
HETATM    8  C   UNL     1      28.665  41.869  53.685  1.00  0.00     0.012 A 
HETATM    9  C   UNL     1      27.913  41.321  52.642  1.00  0.00     0.002 A 
HETATM   10  C   UNL     1      27.377  42.148  51.655  1.00  0.00     0.017 A 
BRANCH   7  11
HETATM   11  C   UNL     1      29.648  43.806  54.869  1.00  0.00    -0.002 A 
HETATM   12  C   UNL     1      29.404  45.035  55.452  1.00  0.00     0.153 A 
HETATM   13  O   UNL     1      30.271  45.269  56.471  1.00  0.00    -0.334 OA
HETATM   14  C   UNL     1      31.081  44.184  56.556  1.00  0.00     0.142 A 
HETATM   15  C   UNL     1      30.739  43.256  55.601  1.00  0.00     0.038 A 
ENDBRANCH   7  11
ENDBRANCH   2   5
BRANCH   1  16
HETATM   16  C   UNL     1      25.904  46.673  50.436  1.00  0.00     0.041 A 
HETATM   17  C   UNL     1      26.647  47.734  49.926  1.00  0.00     0.074 A 
HETATM   18  C   UNL     1      26.014  48.756  49.215  1.00  0.00     0.155 A 
HETATM   19  C   UNL     1      24.634  48.762  48.997  1.00  0.00     0.145 A 
HETATM   20  F   UNL     1      26.768  49.760  48.739  1.00  0.00    -0.203 F 
HETATM   21  C   UNL     1      23.902  47.694  49.510  1.00  0.00     0.155 A 
HETATM   22  C   UNL     1      24.523  46.661  50.220  1.00  0.00     0.074 A 
HETATM   23  F   UNL     1      22.574  47.611  49.349  1.00  0.00    -0.203 F 
BRANCH  19  24
HETATM   24  O   UNL     1      24.153  49.831  48.293  1.00  0.00    -0.350 OA
HETATM   25  C   UNL     1      23.345  50.767  48.993  1.00  0.00     0.210 C 
ENDBRANCH  19  24
ENDBRANCH   1  16
TORSDOF 4
ENDMDL
MODEL 2
REMARK VINA RESULT:      -8.9      0.214      1.693
REMARK  4 active torsions:
REMARK  status: ('A' for Active; 'I' for Inactive)
REMARK    1  A    between atoms: O_2  and  C_3 
REMARK    2  A    between atoms: C_7  and  N_8 
REMARK       I    between atoms: N_8  and  C_9 
REMARK    3  A    between atoms: C_9  and  C_10 
REMARK    4  A    between atoms: C_12  and  C_13 
ROOT
HETATM    1  N   UNL     1      26.385  45.465  51.145  1.00  0.00    -0.323 N 
HETATM    2  C   UNL     1      27.018  44.358  50.604  1.00  0.00     0.256 C 
HETATM    3  O   UNL     1      27.052  44.048  49.420  1.00  0.00    -0.267 OA
HETATM    4  H   UNL     1      26.340  45.521  52.153  1.00  0.00     0.169 HD
ENDROOT
BRANCH   2   5
HETATM    5  C   UNL     1      27.688  43.458  51.589  1.00  0.00     0.033 A 
HETATM    6  C   UNL     1      28.341  44.044  52.684  1.00  0.00     0.029 A 
HETATM    7  C   UNL     1      28.972  43.250  53.652  1.00  0.00    -0.023 A 
HETATM    8  C   UNL     1      28.942  41.857  53.503  1.00  0.00     0.012 A 
HETATM    9  C   UNL     1      28.279  41.267  52.424  1.00  0.00     0.002 A 
HETATM   10  C   UNL     1      27.643  42.063  51.471  1.00  0.00     0.017 A 
BRANCH   7  11
HETATM   11  C   UNL     1      29.646  43.846  54.794  1.00  0.00    -0.002 A 
HETATM   12  C   UNL     1      29.286  45.045  55.380  1.00  0.00     0.153 A 
HETATM   13  O   UNL     1      30.091  45.329  56.437  1.00  0.00    -0.334 OA
HETATM   14  C   UNL     1      30.976  44.308  56.543  1.00  0.00     0.142 A 
HETATM   15  C   UNL     1      30.745  43.369  55.565  1.00  0.00     0.038 A 
ENDBRANCH   7  11
ENDBRANCH   2   5
BRANCH   1  16
HETATM   16  C   UNL     1      25.735  46.502  50.442  1.00  0.00     0.041 A 
HETATM   17  C   UNL     1      24.380  46.500  50.116  1.00  0.00     0.074 A 
HETATM   18  C   UNL     1      23.829  47.567  49.403  1.00  0.00     0.155 A 
HETATM   19  C   UNL     1      24.599  48.656  48.986  1.00  0.00     0.145 A 
HETATM   20  F   UNL     1      22.519  47.526  49.111  1.00  0.00    -0.203 F 
HETATM   21  C   UNL     1      25.951  48.648  49.319  1.00  0.00     0.155 A 
HETATM   22  C   UNL     1      26.515  47.589  50.038  1.00  0.00     0.074 A 
HETATM   23  F   UNL     1      26.768  49.650  48.966  1.00  0.00    -0.203 F 
BRANCH  19  24
HETATM   24  O   UNL     1      23.926  49.621  48.289  1.00  0.00    -0.350 OA
HETATM   25  C   UNL     1      23.379  50.704  49.029  1.00  0.00     0.210 C 
ENDBRANCH  19  24
ENDBRANCH   1  16
TORSDOF 4
ENDMDL
MODEL 3
REMARK VINA RESULT:      -8.8      1.746      2.118
REMARK  4 active torsions:
REMARK  status: ('A' for Active; 'I' for Inactive)
REMARK    1  A    between atoms: O_2  and  C_3 
REMARK    2  A    between atoms: C_7  and  N_8 
REMARK       I    between atoms: N_8  and  C_9 
REMARK    3  A    between atoms: C_9  and  C_10 
REMARK    4  A    between atoms: C_12  and  C_13 
ROOT
HETATM    1  N   UNL     1      26.188  46.702  51.017  1.00  0.00    -0.323 N 
HETATM    2  C   UNL     1      26.083  46.718  52.399  1.00  0.00     0.256 C 
HETATM    3  O   UNL     1      25.504  47.560  53.073  1.00  0.00    -0.267 OA
HETATM    4  H   UNL     1      26.801  46.008  50.611  1.00  0.00     0.169 HD
ENDROOT
BRANCH   2   5
HETATM    5  C   UNL     1      26.780  45.604  53.107  1.00  0.00     0.033 A 
HETATM    6  C   UNL     1      27.602  45.925  54.198  1.00  0.00     0.029 A 
HETATM    7  C   UNL     1      28.268  44.921  54.914  1.00  0.00    -0.023 A 
HETATM    8  C   UNL     1      28.101  43.587  54.518  1.00  0.00     0.012 A 
HETATM    9  C   UNL     1      27.270  43.260  53.443  1.00  0.00     0.002 A 
HETATM   10  C   UNL     1      26.601  44.264  52.742  1.00  0.00     0.017 A 
BRANCH   7  11
HETATM   11  C   UNL     1      29.117  45.242  56.051  1.00  0.00    -0.002 A 
HETATM   12  C   UNL     1      30.406  44.775  56.223  1.00  0.00     0.153 A 
HETATM   13  O   UNL     1      30.949  45.262  57.369  1.00  0.00    -0.334 OA
HETATM   14  C   UNL     1      30.010  46.054  57.944  1.00  0.00     0.142 A 
HETATM   15  C   UNL     1      28.871  46.081  57.175  1.00  0.00     0.038 A 
ENDBRANCH   7  11
ENDBRANCH   2   5
BRANCH   1  16
HETATM   16  C   UNL     1      25.577  47.592  50.107  1.00  0.00     0.041 A 
HETATM   17  C   UNL     1      26.260  48.574  49.394  1.00  0.00     0.074 A 
HETATM   18  C   UNL     1      25.566  49.420  48.526  1.00  0.00     0.155 A 
HETATM   19  C   UNL     1      24.184  49.325  48.345  1.00  0.00     0.145 A 
HETATM   20  F   UNL     1      26.263  50.353  47.856  1.00  0.00    -0.203 F 
HETATM   21  C   UNL     1      23.513  48.338  49.062  1.00  0.00     0.155 A 
HETATM   22  C   UNL     1      24.195  47.480  49.931  1.00  0.00     0.074 A 
HETATM   23  F   UNL     1      22.188  48.167  48.952  1.00  0.00    -0.203 F 
BRANCH  19  24
HETATM   24  O   UNL     1      23.640  50.225  47.471  1.00  0.00    -0.350 OA
HETATM   25  C   UNL     1      22.805  51.240  48.011  1.00  0.00     0.210 C 
ENDBRANCH  19  24
ENDBRANCH   1  16
TORSDOF 4
ENDMDL
MODEL 4
REMARK VINA RESULT:      -8.6      1.788      2.171
REMARK  4 active torsions:
REMARK  status: ('A' for Active; 'I' for Inactive)
REMARK    1  A    between atoms: O_2  and  C_3 
REMARK    2  A    between atoms: C_7  and  N_8 
REMARK       I    between atoms: N_8  and  C_9 
REMARK    3  A    between atoms: C_9  and  C_10 
REMARK    4  A    between atoms: C_12  and  C_13 
ROOT
HETATM    1  N   UNL     1      27.000  45.452  51.411  1.00  0.00    -0.323 N 
HETATM    2  C   UNL     1      27.033  45.268  52.783  1.00  0.00     0.256 C 
HETATM    3  O   UNL     1      26.236  45.720  53.596  1.00  0.00    -0.267 OA
HETATM    4  H   UNL     1      27.795  45.120  50.884  1.00  0.00     0.169 HD
ENDROOT
BRANCH   2   5
HETATM    5  C   UNL     1      28.182  44.464  53.295  1.00  0.00     0.033 A 
HETATM    6  C   UNL     1      28.724  44.804  54.543  1.00  0.00     0.029 A 
HETATM    7  C   UNL     1      29.792  44.074  55.084  1.00  0.00    -0.023 A 
HETATM    8  C   UNL     1      30.312  42.998  54.351  1.00  0.00     0.012 A 
HETATM    9  C   UNL     1      29.765  42.645  53.115  1.00  0.00     0.002 A 
HETATM   10  C   UNL     1      28.695  43.369  52.589  1.00  0.00     0.017 A 
BRANCH   7  11
HETATM   11  C   UNL     1      30.357  44.413  56.381  1.00  0.00    -0.002 A 
HETATM   12  C   UNL     1      31.366  43.705  57.005  1.00  0.00     0.153 A 
HETATM   13  O   UNL     1      31.694  44.275  58.194  1.00  0.00    -0.334 OA
HETATM   14  C   UNL     1      30.897  45.362  58.343  1.00  0.00     0.142 A 
HETATM   15  C   UNL     1      30.063  45.496  57.258  1.00  0.00     0.038 A 
ENDBRANCH   7  11
ENDBRANCH   2   5
BRANCH   1  16
HETATM   16  C   UNL     1      25.999  46.112  50.665  1.00  0.00     0.041 A 
HETATM   17  C   UNL     1      26.060  47.451  50.283  1.00  0.00     0.074 A 
HETATM   18  C   UNL     1      25.012  48.021  49.557  1.00  0.00     0.155 A 
HETATM   19  C   UNL     1      23.876  47.291  49.197  1.00  0.00     0.145 A 
HETATM   20  F   UNL     1      25.110  49.314  49.208  1.00  0.00    -0.203 F 
HETATM   21  C   UNL     1      23.828  45.953  49.582  1.00  0.00     0.155 A 
HETATM   22  C   UNL     1      24.873  45.367  50.305  1.00  0.00     0.074 A 
HETATM   23  F   UNL     1      22.782  45.172  49.279  1.00  0.00    -0.203 F 
BRANCH  19  24
HETATM   24  O   UNL     1      22.928  47.983  48.496  1.00  0.00    -0.350 OA
HETATM   25  C   UNL     1      21.741  48.350  49.185  1.00  0.00     0.210 C 
ENDBRANCH  19  24
ENDBRANCH   1  16
TORSDOF 4
ENDMDL
MODEL 5
REMARK VINA RESULT:      -8.6      3.887      6.929
REMARK  4 active torsions:
REMARK  status: ('A' for Active; 'I' for Inactive)
REMARK    1  A    between atoms: O_2  and  C_3 
REMARK    2  A    between atoms: C_7  and  N_8 
REMARK       I    between atoms: N_8  and  C_9 
REMARK    3  A    between atoms: C_9  and  C_10 
REMARK    4  A    between atoms: C_12  and  C_13 
ROOT
HETATM    1  N   UNL     1      22.394  49.662  49.399  1.00  0.00    -0.323 N 
HETATM    2  C   UNL     1      23.311  49.786  48.368  1.00  0.00     0.256 C 
HETATM    3  O   UNL     1      23.076  50.175  47.231  1.00  0.00    -0.267 OA
HETATM    4  H   UNL     1      22.713  49.211  50.245  1.00  0.00     0.169 HD
ENDROOT
BRANCH   2   5
HETATM    5  C   UNL     1      24.705  49.367  48.697  1.00  0.00     0.033 A 
HETATM    6  C   UNL     1      24.887  48.169  49.404  1.00  0.00     0.029 A 
HETATM    7  C   UNL     1      26.174  47.714  49.725  1.00  0.00    -0.023 A 
HETATM    8  C   UNL     1      27.277  48.482  49.330  1.00  0.00     0.012 A 
HETATM    9  C   UNL     1      27.103  49.667  48.611  1.00  0.00     0.002 A 
HETATM   10  C   UNL     1      25.820  50.107  48.285  1.00  0.00     0.017 A 
BRANCH   7  11
HETATM   11  C   UNL     1      26.374  46.470  50.452  1.00  0.00    -0.002 A 
HETATM   12  C   UNL     1      26.934  45.328  49.912  1.00  0.00     0.153 A 
HETATM   13  O   UNL     1      27.006  44.338  50.839  1.00  0.00    -0.334 OA
HETATM   14  C   UNL     1      26.494  44.840  51.991  1.00  0.00     0.142 A 
HETATM   15  C   UNL     1      26.098  46.144  51.811  1.00  0.00     0.038 A 
ENDBRANCH   7  11
ENDBRANCH   2   5
BRANCH   1  16
HETATM   16  C   UNL     1      21.034  50.042  49.379  1.00  0.00     0.041 A 
HETATM   17  C   UNL     1      20.584  51.332  49.110  1.00  0.00     0.074 A 
HETATM   18  C   UNL     1      19.217  51.616  49.128  1.00  0.00     0.155 A 
HETATM   19  C   UNL     1      18.261  50.639  49.418  1.00  0.00     0.145 A 
HETATM   20  F   UNL     1      18.825  52.873  48.862  1.00  0.00    -0.203 F 
HETATM   21  C   UNL     1      18.723  49.352  49.683  1.00  0.00     0.155 A 
HETATM   22  C   UNL     1      20.089  49.052  49.664  1.00  0.00     0.074 A 
HETATM   23  F   UNL     1      17.881  48.349  49.968  1.00  0.00    -0.203 F 
BRANCH  19  24
HETATM   24  O   UNL     1      16.961  51.065  49.408  1.00  0.00    -0.350 OA
HETATM   25  C   UNL     1      16.163  50.707  48.288  1.00  0.00     0.210 C 
ENDBRANCH  19  24
ENDBRANCH   1  16
TORSDOF 4
ENDMDL
MODEL 6
REMARK VINA RESULT:      -8.2      3.658      4.697
REMARK  4 active torsions:
REMARK  status: ('A' for Active; 'I' for Inactive)
REMARK    1  A    between atoms: O_2  and  C_3 
REMARK    2  A    between atoms: C_7  and  N_8 
REMARK       I    between atoms: N_8  and  C_9 
REMARK    3  A    between atoms: C_9  and  C_10 
REMARK    4  A    between atoms: C_12  and  C_13 
ROOT
HETATM    1  N   UNL     1      25.774  44.141  52.458  1.00  0.00    -0.323 N 
HETATM    2  C   UNL     1      27.139  44.383  52.462  1.00  0.00     0.256 C 
HETATM    3  O   UNL     1      27.938  44.039  51.600  1.00  0.00    -0.267 OA
HETATM    4  H   UNL     1      25.264  44.379  53.298  1.00  0.00     0.169 HD
ENDROOT
BRANCH   2   5
HETATM    5  C   UNL     1      27.659  45.105  53.660  1.00  0.00     0.033 A 
HETATM    6  C   UNL     1      28.679  44.498  54.407  1.00  0.00     0.029 A 
HETATM    7  C   UNL     1      29.221  45.136  55.532  1.00  0.00    -0.023 A 
HETATM    8  C   UNL     1      28.721  46.393  55.899  1.00  0.00     0.012 A 
HETATM    9  C   UNL     1      27.717  47.010  55.148  1.00  0.00     0.002 A 
HETATM   10  C   UNL     1      27.191  46.374  54.024  1.00  0.00     0.017 A 
BRANCH   7  11
HETATM   11  C   UNL     1      30.284  44.520  56.310  1.00  0.00    -0.002 A 
HETATM   12  C   UNL     1      30.701  44.957  57.552  1.00  0.00     0.153 A 
HETATM   13  O   UNL     1      31.697  44.169  58.035  1.00  0.00    -0.334 OA
HETATM   14  C   UNL     1      31.926  43.210  57.104  1.00  0.00     0.142 A 
HETATM   15  C   UNL     1      31.084  43.375  56.030  1.00  0.00     0.038 A 
ENDBRANCH   7  11
ENDBRANCH   2   5
BRANCH   1  16
HETATM   16  C   UNL     1      25.019  43.539  51.429  1.00  0.00     0.041 A 
HETATM   17  C   UNL     1      25.354  42.336  50.812  1.00  0.00     0.074 A 
HETATM   18  C   UNL     1      24.551  41.825  49.789  1.00  0.00     0.155 A 
HETATM   19  C   UNL     1      23.405  42.490  49.345  1.00  0.00     0.145 A 
HETATM   20  F   UNL     1      24.909  40.662  49.222  1.00  0.00    -0.203 F 
HETATM   21  C   UNL     1      23.080  43.690  49.971  1.00  0.00     0.155 A 
HETATM   22  C   UNL     1      23.871  44.211  50.999  1.00  0.00     0.074 A 
HETATM   23  F   UNL     1      21.998  44.397  49.615  1.00  0.00    -0.203 F 
BRANCH  19  24
HETATM   24  O   UNL     1      22.724  41.875  48.331  1.00  0.00    -0.350 OA
HETATM   25  C   UNL     1      22.955  42.341  47.009  1.00  0.00     0.210 C 
ENDBRANCH  19  24
ENDBRANCH   1  16
TORSDOF 4
ENDMDL
MODEL 7
REMARK VINA RESULT:      -8.1      4.476      6.686
REMARK  4 active torsions:
REMARK  status: ('A' for Active; 'I' for Inactive)
REMARK    1  A    between atoms: O_2  and  C_3 
REMARK    2  A    between atoms: C_7  and  N_8 
REMARK       I    between atoms: N_8  and  C_9 
REMARK    3  A    between atoms: C_9  and  C_10 
REMARK    4  A    between atoms: C_12  and  C_13 
ROOT
HETATM    1  N   UNL     1      27.910  42.147  51.886  1.00  0.00    -0.323 N 
HETATM    2  C   UNL     1      28.362  41.833  53.157  1.00  0.00     0.256 C 
HETATM    3  O   UNL     1      28.411  40.715  53.654  1.00  0.00    -0.267 OA
HETATM    4  H   UNL     1      27.815  43.128  51.662  1.00  0.00     0.169 HD
ENDROOT
BRANCH   2   5
HETATM    5  C   UNL     1      28.796  42.994  53.988  1.00  0.00     0.033 A 
HETATM    6  C   UNL     1      27.952  44.114  54.052  1.00  0.00     0.029 A 
HETATM    7  C   UNL     1      28.296  45.228  54.831  1.00  0.00    -0.023 A 
HETATM    8  C   UNL     1      29.503  45.204  55.543  1.00  0.00     0.012 A 
HETATM    9  C   UNL     1      30.339  44.085  55.497  1.00  0.00     0.002 A 
HETATM   10  C   UNL     1      29.984  42.976  54.728  1.00  0.00     0.017 A 
BRANCH   7  11
HETATM   11  C   UNL     1      27.427  46.391  54.910  1.00  0.00    -0.002 A 
HETATM   12  C   UNL     1      26.267  46.554  54.177  1.00  0.00     0.153 A 
HETATM   13  O   UNL     1      25.663  47.732  54.482  1.00  0.00    -0.334 OA
HETATM   14  C   UNL     1      26.431  48.337  55.422  1.00  0.00     0.142 A 
HETATM   15  C   UNL     1      27.521  47.556  55.725  1.00  0.00     0.038 A 
ENDBRANCH   7  11
ENDBRANCH   2   5
BRANCH   1  16
HETATM   16  C   UNL     1      27.503  41.243  50.880  1.00  0.00     0.041 A 
HETATM   17  C   UNL     1      28.313  40.239  50.354  1.00  0.00     0.074 A 
HETATM   18  C   UNL     1      27.826  39.401  49.348  1.00  0.00     0.155 A 
HETATM   19  C   UNL     1      26.536  39.537  48.830  1.00  0.00     0.145 A 
HETATM   20  F   UNL     1      28.639  38.445  48.869  1.00  0.00    -0.203 F 
HETATM   21  C   UNL     1      25.735  40.543  49.365  1.00  0.00     0.155 A 
HETATM   22  C   UNL     1      26.207  41.386  50.377  1.00  0.00     0.074 A 
HETATM   23  F   UNL     1      24.482  40.748  48.935  1.00  0.00    -0.203 F 
BRANCH  19  24
HETATM   24  O   UNL     1      26.201  38.653  47.842  1.00  0.00    -0.350 OA
HETATM   25  C   UNL     1      26.309  39.100  46.498  1.00  0.00     0.210 C 
ENDBRANCH  19  24
ENDBRANCH   1  16
TORSDOF 4
ENDMDL
MODEL 8
REMARK VINA RESULT:      -8.0      3.263      9.298
REMARK  4 active torsions:
REMARK  status: ('A' for Active; 'I' for Inactive)
REMARK    1  A    between atoms: O_2  and  C_3 
REMARK    2  A    between atoms: C_7  and  N_8 
REMARK       I    between atoms: N_8  and  C_9 
REMARK    3  A    between atoms: C_9  and  C_10 
REMARK    4  A    between atoms: C_12  and  C_13 
ROOT
HETATM    1  N   UNL     1      25.159  47.522  50.321  1.00  0.00    -0.323 N 
HETATM    2  C   UNL     1      23.961  47.466  49.628  1.00  0.00     0.256 C 
HETATM    3  O   UNL     1      23.305  46.459  49.393  1.00  0.00    -0.267 OA
HETATM    4  H   UNL     1      25.644  48.408  50.329  1.00  0.00     0.169 HD
ENDROOT
BRANCH   2   5
HETATM    5  C   UNL     1      23.464  48.772  49.102  1.00  0.00     0.033 A 
HETATM    6  C   UNL     1      22.165  49.173  49.449  1.00  0.00     0.029 A 
HETATM    7  C   UNL     1      21.649  50.398  49.001  1.00  0.00    -0.023 A 
HETATM    8  C   UNL     1      22.455  51.213  48.195  1.00  0.00     0.012 A 
HETATM    9  C   UNL     1      23.755  50.826  47.860  1.00  0.00     0.002 A 
HETATM   10  C   UNL     1      24.265  49.612  48.319  1.00  0.00     0.017 A 
BRANCH   7  11
HETATM   11  C   UNL     1      20.307  50.827  49.360  1.00  0.00    -0.002 A 
HETATM   12  C   UNL     1      19.506  50.199  50.294  1.00  0.00     0.153 A 
HETATM   13  O   UNL     1      18.317  50.843  50.425  1.00  0.00    -0.334 OA
HETATM   14  C   UNL     1      18.345  51.899  49.574  1.00  0.00     0.142 A 
HETATM   15  C   UNL     1      19.543  51.939  48.901  1.00  0.00     0.038 A 
ENDBRANCH   7  11
ENDBRANCH   2   5
BRANCH   1  16
HETATM   16  C   UNL     1      25.816  46.455  50.972  1.00  0.00     0.041 A 
HETATM   17  C   UNL     1      26.455  45.408  50.312  1.00  0.00     0.074 A 
HETATM   18  C   UNL     1      27.066  44.387  51.044  1.00  0.00     0.155 A 
HETATM   19  C   UNL     1      27.056  44.368  52.441  1.00  0.00     0.145 A 
HETATM   20  F   UNL     1      27.671  43.396  50.369  1.00  0.00    -0.203 F 
HETATM   21  C   UNL     1      26.416  45.422  53.089  1.00  0.00     0.155 A 
HETATM   22  C   UNL     1      25.805  46.454  52.370  1.00  0.00     0.074 A 
HETATM   23  F   UNL     1      26.358  45.492  54.427  1.00  0.00    -0.203 F 
BRANCH  19  24
HETATM   24  O   UNL     1      27.685  43.302  53.021  1.00  0.00    -0.350 OA
HETATM   25  C   UNL     1      28.959  43.533  53.609  1.00  0.00     0.210 C 
ENDBRANCH  19  24
ENDBRANCH   1  16
TORSDOF 4
ENDMDL
MODEL 9
REMARK VINA RESULT:      -7.8      5.048      7.029
REMARK  4 active torsions:
REMARK  status: ('A' for Active; 'I' for Inactive)
REMARK    1  A    between atoms: O_2  and  C_3 
REMARK    2  A    between atoms: C_7  and  N_8 
REMARK       I    between atoms: N_8  and  C_9 
REMARK    3  A    between atoms: C_9  and  C_10 
REMARK    4  A    between atoms: C_12  and  C_13 
ROOT
HETATM    1  N   UNL     1      27.675  41.623  50.816  1.00  0.00    -0.323 N 
HETATM    2  C   UNL     1      28.410  41.554  51.987  1.00  0.00     0.256 C 
HETATM    3  O   UNL     1      29.057  40.593  52.383  1.00  0.00    -0.267 OA
HETATM    4  H   UNL     1      27.094  42.440  50.685  1.00  0.00     0.169 HD
ENDROOT
BRANCH   2   5
HETATM    5  C   UNL     1      28.364  42.775  52.845  1.00  0.00     0.033 A 
HETATM    6  C   UNL     1      29.262  42.863  53.920  1.00  0.00     0.029 A 
HETATM    7  C   UNL     1      29.280  43.992  54.750  1.00  0.00    -0.023 A 
HETATM    8  C   UNL     1      28.378  45.033  54.489  1.00  0.00     0.012 A 
HETATM    9  C   UNL     1      27.494  44.959  53.410  1.00  0.00     0.002 A 
HETATM   10  C   UNL     1      27.490  43.837  52.582  1.00  0.00     0.017 A 
BRANCH   7  11
HETATM   11  C   UNL     1      30.211  44.097  55.862  1.00  0.00    -0.002 A 
HETATM   12  C   UNL     1      30.307  45.188  56.704  1.00  0.00     0.153 A 
HETATM   13  O   UNL     1      31.253  44.984  57.657  1.00  0.00    -0.334 OA
HETATM   14  C   UNL     1      31.773  43.750  57.437  1.00  0.00     0.142 A 
HETATM   15  C   UNL     1      31.166  43.161  56.354  1.00  0.00     0.038 A 
ENDBRANCH   7  11
ENDBRANCH   2   5
BRANCH   1  16
HETATM   16  C   UNL     1      27.595  40.643  49.802  1.00  0.00     0.041 A 
HETATM   17  C   UNL     1      27.135  39.344  50.001  1.00  0.00     0.074 A 
HETATM   18  C   UNL     1      27.108  38.439  48.937  1.00  0.00     0.155 A 
HETATM   19  C   UNL     1      27.540  38.789  47.655  1.00  0.00     0.145 A 
HETATM   20  F   UNL     1      26.657  37.196  49.172  1.00  0.00    -0.203 F 
HETATM   21  C   UNL     1      27.995  40.092  47.468  1.00  0.00     0.155 A 
HETATM   22  C   UNL     1      28.023  41.010  48.523  1.00  0.00     0.074 A 
HETATM   23  F   UNL     1      28.425  40.521  46.273  1.00  0.00    -0.203 F 
BRANCH  19  24
HETATM   24  O   UNL     1      27.464  37.798  46.717  1.00  0.00    -0.350 OA
HETATM   25  C   UNL     1      28.634  37.026  46.482  1.00  0.00     0.210 C 
ENDBRANCH  19  24
ENDBRANCH   1  16
TORSDOF 4
ENDMDL
MODEL 10
REMARK VINA RESULT:      -7.6      3.401      9.009
REMARK  4 active torsions:
REMARK  status: ('A' for Active; 'I' for Inactive)
REMARK    1  A    between atoms: O_2  and  C_3 
REMARK    2  A    between atoms: C_7  and  N_8 
REMARK       I    between atoms: N_8  and  C_9 
REMARK    3  A    between atoms: C_9  and  C_10 
REMARK    4  A    between atoms: C_12  and  C_13 
ROOT
HETATM    1  N   UNL     1      24.930  47.150  51.031  1.00  0.00    -0.323 N 
HETATM    2  C   UNL     1      25.408  47.880  49.955  1.00  0.00     0.256 C 
HETATM    3  O   UNL     1      26.577  47.971  49.602  1.00  0.00    -0.267 OA
HETATM    4  H   UNL     1      23.955  47.270  51.271  1.00  0.00     0.169 HD
ENDROOT
BRANCH   2   5
HETATM    5  C   UNL     1      24.378  48.645  49.191  1.00  0.00     0.033 A 
HETATM    6  C   UNL     1      23.040  48.234  49.290  1.00  0.00     0.029 A 
HETATM    7  C   UNL     1      22.026  48.924  48.611  1.00  0.00    -0.023 A 
HETATM    8  C   UNL     1      22.375  50.032  47.826  1.00  0.00     0.012 A 
HETATM    9  C   UNL     1      23.703  50.456  47.738  1.00  0.00     0.002 A 
HETATM   10  C   UNL     1      24.705  49.772  48.426  1.00  0.00     0.017 A 
BRANCH   7  11
HETATM   11  C   UNL     1      20.635  48.511  48.711  1.00  0.00    -0.002 A 
HETATM   12  C   UNL     1      19.991  47.699  47.798  1.00  0.00     0.153 A 
HETATM   13  O   UNL     1      18.704  47.475  48.171  1.00  0.00    -0.334 OA
HETATM   14  C   UNL     1      18.510  48.142  49.336  1.00  0.00     0.142 A 
HETATM   15  C   UNL     1      19.663  48.789  49.714  1.00  0.00     0.038 A 
ENDBRANCH   7  11
ENDBRANCH   2   5
BRANCH   1  16
HETATM   16  C   UNL     1      25.671  46.295  51.876  1.00  0.00     0.041 A 
HETATM   17  C   UNL     1      25.910  44.948  51.614  1.00  0.00     0.074 A 
HETATM   18  C   UNL     1      26.643  44.178  52.520  1.00  0.00     0.155 A 
HETATM   19  C   UNL     1      27.151  44.712  53.707  1.00  0.00     0.145 A 
HETATM   20  F   UNL     1      26.851  42.883  52.229  1.00  0.00    -0.203 F 
HETATM   21  C   UNL     1      26.907  46.060  53.956  1.00  0.00     0.155 A 
HETATM   22  C   UNL     1      26.179  46.846  53.056  1.00  0.00     0.074 A 
HETATM   23  F   UNL     1      27.357  46.662  55.066  1.00  0.00    -0.203 F 
BRANCH  19  24
HETATM   24  O   UNL     1      27.840  43.837  54.499  1.00  0.00    -0.350 OA
HETATM   25  C   UNL     1      29.259  43.909  54.475  1.00  0.00     0.210 C 
ENDBRANCH  19  24
ENDBRANCH   1  16
TORSDOF 4
ENDMDL
