MODEL 1
REMARK VINA RESULT:     -10.3      0.000      0.000
REMARK  6 active torsions:
REMARK  status: ('A' for Active; 'I' for Inactive)
REMARK    1  A    between atoms: C_4  and  O_5 
REMARK    2  A    between atoms: O_5  and  C_6 
REMARK    3  A    between atoms: C_6  and  C_7 
REMARK       I    between atoms: C_7  and  N_8 
REMARK    4  A    between atoms: N_8  and  N_9 
REMARK    5  A    between atoms: C_10  and  C_11 
REMARK    6  A    between atoms: C_23  and  C_24 
ROOT
HETATM    1  C   UNL     1      26.224  46.480  54.041  1.00  0.00     0.261 C 
HETATM    2  N   UNL     1      26.380  46.481  52.658  1.00  0.00    -0.246 N 
HETATM    3  O   UNL     1      25.755  47.395  54.716  1.00  0.00    -0.269 OA
HETATM    4  H   UNL     1      26.523  45.578  52.208  1.00  0.00     0.192 HD
ENDROOT
BRANCH   2   5
HETATM    5  N   UNL     1      26.059  47.502  51.789  1.00  0.00    -0.184 NA
HETATM    6  C   UNL     1      26.114  47.282  50.515  1.00  0.00     0.152 C 
BRANCH   6   7
HETATM    7  C   UNL     1      25.787  48.335  49.570  1.00  0.00     0.011 A 
HETATM    8  C   UNL     1      24.517  48.842  49.139  1.00  0.00     0.005 A 
HETATM    9  C   UNL     1      24.766  49.845  48.196  1.00  0.00     0.043 A 
HETATM   10  C   UNL     1      23.173  48.537  49.445  1.00  0.00     0.033 A 
HETATM   11  C   UNL     1      23.748  50.557  47.550  1.00  0.00     0.031 A 
HETATM   12  N   UNL     1      26.130  49.953  48.068  1.00  0.00    -0.364 N 
HETATM   13  C   UNL     1      22.427  50.232  47.868  1.00  0.00     0.021 A 
HETATM   14  C   UNL     1      22.148  49.238  48.802  1.00  0.00     0.012 A 
HETATM   15 BR   UNL     1      20.345  48.820  49.201  1.00  0.00    -0.051 Br
HETATM   16  H   UNL     1      26.598  50.606  47.454  1.00  0.00     0.165 HD
HETATM   17  C   UNL     1      26.753  49.043  48.877  1.00  0.00     0.102 A 
ENDBRANCH   6   7
ENDBRANCH   2   5
BRANCH   1  18
HETATM   18  C   UNL     1      26.814  45.238  54.700  1.00  0.00     0.280 C 
BRANCH  18  19
HETATM   19  O   UNL     1      28.031  44.834  54.081  1.00  0.00    -0.341 OA
BRANCH  19  20
HETATM   20  C   UNL     1      29.047  44.605  54.982  1.00  0.00     0.076 A 
HETATM   21  C   UNL     1      29.308  45.487  56.043  1.00  0.00     0.044 A 
HETATM   22  C   UNL     1      30.330  45.225  56.962  1.00  0.00    -0.059 A 
HETATM   23  C   UNL     1      30.570  46.140  58.126  1.00  0.00     0.048 C 
HETATM   24  C   UNL     1      31.090  44.066  56.811  1.00  0.00     0.007 A 
HETATM   25  C   UNL     1      30.856  43.200  55.740  1.00  0.00     0.011 A 
HETATM   26  C   UNL     1      29.848  43.463  54.795  1.00  0.00    -0.021 A 
BRANCH  26  27
HETATM   27  C   UNL     1      29.592  42.497  53.646  1.00  0.00     0.013 C 
HETATM   28  C   UNL     1      28.289  41.701  53.801  1.00  0.00     0.015 C 
HETATM   29  C   UNL     1      29.604  43.245  52.311  1.00  0.00     0.015 C 
ENDBRANCH  26  27
ENDBRANCH  19  20
ENDBRANCH  18  19
ENDBRANCH   1  18
TORSDOF 6
ENDMDL
MODEL 2
REMARK VINA RESULT:      -9.9      1.099      2.827
REMARK  6 active torsions:
REMARK  status: ('A' for Active; 'I' for Inactive)
REMARK    1  A    between atoms: C_4  and  O_5 
REMARK    2  A    between atoms: O_5  and  C_6 
REMARK    3  A    between atoms: C_6  and  C_7 
REMARK       I    between atoms: C_7  and  N_8 
REMARK    4  A    between atoms: N_8  and  N_9 
REMARK    5  A    between atoms: C_10  and  C_11 
REMARK    6  A    between atoms: C_23  and  C_24 
ROOT
HETATM    1  C   UNL     1      25.382  45.467  53.659  1.00  0.00     0.261 C 
HETATM    2  N   UNL     1      25.126  45.394  52.293  1.00  0.00    -0.246 N 
HETATM    3  O   UNL     1      25.563  46.497  54.306  1.00  0.00    -0.269 OA
HETATM    4  H   UNL     1      24.734  44.522  51.941  1.00  0.00     0.192 HD
ENDROOT
BRANCH   2   5
HETATM    5  N   UNL     1      25.044  46.448  51.408  1.00  0.00    -0.184 NA
HETATM    6  C   UNL     1      26.099  46.793  50.742  1.00  0.00     0.152 C 
BRANCH   6   7
HETATM    7  C   UNL     1      26.051  47.901  49.805  1.00  0.00     0.011 A 
HETATM    8  C   UNL     1      24.934  48.622  49.268  1.00  0.00     0.005 A 
HETATM    9  C   UNL     1      25.442  49.584  48.389  1.00  0.00     0.043 A 
HETATM   10  C   UNL     1      23.534  48.542  49.429  1.00  0.00     0.033 A 
HETATM   11  C   UNL     1      24.629  50.468  47.669  1.00  0.00     0.031 A 
HETATM   12  N   UNL     1      26.811  49.462  48.399  1.00  0.00    -0.364 N 
HETATM   13  C   UNL     1      23.247  50.365  47.844  1.00  0.00     0.021 A 
HETATM   14  C   UNL     1      22.711  49.416  48.711  1.00  0.00     0.012 A 
HETATM   15 BR   UNL     1      20.833  49.302  48.916  1.00  0.00    -0.051 Br
HETATM   16  H   UNL     1      27.442  50.037  47.857  1.00  0.00     0.165 HD
HETATM   17  C   UNL     1      27.188  48.448  49.235  1.00  0.00     0.102 A 
ENDBRANCH   6   7
ENDBRANCH   2   5
BRANCH   1  18
HETATM   18  C   UNL     1      25.540  44.094  54.303  1.00  0.00     0.280 C 
BRANCH  18  19
HETATM   19  O   UNL     1      26.681  44.034  55.153  1.00  0.00    -0.341 OA
BRANCH  19  20
HETATM   20  C   UNL     1      27.792  43.508  54.532  1.00  0.00     0.076 A 
HETATM   21  C   UNL     1      27.700  42.426  53.643  1.00  0.00     0.044 A 
HETATM   22  C   UNL     1      28.837  41.921  53.003  1.00  0.00    -0.059 A 
HETATM   23  C   UNL     1      28.728  40.802  52.011  1.00  0.00     0.048 C 
HETATM   24  C   UNL     1      30.073  42.513  53.261  1.00  0.00     0.007 A 
HETATM   25  C   UNL     1      30.177  43.570  54.169  1.00  0.00     0.011 A 
HETATM   26  C   UNL     1      29.045  44.072  54.837  1.00  0.00    -0.021 A 
BRANCH  26  27
HETATM   27  C   UNL     1      29.172  45.239  55.806  1.00  0.00     0.013 C 
HETATM   28  C   UNL     1      30.513  45.267  56.553  1.00  0.00     0.015 C 
HETATM   29  C   UNL     1      28.940  46.564  55.076  1.00  0.00     0.015 C 
ENDBRANCH  26  27
ENDBRANCH  19  20
ENDBRANCH  18  19
ENDBRANCH   1  18
TORSDOF 6
ENDMDL
MODEL 3
REMARK VINA RESULT:      -9.6      1.871      2.392
REMARK  6 active torsions:
REMARK  status: ('A' for Active; 'I' for Inactive)
REMARK    1  A    between atoms: C_4  and  O_5 
REMARK    2  A    between atoms: O_5  and  C_6 
REMARK    3  A    between atoms: C_6  and  C_7 
REMARK       I    between atoms: C_7  and  N_8 
REMARK    4  A    between atoms: N_8  and  N_9 
REMARK    5  A    between atoms: C_10  and  C_11 
REMARK    6  A    between atoms: C_23  and  C_24 
ROOT
HETATM    1  C   UNL     1      26.180  47.199  53.896  1.00  0.00     0.261 C 
HETATM    2  N   UNL     1      25.993  46.405  52.768  1.00  0.00    -0.246 N 
HETATM    3  O   UNL     1      25.465  48.135  54.247  1.00  0.00    -0.269 OA
HETATM    4  H   UNL     1      26.487  45.514  52.742  1.00  0.00     0.192 HD
ENDROOT
BRANCH   2   5
HETATM    5  N   UNL     1      24.991  46.523  51.829  1.00  0.00    -0.184 NA
HETATM    6  C   UNL     1      24.986  45.723  50.812  1.00  0.00     0.152 C 
BRANCH   6   7
HETATM    7  C   UNL     1      23.949  45.822  49.801  1.00  0.00     0.011 A 
HETATM    8  C   UNL     1      23.346  46.971  49.190  1.00  0.00     0.005 A 
HETATM    9  C   UNL     1      22.380  46.508  48.290  1.00  0.00     0.043 A 
HETATM   10  C   UNL     1      23.514  48.367  49.324  1.00  0.00     0.033 A 
HETATM   11  C   UNL     1      21.581  47.361  47.520  1.00  0.00     0.031 A 
HETATM   12  N   UNL     1      22.402  45.135  48.342  1.00  0.00    -0.364 N 
HETATM   13  C   UNL     1      21.764  48.737  47.675  1.00  0.00     0.021 A 
HETATM   14  C   UNL     1      22.718  49.229  48.564  1.00  0.00     0.012 A 
HETATM   15 BR   UNL     1      22.932  51.100  48.752  1.00  0.00    -0.051 Br
HETATM   16  H   UNL     1      21.809  44.531  47.789  1.00  0.00     0.165 HD
HETATM   17  C   UNL     1      23.329  44.712  49.253  1.00  0.00     0.102 A 
ENDBRANCH   6   7
ENDBRANCH   2   5
BRANCH   1  18
HETATM   18  C   UNL     1      27.472  46.873  54.638  1.00  0.00     0.280 C 
BRANCH  18  19
HETATM   19  O   UNL     1      27.951  45.570  54.325  1.00  0.00    -0.341 OA
BRANCH  19  20
HETATM   20  C   UNL     1      28.963  45.150  55.160  1.00  0.00     0.076 A 
HETATM   21  C   UNL     1      29.348  45.891  56.288  1.00  0.00     0.044 A 
HETATM   22  C   UNL     1      30.363  45.437  57.137  1.00  0.00    -0.059 A 
HETATM   23  C   UNL     1      30.733  46.203  58.371  1.00  0.00     0.048 C 
HETATM   24  C   UNL     1      30.990  44.225  56.847  1.00  0.00     0.007 A 
HETATM   25  C   UNL     1      30.634  43.498  55.709  1.00  0.00     0.011 A 
HETATM   26  C   UNL     1      29.632  43.955  54.834  1.00  0.00    -0.021 A 
BRANCH  26  27
HETATM   27  C   UNL     1      29.241  43.138  53.610  1.00  0.00     0.013 C 
HETATM   28  C   UNL     1      30.433  42.451  52.931  1.00  0.00     0.015 C 
HETATM   29  C   UNL     1      28.170  42.108  53.980  1.00  0.00     0.015 C 
ENDBRANCH  26  27
ENDBRANCH  19  20
ENDBRANCH  18  19
ENDBRANCH   1  18
TORSDOF 6
ENDMDL
MODEL 4
REMARK VINA RESULT:      -9.4      3.804     10.412
REMARK  6 active torsions:
REMARK  status: ('A' for Active; 'I' for Inactive)
REMARK    1  A    between atoms: C_4  and  O_5 
REMARK    2  A    between atoms: O_5  and  C_6 
REMARK    3  A    between atoms: C_6  and  C_7 
REMARK       I    between atoms: C_7  and  N_8 
REMARK    4  A    between atoms: N_8  and  N_9 
REMARK    5  A    between atoms: C_10  and  C_11 
REMARK    6  A    between atoms: C_23  and  C_24 
ROOT
HETATM    1  C   UNL     1      23.885  48.189  49.547  1.00  0.00     0.261 C 
HETATM    2  N   UNL     1      24.406  47.243  50.424  1.00  0.00    -0.246 N 
HETATM    3  O   UNL     1      24.091  49.401  49.585  1.00  0.00    -0.269 OA
HETATM    4  H   UNL     1      24.378  46.269  50.125  1.00  0.00     0.192 HD
ENDROOT
BRANCH   2   5
HETATM    5  N   UNL     1      25.231  47.479  51.503  1.00  0.00    -0.184 NA
HETATM    6  C   UNL     1      25.326  46.581  52.429  1.00  0.00     0.152 C 
BRANCH   6   7
HETATM    7  C   UNL     1      26.181  46.797  53.582  1.00  0.00     0.011 A 
HETATM    8  C   UNL     1      27.292  46.037  54.078  1.00  0.00     0.005 A 
HETATM    9  C   UNL     1      27.750  46.673  55.236  1.00  0.00     0.043 A 
HETATM   10  C   UNL     1      27.946  44.856  53.666  1.00  0.00     0.033 A 
HETATM   11  C   UNL     1      28.824  46.196  55.997  1.00  0.00     0.031 A 
HETATM   12  N   UNL     1      26.961  47.782  55.431  1.00  0.00    -0.364 N 
HETATM   13  C   UNL     1      29.451  45.024  55.569  1.00  0.00     0.021 A 
HETATM   14  C   UNL     1      29.017  44.367  54.421  1.00  0.00     0.012 A 
HETATM   15 BR   UNL     1      29.886  42.776  53.877  1.00  0.00    -0.051 Br
HETATM   16  H   UNL     1      27.069  48.436  56.194  1.00  0.00     0.165 HD
HETATM   17  C   UNL     1      26.008  47.860  54.453  1.00  0.00     0.102 A 
ENDBRANCH   6   7
ENDBRANCH   2   5
BRANCH   1  18
HETATM   18  C   UNL     1      22.897  47.590  48.552  1.00  0.00     0.280 C 
BRANCH  18  19
HETATM   19  O   UNL     1      22.087  48.588  47.939  1.00  0.00    -0.341 OA
BRANCH  19  20
HETATM   20  C   UNL     1      20.742  48.421  48.187  1.00  0.00     0.076 A 
HETATM   21  C   UNL     1      20.094  47.197  47.960  1.00  0.00     0.044 A 
HETATM   22  C   UNL     1      18.732  47.040  48.240  1.00  0.00    -0.059 A 
HETATM   23  C   UNL     1      18.055  45.716  48.050  1.00  0.00     0.048 C 
HETATM   24  C   UNL     1      18.022  48.125  48.754  1.00  0.00     0.007 A 
HETATM   25  C   UNL     1      18.653  49.355  48.952  1.00  0.00     0.011 A 
HETATM   26  C   UNL     1      20.016  49.533  48.653  1.00  0.00    -0.021 A 
BRANCH  26  27
HETATM   27  C   UNL     1      20.694  50.875  48.896  1.00  0.00     0.013 C 
HETATM   28  C   UNL     1      19.836  52.075  48.473  1.00  0.00     0.015 C 
HETATM   29  C   UNL     1      21.104  51.004  50.365  1.00  0.00     0.015 C 
ENDBRANCH  26  27
ENDBRANCH  19  20
ENDBRANCH  18  19
ENDBRANCH   1  18
TORSDOF 6
ENDMDL
MODEL 5
REMARK VINA RESULT:      -9.3      1.490      2.308
REMARK  6 active torsions:
REMARK  status: ('A' for Active; 'I' for Inactive)
REMARK    1  A    between atoms: C_4  and  O_5 
REMARK    2  A    between atoms: O_5  and  C_6 
REMARK    3  A    between atoms: C_6  and  C_7 
REMARK       I    between atoms: C_7  and  N_8 
REMARK    4  A    between atoms: N_8  and  N_9 
REMARK    5  A    between atoms: C_10  and  C_11 
REMARK    6  A    between atoms: C_23  and  C_24 
ROOT
HETATM    1  C   UNL     1      25.540  44.644  51.779  1.00  0.00     0.261 C 
HETATM    2  N   UNL     1      26.270  45.298  50.791  1.00  0.00    -0.246 N 
HETATM    3  O   UNL     1      24.348  44.816  52.030  1.00  0.00    -0.269 OA
HETATM    4  H   UNL     1      27.155  44.877  50.514  1.00  0.00     0.192 HD
ENDROOT
BRANCH   2   5
HETATM    5  N   UNL     1      25.809  46.267  49.924  1.00  0.00    -0.184 NA
HETATM    6  C   UNL     1      26.050  47.510  50.187  1.00  0.00     0.152 C 
BRANCH   6   7
HETATM    7  C   UNL     1      25.576  48.557  49.299  1.00  0.00     0.011 A 
HETATM    8  C   UNL     1      24.242  48.966  48.966  1.00  0.00     0.005 A 
HETATM    9  C   UNL     1      24.344  50.012  48.043  1.00  0.00     0.043 A 
HETATM   10  C   UNL     1      22.951  48.538  49.346  1.00  0.00     0.033 A 
HETATM   11  C   UNL     1      23.230  50.652  47.486  1.00  0.00     0.031 A 
HETATM   12  N   UNL     1      25.683  50.239  47.832  1.00  0.00    -0.364 N 
HETATM   13  C   UNL     1      21.965  50.207  47.875  1.00  0.00     0.021 A 
HETATM   14  C   UNL     1      21.831  49.166  48.792  1.00  0.00     0.012 A 
HETATM   15 BR   UNL     1      20.100  48.586  49.289  1.00  0.00    -0.051 Br
HETATM   16  H   UNL     1      26.054  50.946  47.213  1.00  0.00     0.165 HD
HETATM   17  C   UNL     1      26.431  49.364  48.570  1.00  0.00     0.102 A 
ENDBRANCH   6   7
ENDBRANCH   2   5
BRANCH   1  18
HETATM   18  C   UNL     1      26.404  43.733  52.644  1.00  0.00     0.280 C 
BRANCH  18  19
HETATM   19  O   UNL     1      27.739  44.214  52.756  1.00  0.00    -0.341 OA
BRANCH  19  20
HETATM   20  C   UNL     1      27.937  45.011  53.861  1.00  0.00     0.076 A 
HETATM   21  C   UNL     1      27.166  46.160  54.094  1.00  0.00     0.044 A 
HETATM   22  C   UNL     1      27.366  46.943  55.235  1.00  0.00    -0.059 A 
HETATM   23  C   UNL     1      26.503  48.138  55.509  1.00  0.00     0.048 C 
HETATM   24  C   UNL     1      28.350  46.563  56.149  1.00  0.00     0.007 A 
HETATM   25  C   UNL     1      29.143  45.438  55.908  1.00  0.00     0.011 A 
HETATM   26  C   UNL     1      28.968  44.655  54.753  1.00  0.00    -0.021 A 
BRANCH  26  27
HETATM   27  C   UNL     1      29.826  43.420  54.517  1.00  0.00     0.013 C 
HETATM   28  C   UNL     1      30.919  43.227  55.577  1.00  0.00     0.015 C 
HETATM   29  C   UNL     1      28.945  42.171  54.426  1.00  0.00     0.015 C 
ENDBRANCH  26  27
ENDBRANCH  19  20
ENDBRANCH  18  19
ENDBRANCH   1  18
TORSDOF 6
ENDMDL
MODEL 6
REMARK VINA RESULT:      -9.2      1.917      3.451
REMARK  6 active torsions:
REMARK  status: ('A' for Active; 'I' for Inactive)
REMARK    1  A    between atoms: C_4  and  O_5 
REMARK    2  A    between atoms: O_5  and  C_6 
REMARK    3  A    between atoms: C_6  and  C_7 
REMARK       I    between atoms: C_7  and  N_8 
REMARK    4  A    between atoms: N_8  and  N_9 
REMARK    5  A    between atoms: C_10  and  C_11 
REMARK    6  A    between atoms: C_23  and  C_24 
ROOT
HETATM    1  C   UNL     1      26.446  47.477  53.869  1.00  0.00     0.261 C 
HETATM    2  N   UNL     1      26.460  46.931  52.589  1.00  0.00    -0.246 N 
HETATM    3  O   UNL     1      25.511  48.088  54.384  1.00  0.00    -0.269 OA
HETATM    4  H   UNL     1      27.175  46.232  52.392  1.00  0.00     0.192 HD
ENDROOT
BRANCH   2   5
HETATM    5  N   UNL     1      25.446  46.981  51.656  1.00  0.00    -0.184 NA
HETATM    6  C   UNL     1      25.197  45.931  50.942  1.00  0.00     0.152 C 
BRANCH   6   7
HETATM    7  C   UNL     1      24.141  45.950  49.946  1.00  0.00     0.011 A 
HETATM    8  C   UNL     1      23.485  47.049  49.300  1.00  0.00     0.005 A 
HETATM    9  C   UNL     1      22.523  46.514  48.438  1.00  0.00     0.043 A 
HETATM   10  C   UNL     1      23.601  48.454  49.376  1.00  0.00     0.033 A 
HETATM   11  C   UNL     1      21.679  47.304  47.648  1.00  0.00     0.031 A 
HETATM   12  N   UNL     1      22.599  45.145  48.544  1.00  0.00    -0.364 N 
HETATM   13  C   UNL     1      21.812  48.691  47.745  1.00  0.00     0.021 A 
HETATM   14  C   UNL     1      22.760  49.254  48.596  1.00  0.00     0.012 A 
HETATM   15 BR   UNL     1      22.905  51.138  48.706  1.00  0.00    -0.051 Br
HETATM   16  H   UNL     1      22.020  44.498  48.026  1.00  0.00     0.165 HD
HETATM   17  C   UNL     1      23.556  44.795  49.454  1.00  0.00     0.102 A 
ENDBRANCH   6   7
ENDBRANCH   2   5
BRANCH   1  18
HETATM   18  C   UNL     1      27.790  47.353  54.578  1.00  0.00     0.280 C 
BRANCH  18  19
HETATM   19  O   UNL     1      27.787  46.308  55.545  1.00  0.00    -0.341 OA
BRANCH  19  20
HETATM   20  C   UNL     1      28.667  45.291  55.247  1.00  0.00     0.076 A 
HETATM   21  C   UNL     1      28.504  44.479  54.115  1.00  0.00     0.044 A 
HETATM   22  C   UNL     1      29.422  43.466  53.816  1.00  0.00    -0.059 A 
HETATM   23  C   UNL     1      29.275  42.637  52.575  1.00  0.00     0.048 C 
HETATM   24  C   UNL     1      30.512  43.275  54.664  1.00  0.00     0.007 A 
HETATM   25  C   UNL     1      30.664  44.059  55.811  1.00  0.00     0.011 A 
HETATM   26  C   UNL     1      29.736  45.064  56.135  1.00  0.00    -0.021 A 
BRANCH  26  27
HETATM   27  C   UNL     1      29.929  45.925  57.377  1.00  0.00     0.013 C 
HETATM   28  C   UNL     1      28.618  46.224  58.119  1.00  0.00     0.015 C 
HETATM   29  C   UNL     1      30.941  45.274  58.322  1.00  0.00     0.015 C 
ENDBRANCH  26  27
ENDBRANCH  19  20
ENDBRANCH  18  19
ENDBRANCH   1  18
TORSDOF 6
ENDMDL
MODEL 7
REMARK VINA RESULT:      -9.2      5.209      7.951
REMARK  6 active torsions:
REMARK  status: ('A' for Active; 'I' for Inactive)
REMARK    1  A    between atoms: C_4  and  O_5 
REMARK    2  A    between atoms: O_5  and  C_6 
REMARK    3  A    between atoms: C_6  and  C_7 
REMARK       I    between atoms: C_7  and  N_8 
REMARK    4  A    between atoms: N_8  and  N_9 
REMARK    5  A    between atoms: C_10  and  C_11 
REMARK    6  A    between atoms: C_23  and  C_24 
ROOT
HETATM    1  C   UNL     1      26.389  43.110  51.210  1.00  0.00     0.261 C 
HETATM    2  N   UNL     1      26.237  41.749  51.456  1.00  0.00    -0.246 N 
HETATM    3  O   UNL     1      26.926  43.611  50.224  1.00  0.00    -0.269 OA
HETATM    4  H   UNL     1      25.550  41.479  52.158  1.00  0.00     0.192 HD
ENDROOT
BRANCH   2   5
HETATM    5  N   UNL     1      26.668  40.710  50.659  1.00  0.00    -0.184 NA
HETATM    6  C   UNL     1      27.934  40.448  50.599  1.00  0.00     0.152 C 
BRANCH   6   7
HETATM    7  C   UNL     1      28.424  39.365  49.766  1.00  0.00     0.011 A 
HETATM    8  C   UNL     1      28.274  39.126  48.360  1.00  0.00     0.005 A 
HETATM    9  C   UNL     1      28.926  37.923  48.068  1.00  0.00     0.043 A 
HETATM   10  C   UNL     1      27.631  39.806  47.303  1.00  0.00     0.033 A 
HETATM   11  C   UNL     1      28.972  37.369  46.783  1.00  0.00     0.031 A 
HETATM   12  N   UNL     1      29.461  37.455  49.245  1.00  0.00    -0.364 N 
HETATM   13  C   UNL     1      28.325  38.061  45.756  1.00  0.00     0.021 A 
HETATM   14  C   UNL     1      27.666  39.260  46.015  1.00  0.00     0.012 A 
HETATM   15 BR   UNL     1      26.794  40.164  44.600  1.00  0.00    -0.051 Br
HETATM   16  H   UNL     1      29.995  36.601  49.332  1.00  0.00     0.165 HD
HETATM   17  C   UNL     1      29.156  38.304  50.272  1.00  0.00     0.102 A 
ENDBRANCH   6   7
ENDBRANCH   2   5
BRANCH   1  18
HETATM   18  C   UNL     1      25.915  43.976  52.373  1.00  0.00     0.280 C 
BRANCH  18  19
HETATM   19  O   UNL     1      26.568  43.634  53.591  1.00  0.00    -0.341 OA
BRANCH  19  20
HETATM   20  C   UNL     1      27.190  44.707  54.192  1.00  0.00     0.076 A 
HETATM   21  C   UNL     1      26.522  45.922  54.409  1.00  0.00     0.044 A 
HETATM   22  C   UNL     1      27.163  46.993  55.042  1.00  0.00    -0.059 A 
HETATM   23  C   UNL     1      26.430  48.271  55.322  1.00  0.00     0.048 C 
HETATM   24  C   UNL     1      28.484  46.834  55.461  1.00  0.00     0.007 A 
HETATM   25  C   UNL     1      29.164  45.638  55.220  1.00  0.00     0.011 A 
HETATM   26  C   UNL     1      28.540  44.562  54.563  1.00  0.00    -0.021 A 
BRANCH  26  27
HETATM   27  C   UNL     1      29.289  43.257  54.329  1.00  0.00     0.013 C 
HETATM   28  C   UNL     1      29.776  43.087  52.883  1.00  0.00     0.015 C 
HETATM   29  C   UNL     1      30.462  43.136  55.305  1.00  0.00     0.015 C 
ENDBRANCH  26  27
ENDBRANCH  19  20
ENDBRANCH  18  19
ENDBRANCH   1  18
TORSDOF 6
ENDMDL
MODEL 8
REMARK VINA RESULT:      -9.2      2.538      2.984
REMARK  6 active torsions:
REMARK  status: ('A' for Active; 'I' for Inactive)
REMARK    1  A    between atoms: C_4  and  O_5 
REMARK    2  A    between atoms: O_5  and  C_6 
REMARK    3  A    between atoms: C_6  and  C_7 
REMARK       I    between atoms: C_7  and  N_8 
REMARK    4  A    between atoms: N_8  and  N_9 
REMARK    5  A    between atoms: C_10  and  C_11 
REMARK    6  A    between atoms: C_23  and  C_24 
ROOT
HETATM    1  C   UNL     1      26.192  47.084  54.185  1.00  0.00     0.261 C 
HETATM    2  N   UNL     1      26.001  46.154  53.167  1.00  0.00    -0.246 N 
HETATM    3  O   UNL     1      25.519  48.095  54.376  1.00  0.00    -0.269 OA
HETATM    4  H   UNL     1      26.443  45.244  53.281  1.00  0.00     0.192 HD
ENDROOT
BRANCH   2   5
HETATM    5  N   UNL     1      25.041  46.195  52.177  1.00  0.00    -0.184 NA
HETATM    6  C   UNL     1      25.267  46.893  51.112  1.00  0.00     0.152 C 
BRANCH   6   7
HETATM    7  C   UNL     1      24.277  46.963  50.052  1.00  0.00     0.011 A 
HETATM    8  C   UNL     1      23.639  45.922  49.300  1.00  0.00     0.005 A 
HETATM    9  C   UNL     1      22.780  46.536  48.382  1.00  0.00     0.043 A 
HETATM   10  C   UNL     1      23.719  44.513  49.294  1.00  0.00     0.033 A 
HETATM   11  C   UNL     1      21.999  45.820  47.468  1.00  0.00     0.031 A 
HETATM   12  N   UNL     1      22.881  47.893  48.576  1.00  0.00    -0.364 N 
HETATM   13  C   UNL     1      22.099  44.427  47.481  1.00  0.00     0.021 A 
HETATM   14  C   UNL     1      22.947  43.786  48.382  1.00  0.00     0.012 A 
HETATM   15 BR   UNL     1      23.063  41.897  48.365  1.00  0.00    -0.051 Br
HETATM   16  H   UNL     1      22.364  48.587  48.053  1.00  0.00     0.165 HD
HETATM   17  C   UNL     1      23.785  48.162  49.566  1.00  0.00     0.102 A 
ENDBRANCH   6   7
ENDBRANCH   2   5
BRANCH   1  18
HETATM   18  C   UNL     1      27.436  46.796  55.019  1.00  0.00     0.280 C 
BRANCH  18  19
HETATM   19  O   UNL     1      28.315  45.886  54.367  1.00  0.00    -0.341 OA
BRANCH  19  20
HETATM   20  C   UNL     1      29.199  45.276  55.229  1.00  0.00     0.076 A 
HETATM   21  C   UNL     1      29.656  45.911  56.394  1.00  0.00     0.044 A 
HETATM   22  C   UNL     1      30.536  45.266  57.269  1.00  0.00    -0.059 A 
HETATM   23  C   UNL     1      30.978  45.926  58.541  1.00  0.00     0.048 C 
HETATM   24  C   UNL     1      30.955  43.970  56.968  1.00  0.00     0.007 A 
HETATM   25  C   UNL     1      30.529  43.343  55.794  1.00  0.00     0.011 A 
HETATM   26  C   UNL     1      29.664  43.989  54.894  1.00  0.00    -0.021 A 
BRANCH  26  27
HETATM   27  C   UNL     1      29.192  43.283  53.630  1.00  0.00     0.013 C 
HETATM   28  C   UNL     1      30.305  42.501  52.918  1.00  0.00     0.015 C 
HETATM   29  C   UNL     1      28.011  42.361  53.947  1.00  0.00     0.015 C 
ENDBRANCH  26  27
ENDBRANCH  19  20
ENDBRANCH  18  19
ENDBRANCH   1  18
TORSDOF 6
ENDMDL
MODEL 9
REMARK VINA RESULT:      -9.1      2.440      3.706
REMARK  6 active torsions:
REMARK  status: ('A' for Active; 'I' for Inactive)
REMARK    1  A    between atoms: C_4  and  O_5 
REMARK    2  A    between atoms: O_5  and  C_6 
REMARK    3  A    between atoms: C_6  and  C_7 
REMARK       I    between atoms: C_7  and  N_8 
REMARK    4  A    between atoms: N_8  and  N_9 
REMARK    5  A    between atoms: C_10  and  C_11 
REMARK    6  A    between atoms: C_23  and  C_24 
ROOT
HETATM    1  C   UNL     1      27.079  42.641  52.158  1.00  0.00     0.261 C 
HETATM    2  N   UNL     1      26.244  43.753  52.110  1.00  0.00    -0.246 N 
HETATM    3  O   UNL     1      26.973  41.627  51.470  1.00  0.00    -0.269 OA
HETATM    4  H   UNL     1      26.596  44.614  52.527  1.00  0.00     0.192 HD
ENDROOT
BRANCH   2   5
HETATM    5  N   UNL     1      25.139  43.926  51.304  1.00  0.00    -0.184 NA
HETATM    6  C   UNL     1      25.062  44.983  50.562  1.00  0.00     0.152 C 
BRANCH   6   7
HETATM    7  C   UNL     1      23.911  45.200  49.705  1.00  0.00     0.011 A 
HETATM    8  C   UNL     1      23.370  46.410  49.156  1.00  0.00     0.005 A 
HETATM    9  C   UNL     1      22.237  46.062  48.413  1.00  0.00     0.043 A 
HETATM   10  C   UNL     1      23.722  47.775  49.229  1.00  0.00     0.033 A 
HETATM   11  C   UNL     1      21.445  47.000  47.741  1.00  0.00     0.031 A 
HETATM   12  N   UNL     1      22.101  44.696  48.496  1.00  0.00    -0.364 N 
HETATM   13  C   UNL     1      21.812  48.344  47.834  1.00  0.00     0.021 A 
HETATM   14  C   UNL     1      22.935  48.722  48.567  1.00  0.00     0.012 A 
HETATM   15 BR   UNL     1      23.397  50.554  48.677  1.00  0.00    -0.051 Br
HETATM   16  H   UNL     1      21.366  44.166  48.047  1.00  0.00     0.165 HD
HETATM   17  C   UNL     1      23.091  44.170  49.278  1.00  0.00     0.102 A 
ENDBRANCH   6   7
ENDBRANCH   2   5
BRANCH   1  18
HETATM   18  C   UNL     1      28.123  42.734  53.266  1.00  0.00     0.280 C 
BRANCH  18  19
HETATM   19  O   UNL     1      28.809  43.981  53.248  1.00  0.00    -0.341 OA
BRANCH  19  20
HETATM   20  C   UNL     1      29.303  44.346  54.480  1.00  0.00     0.076 A 
HETATM   21  C   UNL     1      30.294  43.595  55.132  1.00  0.00     0.044 A 
HETATM   22  C   UNL     1      30.800  43.995  56.374  1.00  0.00    -0.059 A 
HETATM   23  C   UNL     1      31.898  43.222  57.041  1.00  0.00     0.048 C 
HETATM   24  C   UNL     1      30.305  45.160  56.959  1.00  0.00     0.007 A 
HETATM   25  C   UNL     1      29.297  45.895  56.331  1.00  0.00     0.011 A 
HETATM   26  C   UNL     1      28.762  45.492  55.094  1.00  0.00    -0.021 A 
BRANCH  26  27
HETATM   27  C   UNL     1      27.679  46.317  54.412  1.00  0.00     0.013 C 
HETATM   28  C   UNL     1      26.257  45.836  54.731  1.00  0.00     0.015 C 
HETATM   29  C   UNL     1      27.835  47.797  54.769  1.00  0.00     0.015 C 
ENDBRANCH  26  27
ENDBRANCH  19  20
ENDBRANCH  18  19
ENDBRANCH   1  18
TORSDOF 6
ENDMDL
MODEL 10
REMARK VINA RESULT:      -9.1      1.699      2.384
REMARK  6 active torsions:
REMARK  status: ('A' for Active; 'I' for Inactive)
REMARK    1  A    between atoms: C_4  and  O_5 
REMARK    2  A    between atoms: O_5  and  C_6 
REMARK    3  A    between atoms: C_6  and  C_7 
REMARK       I    between atoms: C_7  and  N_8 
REMARK    4  A    between atoms: N_8  and  N_9 
REMARK    5  A    between atoms: C_10  and  C_11 
REMARK    6  A    between atoms: C_23  and  C_24 
ROOT
HETATM    1  C   UNL     1      25.868  46.592  52.305  1.00  0.00     0.261 C 
HETATM    2  N   UNL     1      25.274  46.845  51.072  1.00  0.00    -0.246 N 
HETATM    3  O   UNL     1      25.857  47.343  53.279  1.00  0.00    -0.269 OA
HETATM    4  H   UNL     1      25.126  46.046  50.457  1.00  0.00     0.192 HD
ENDROOT
BRANCH   2   5
HETATM    5  N   UNL     1      24.581  47.979  50.702  1.00  0.00    -0.184 NA
HETATM    6  C   UNL     1      23.990  48.006  49.552  1.00  0.00     0.152 C 
BRANCH   6   7
HETATM    7  C   UNL     1      23.256  49.184  49.128  1.00  0.00     0.011 A 
HETATM    8  C   UNL     1      21.846  49.407  48.990  1.00  0.00     0.005 A 
HETATM    9  C   UNL     1      21.673  50.715  48.525  1.00  0.00     0.043 A 
HETATM   10  C   UNL     1      20.694  48.618  49.198  1.00  0.00     0.033 A 
HETATM   11  C   UNL     1      20.416  51.274  48.262  1.00  0.00     0.031 A 
HETATM   12  N   UNL     1      22.924  51.270  48.397  1.00  0.00    -0.364 N 
HETATM   13  C   UNL     1      19.293  50.471  48.473  1.00  0.00     0.021 A 
HETATM   14  C   UNL     1      19.433  49.164  48.934  1.00  0.00     0.012 A 
HETATM   15 BR   UNL     1      17.889  48.103  49.200  1.00  0.00    -0.051 Br
HETATM   16  H   UNL     1      23.103  52.214  48.083  1.00  0.00     0.165 HD
HETATM   17  C   UNL     1      23.882  50.358  48.743  1.00  0.00     0.102 A 
ENDBRANCH   6   7
ENDBRANCH   2   5
BRANCH   1  18
HETATM   18  C   UNL     1      26.670  45.296  52.318  1.00  0.00     0.280 C 
BRANCH  18  19
HETATM   19  O   UNL     1      26.560  44.615  53.564  1.00  0.00    -0.341 OA
BRANCH  19  20
HETATM   20  C   UNL     1      27.777  44.394  54.170  1.00  0.00     0.076 A 
HETATM   21  C   UNL     1      28.360  45.342  55.025  1.00  0.00     0.044 A 
HETATM   22  C   UNL     1      29.586  45.090  55.651  1.00  0.00    -0.059 A 
HETATM   23  C   UNL     1      30.179  46.081  56.608  1.00  0.00     0.048 C 
HETATM   24  C   UNL     1      30.224  43.873  55.414  1.00  0.00     0.007 A 
HETATM   25  C   UNL     1      29.665  42.938  54.540  1.00  0.00     0.011 A 
HETATM   26  C   UNL     1      28.445  43.188  53.886  1.00  0.00    -0.021 A 
BRANCH  26  27
HETATM   27  C   UNL     1      27.838  42.149  52.953  1.00  0.00     0.013 C 
HETATM   28  C   UNL     1      28.319  42.280  51.501  1.00  0.00     0.015 C 
HETATM   29  C   UNL     1      28.113  40.738  53.481  1.00  0.00     0.015 C 
ENDBRANCH  26  27
ENDBRANCH  19  20
ENDBRANCH  18  19
ENDBRANCH   1  18
TORSDOF 6
ENDMDL
