MODEL 1
REMARK VINA RESULT:     -10.1      0.000      0.000
REMARK  7 active torsions:
REMARK  status: ('A' for Active; 'I' for Inactive)
REMARK    1  A    between atoms: C_4  and  C_5 
REMARK    2  A    between atoms: C_5  and  O_6 
REMARK    3  A    between atoms: C_5  and  C_7 
REMARK    4  A    between atoms: C_9  and  C_10 
REMARK    5  A    between atoms: C_10  and  N_11 
REMARK       I    between atoms: N_11  and  C_12 
REMARK    6  A    between atoms: C_12  and  C_13 
REMARK       I    between atoms: C_13  and  N_14 
REMARK    7  A    between atoms: N_14  and  C_15 
ROOT
HETATM    1  N   UNL     1      23.472  46.719  49.653  1.00  0.00    -0.348 N 
HETATM    2  C   UNL     1      23.906  45.417  49.643  1.00  0.00     0.310 C 
HETATM    3  O   UNL     1      23.815  44.632  48.708  1.00  0.00    -0.262 OA
HETATM    4  H   UNL     1      23.512  47.210  50.544  1.00  0.00     0.163 HD
ENDROOT
BRANCH   2   5
HETATM    5  C   UNL     1      24.531  44.952  50.977  1.00  0.00     0.313 C 
HETATM    6  N   UNL     1      25.812  45.437  51.138  1.00  0.00    -0.319 N 
HETATM    7  H   UNL     1      26.137  46.018  50.368  1.00  0.00     0.169 HD
HETATM    8  O   UNL     1      23.880  44.222  51.711  1.00  0.00    -0.262 OA
BRANCH   6   9
HETATM    9  C   UNL     1      26.706  45.181  52.190  1.00  0.00     0.036 A 
HETATM   10  C   UNL     1      27.479  44.025  52.284  1.00  0.00     0.039 A 
HETATM   11  C   UNL     1      28.386  43.856  53.342  1.00  0.00    -0.028 A 
HETATM   12  C   UNL     1      28.512  44.844  54.327  1.00  0.00     0.050 A 
HETATM   13  C   UNL     1      29.161  42.579  53.483  1.00  0.00     0.050 C 
HETATM   14  N   UNL     1      29.448  44.666  55.381  1.00  0.00    -0.317 N 
HETATM   15  C   UNL     1      27.694  45.982  54.273  1.00  0.00    -0.028 A 
HETATM   16  C   UNL     1      30.427  43.677  55.349  1.00  0.00     0.224 C 
HETATM   17  C   UNL     1      29.515  45.653  56.454  1.00  0.00     0.132 C 
HETATM   18  O   UNL     1      31.258  43.522  56.246  1.00  0.00    -0.273 OA
HETATM   19  C   UNL     1      30.523  42.863  54.078  1.00  0.00     0.108 C 
HETATM   20  C   UNL     1      28.223  46.426  56.653  1.00  0.00     0.025 C 
HETATM   21  C   UNL     1      27.783  47.043  55.335  1.00  0.00     0.042 C 
HETATM   22  C   UNL     1      26.813  46.152  53.192  1.00  0.00     0.039 A 
ENDBRANCH   6   9
ENDBRANCH   2   5
BRANCH   1  23
HETATM   23  C   UNL     1      22.708  47.260  48.562  1.00  0.00     0.169 C 
BRANCH  23  24
HETATM   24  C   UNL     1      22.071  48.534  49.006  1.00  0.00     0.001 A 
HETATM   25  S   UNL     1      20.373  48.627  49.214  1.00  0.00    -0.095 SA
HETATM   26  C   UNL     1      20.441  50.279  49.677  1.00  0.00     0.017 A 
HETATM   27  C   UNL     1      21.746  50.739  49.678  1.00  0.00     0.018 A 
HETATM   28  C   UNL     1      22.682  49.737  49.296  1.00  0.00     0.017 A 
BRANCH  26  29
HETATM   29  C   UNL     1      19.170  51.014  50.008  1.00  0.00     0.198 C 
BRANCH  29  30
HETATM   30  C   UNL     1      18.362  51.397  48.797  1.00  0.00     0.016 A 
HETATM   31  S   UNL     1      16.647  51.355  48.873  1.00  0.00    -0.103 SA
HETATM   32  C   UNL     1      16.495  51.841  47.242  1.00  0.00     0.050 A 
HETATM   33  C   UNL     1      17.718  52.034  46.643  1.00  0.00     0.008 A 
HETATM   34  C   UNL     1      18.796  51.773  47.537  1.00  0.00     0.018 A 
ENDBRANCH  29  30
BRANCH  29  35
HETATM   35  O   UNL     1      18.353  50.130  50.777  1.00  0.00    -0.385 OA
HETATM   36  H   UNL     1      18.196  50.582  51.624  1.00  0.00     0.210 HD
ENDBRANCH  29  35
ENDBRANCH  26  29
ENDBRANCH  23  24
ENDBRANCH   1  23
TORSDOF 7
ENDMDL
MODEL 2
REMARK VINA RESULT:     -10.0      1.466      1.885
REMARK  7 active torsions:
REMARK  status: ('A' for Active; 'I' for Inactive)
REMARK    1  A    between atoms: C_4  and  C_5 
REMARK    2  A    between atoms: C_5  and  O_6 
REMARK    3  A    between atoms: C_5  and  C_7 
REMARK    4  A    between atoms: C_9  and  C_10 
REMARK    5  A    between atoms: C_10  and  N_11 
REMARK       I    between atoms: N_11  and  C_12 
REMARK    6  A    between atoms: C_12  and  C_13 
REMARK       I    between atoms: C_13  and  N_14 
REMARK    7  A    between atoms: N_14  and  C_15 
ROOT
HETATM    1  N   UNL     1      23.523  45.193  49.678  1.00  0.00    -0.348 N 
HETATM    2  C   UNL     1      24.676  44.460  49.809  1.00  0.00     0.310 C 
HETATM    3  O   UNL     1      25.300  43.927  48.901  1.00  0.00    -0.262 OA
HETATM    4  H   UNL     1      23.057  45.474  50.537  1.00  0.00     0.163 HD
ENDROOT
BRANCH   2   5
HETATM    5  C   UNL     1      25.160  44.304  51.268  1.00  0.00     0.313 C 
HETATM    6  N   UNL     1      26.435  44.801  51.438  1.00  0.00    -0.319 N 
HETATM    7  H   UNL     1      26.848  45.189  50.592  1.00  0.00     0.169 HD
HETATM    8  O   UNL     1      24.421  43.767  52.080  1.00  0.00    -0.262 OA
BRANCH   6   9
HETATM    9  C   UNL     1      27.219  44.783  52.602  1.00  0.00     0.036 A 
HETATM   10  C   UNL     1      28.114  43.761  52.916  1.00  0.00     0.039 A 
HETATM   11  C   UNL     1      28.900  43.831  54.078  1.00  0.00    -0.028 A 
HETATM   12  C   UNL     1      28.781  44.925  54.945  1.00  0.00     0.050 A 
HETATM   13  C   UNL     1      29.805  42.695  54.453  1.00  0.00     0.050 C 
HETATM   14  N   UNL     1      29.597  44.990  56.105  1.00  0.00    -0.317 N 
HETATM   15  C   UNL     1      27.840  45.927  54.667  1.00  0.00    -0.028 A 
HETATM   16  C   UNL     1      30.688  44.147  56.297  1.00  0.00     0.224 C 
HETATM   17  C   UNL     1      29.410  46.084  57.053  1.00  0.00     0.132 C 
HETATM   18  O   UNL     1      31.417  44.204  57.290  1.00  0.00    -0.273 OA
HETATM   19  C   UNL     1      31.039  43.225  55.150  1.00  0.00     0.108 C 
HETATM   20  C   UNL     1      28.016  46.688  57.019  1.00  0.00     0.025 C 
HETATM   21  C   UNL     1      27.666  47.096  55.597  1.00  0.00     0.042 C 
HETATM   22  C   UNL     1      27.082  45.859  53.486  1.00  0.00     0.039 A 
ENDBRANCH   6   9
ENDBRANCH   2   5
BRANCH   1  23
HETATM   23  C   UNL     1      22.837  45.288  48.417  1.00  0.00     0.169 C 
BRANCH  23  24
HETATM   24  C   UNL     1      22.245  46.651  48.293  1.00  0.00     0.001 A 
HETATM   25  S   UNL     1      22.904  47.965  49.173  1.00  0.00    -0.095 SA
HETATM   26  C   UNL     1      21.748  49.069  48.544  1.00  0.00     0.017 A 
HETATM   27  C   UNL     1      20.884  48.434  47.670  1.00  0.00     0.018 A 
HETATM   28  C   UNL     1      21.171  47.048  47.524  1.00  0.00     0.017 A 
BRANCH  26  29
HETATM   29  C   UNL     1      21.782  50.511  48.976  1.00  0.00     0.198 C 
BRANCH  29  30
HETATM   30  C   UNL     1      20.417  51.130  49.113  1.00  0.00     0.016 A 
HETATM   31  S   UNL     1      19.319  50.514  50.281  1.00  0.00    -0.103 SA
HETATM   32  C   UNL     1      18.102  51.622  49.822  1.00  0.00     0.050 A 
HETATM   33  C   UNL     1      18.513  52.449  48.802  1.00  0.00     0.008 A 
HETATM   34  C   UNL     1      19.846  52.162  48.389  1.00  0.00     0.018 A 
ENDBRANCH  29  30
BRANCH  29  35
HETATM   35  O   UNL     1      22.379  50.554  50.274  1.00  0.00    -0.385 OA
HETATM   36  H   UNL     1      21.792  51.106  50.818  1.00  0.00     0.210 HD
ENDBRANCH  29  35
ENDBRANCH  26  29
ENDBRANCH  23  24
ENDBRANCH   1  23
TORSDOF 7
ENDMDL
MODEL 3
REMARK VINA RESULT:     -10.0      1.554      2.889
REMARK  7 active torsions:
REMARK  status: ('A' for Active; 'I' for Inactive)
REMARK    1  A    between atoms: C_4  and  C_5 
REMARK    2  A    between atoms: C_5  and  O_6 
REMARK    3  A    between atoms: C_5  and  C_7 
REMARK    4  A    between atoms: C_9  and  C_10 
REMARK    5  A    between atoms: C_10  and  N_11 
REMARK       I    between atoms: N_11  and  C_12 
REMARK    6  A    between atoms: C_12  and  C_13 
REMARK       I    between atoms: C_13  and  N_14 
REMARK    7  A    between atoms: N_14  and  C_15 
ROOT
HETATM    1  N   UNL     1      23.673  44.918  48.559  1.00  0.00    -0.348 N 
HETATM    2  C   UNL     1      23.813  44.421  49.831  1.00  0.00     0.310 C 
HETATM    3  O   UNL     1      22.943  43.867  50.490  1.00  0.00    -0.262 OA
HETATM    4  H   UNL     1      24.453  45.456  48.188  1.00  0.00     0.163 HD
ENDROOT
BRANCH   2   5
HETATM    5  C   UNL     1      25.215  44.643  50.443  1.00  0.00     0.313 C 
HETATM    6  N   UNL     1      25.228  44.382  51.797  1.00  0.00    -0.319 N 
HETATM    7  H   UNL     1      24.330  44.086  52.173  1.00  0.00     0.169 HD
HETATM    8  O   UNL     1      26.120  45.028  49.718  1.00  0.00    -0.262 OA
BRANCH   6   9
HETATM    9  C   UNL     1      26.299  44.526  52.693  1.00  0.00     0.036 A 
HETATM   10  C   UNL     1      26.482  45.644  53.505  1.00  0.00     0.039 A 
HETATM   11  C   UNL     1      27.554  45.701  54.411  1.00  0.00    -0.028 A 
HETATM   12  C   UNL     1      28.462  44.639  54.497  1.00  0.00     0.050 A 
HETATM   13  C   UNL     1      27.793  46.936  55.229  1.00  0.00     0.050 C 
HETATM   14  N   UNL     1      29.529  44.703  55.433  1.00  0.00    -0.317 N 
HETATM   15  C   UNL     1      28.319  43.537  53.641  1.00  0.00    -0.028 A 
HETATM   16  C   UNL     1      29.575  45.658  56.445  1.00  0.00     0.224 C 
HETATM   17  C   UNL     1      30.524  43.637  55.459  1.00  0.00     0.132 C 
HETATM   18  O   UNL     1      30.484  45.715  57.276  1.00  0.00    -0.273 OA
HETATM   19  C   UNL     1      28.369  46.561  56.577  1.00  0.00     0.108 C 
HETATM   20  C   UNL     1      30.661  42.896  54.139  1.00  0.00     0.025 C 
HETATM   21  C   UNL     1      29.299  42.396  53.686  1.00  0.00     0.042 C 
HETATM   22  C   UNL     1      27.226  43.480  52.760  1.00  0.00     0.039 A 
ENDBRANCH   6   9
ENDBRANCH   2   5
BRANCH   1  23
HETATM   23  C   UNL     1      22.391  44.958  47.910  1.00  0.00     0.169 C 
BRANCH  23  24
HETATM   24  C   UNL     1      21.886  46.362  47.927  1.00  0.00     0.001 A 
HETATM   25  S   UNL     1      22.711  47.567  48.822  1.00  0.00    -0.095 SA
HETATM   26  C   UNL     1      21.583  48.782  48.375  1.00  0.00     0.017 A 
HETATM   27  C   UNL     1      20.602  48.266  47.547  1.00  0.00     0.018 A 
HETATM   28  C   UNL     1      20.778  46.877  47.288  1.00  0.00     0.017 A 
BRANCH  26  29
HETATM   29  C   UNL     1      21.754  50.186  48.892  1.00  0.00     0.198 C 
BRANCH  29  30
HETATM   30  C   UNL     1      20.455  50.921  49.080  1.00  0.00     0.016 A 
HETATM   31  S   UNL     1      19.336  50.377  50.264  1.00  0.00    -0.103 SA
HETATM   32  C   UNL     1      18.213  51.601  49.864  1.00  0.00     0.050 A 
HETATM   33  C   UNL     1      18.671  52.413  48.852  1.00  0.00     0.008 A 
HETATM   34  C   UNL     1      19.961  52.019  48.396  1.00  0.00     0.018 A 
ENDBRANCH  29  30
BRANCH  29  35
HETATM   35  O   UNL     1      22.360  50.095  50.183  1.00  0.00    -0.385 OA
HETATM   36  H   UNL     1      21.646  49.848  50.794  1.00  0.00     0.210 HD
ENDBRANCH  29  35
ENDBRANCH  26  29
ENDBRANCH  23  24
ENDBRANCH   1  23
TORSDOF 7
ENDMDL
MODEL 4
REMARK VINA RESULT:      -9.7      1.105      2.304
REMARK  7 active torsions:
REMARK  status: ('A' for Active; 'I' for Inactive)
REMARK    1  A    between atoms: C_4  and  C_5 
REMARK    2  A    between atoms: C_5  and  O_6 
REMARK    3  A    between atoms: C_5  and  C_7 
REMARK    4  A    between atoms: C_9  and  C_10 
REMARK    5  A    between atoms: C_10  and  N_11 
REMARK       I    between atoms: N_11  and  C_12 
REMARK    6  A    between atoms: C_12  and  C_13 
REMARK       I    between atoms: C_13  and  N_14 
REMARK    7  A    between atoms: N_14  and  C_15 
ROOT
HETATM    1  N   UNL     1      23.627  47.661  48.966  1.00  0.00    -0.348 N 
HETATM    2  C   UNL     1      23.972  46.542  49.683  1.00  0.00     0.310 C 
HETATM    3  O   UNL     1      23.404  45.458  49.647  1.00  0.00    -0.262 OA
HETATM    4  H   UNL     1      24.123  48.520  49.190  1.00  0.00     0.163 HD
ENDROOT
BRANCH   2   5
HETATM    5  C   UNL     1      25.178  46.745  50.626  1.00  0.00     0.313 C 
HETATM    6  N   UNL     1      25.494  45.589  51.308  1.00  0.00    -0.319 N 
HETATM    7  H   UNL     1      24.895  44.797  51.084  1.00  0.00     0.169 HD
HETATM    8  O   UNL     1      25.694  47.851  50.692  1.00  0.00    -0.262 OA
BRANCH   6   9
HETATM    9  C   UNL     1      26.486  45.407  52.285  1.00  0.00     0.036 A 
HETATM   10  C   UNL     1      26.725  46.309  53.320  1.00  0.00     0.039 A 
HETATM   11  C   UNL     1      27.706  46.041  54.289  1.00  0.00    -0.028 A 
HETATM   12  C   UNL     1      28.467  44.868  54.216  1.00  0.00     0.050 A 
HETATM   13  C   UNL     1      28.014  47.047  55.358  1.00  0.00     0.050 C 
HETATM   14  N   UNL     1      29.441  44.602  55.214  1.00  0.00    -0.317 N 
HETATM   15  C   UNL     1      28.273  43.985  53.143  1.00  0.00    -0.028 A 
HETATM   16  C   UNL     1      29.507  45.324  56.402  1.00  0.00     0.224 C 
HETATM   17  C   UNL     1      30.294  43.424  55.087  1.00  0.00     0.132 C 
HETATM   18  O   UNL     1      30.334  45.093  57.286  1.00  0.00    -0.273 OA
HETATM   19  C   UNL     1      28.411  46.341  56.635  1.00  0.00     0.108 C 
HETATM   20  C   UNL     1      30.464  42.944  53.656  1.00  0.00     0.025 C 
HETATM   21  C   UNL     1      29.100  42.734  53.018  1.00  0.00     0.042 C 
HETATM   22  C   UNL     1      27.269  44.251  52.197  1.00  0.00     0.039 A 
ENDBRANCH   6   9
ENDBRANCH   2   5
BRANCH   1  23
HETATM   23  C   UNL     1      22.425  47.702  48.177  1.00  0.00     0.169 C 
BRANCH  23  24
HETATM   24  C   UNL     1      21.725  48.994  48.435  1.00  0.00     0.001 A 
HETATM   25  S   UNL     1      20.180  49.010  49.175  1.00  0.00    -0.095 SA
HETATM   26  C   UNL     1      20.077  50.723  49.103  1.00  0.00     0.017 A 
HETATM   27  C   UNL     1      21.214  51.263  48.530  1.00  0.00     0.018 A 
HETATM   28  C   UNL     1      22.161  50.272  48.149  1.00  0.00     0.017 A 
BRANCH  26  29
HETATM   29  C   UNL     1      18.848  51.419  49.627  1.00  0.00     0.198 C 
BRANCH  29  30
HETATM   30  C   UNL     1      17.819  51.704  48.567  1.00  0.00     0.016 A 
HETATM   31  S   UNL     1      16.152  51.707  48.981  1.00  0.00    -0.103 SA
HETATM   32  C   UNL     1      15.683  52.043  47.373  1.00  0.00     0.050 A 
HETATM   33  C   UNL     1      16.765  52.153  46.530  1.00  0.00     0.008 A 
HETATM   34  C   UNL     1      17.997  51.952  47.217  1.00  0.00     0.018 A 
ENDBRANCH  29  30
BRANCH  29  35
HETATM   35  O   UNL     1      18.228  50.539  50.567  1.00  0.00    -0.385 OA
HETATM   36  H   UNL     1      17.270  50.648  50.441  1.00  0.00     0.210 HD
ENDBRANCH  29  35
ENDBRANCH  26  29
ENDBRANCH  23  24
ENDBRANCH   1  23
TORSDOF 7
ENDMDL
MODEL 5
REMARK VINA RESULT:      -9.7      2.821      3.487
REMARK  7 active torsions:
REMARK  status: ('A' for Active; 'I' for Inactive)
REMARK    1  A    between atoms: C_4  and  C_5 
REMARK    2  A    between atoms: C_5  and  O_6 
REMARK    3  A    between atoms: C_5  and  C_7 
REMARK    4  A    between atoms: C_9  and  C_10 
REMARK    5  A    between atoms: C_10  and  N_11 
REMARK       I    between atoms: N_11  and  C_12 
REMARK    6  A    between atoms: C_12  and  C_13 
REMARK       I    between atoms: C_13  and  N_14 
REMARK    7  A    between atoms: N_14  and  C_15 
ROOT
HETATM    1  N   UNL     1      24.328  49.676  48.646  1.00  0.00    -0.348 N 
HETATM    2  C   UNL     1      25.659  49.592  48.318  1.00  0.00     0.310 C 
HETATM    3  O   UNL     1      26.233  50.244  47.456  1.00  0.00    -0.262 OA
HETATM    4  H   UNL     1      23.973  48.986  49.304  1.00  0.00     0.163 HD
ENDROOT
BRANCH   2   5
HETATM    5  C   UNL     1      26.441  48.534  49.128  1.00  0.00     0.313 C 
HETATM    6  N   UNL     1      25.622  47.509  49.554  1.00  0.00    -0.319 N 
HETATM    7  H   UNL     1      24.650  47.607  49.270  1.00  0.00     0.169 HD
HETATM    8  O   UNL     1      27.635  48.706  49.323  1.00  0.00    -0.262 OA
BRANCH   6   9
HETATM    9  C   UNL     1      25.964  46.408  50.356  1.00  0.00     0.036 A 
HETATM   10  C   UNL     1      26.356  45.172  49.844  1.00  0.00     0.039 A 
HETATM   11  C   UNL     1      26.727  44.127  50.706  1.00  0.00    -0.028 A 
HETATM   12  C   UNL     1      26.693  44.312  52.094  1.00  0.00     0.050 A 
HETATM   13  C   UNL     1      27.074  42.775  50.157  1.00  0.00     0.050 C 
HETATM   14  N   UNL     1      27.090  43.252  52.952  1.00  0.00    -0.317 N 
HETATM   15  C   UNL     1      26.243  45.534  52.617  1.00  0.00    -0.028 A 
HETATM   16  C   UNL     1      27.751  42.121  52.481  1.00  0.00     0.224 C 
HETATM   17  C   UNL     1      26.970  43.416  54.397  1.00  0.00     0.132 C 
HETATM   18  O   UNL     1      28.119  41.202  53.215  1.00  0.00    -0.273 OA
HETATM   19  C   UNL     1      28.133  42.123  51.017  1.00  0.00     0.108 C 
HETATM   20  C   UNL     1      25.914  44.427  54.810  1.00  0.00     0.025 C 
HETATM   21  C   UNL     1      26.163  45.750  54.104  1.00  0.00     0.042 C 
HETATM   22  C   UNL     1      25.903  46.580  51.743  1.00  0.00     0.039 A 
ENDBRANCH   6   9
ENDBRANCH   2   5
BRANCH   1  23
HETATM   23  C   UNL     1      23.418  50.477  47.874  1.00  0.00     0.169 C 
BRANCH  23  24
HETATM   24  C   UNL     1      22.066  50.408  48.502  1.00  0.00     0.001 A 
HETATM   25  S   UNL     1      21.341  48.892  48.833  1.00  0.00    -0.095 SA
HETATM   26  C   UNL     1      19.925  49.620  49.475  1.00  0.00     0.017 A 
HETATM   27  C   UNL     1      20.019  51.000  49.440  1.00  0.00     0.018 A 
HETATM   28  C   UNL     1      21.250  51.452  48.885  1.00  0.00     0.017 A 
BRANCH  26  29
HETATM   29  C   UNL     1      18.799  48.753  49.972  1.00  0.00     0.198 C 
BRANCH  29  30
HETATM   30  C   UNL     1      17.620  48.702  49.038  1.00  0.00     0.016 A 
HETATM   31  S   UNL     1      17.043  47.183  48.481  1.00  0.00    -0.103 SA
HETATM   32  C   UNL     1      15.830  47.917  47.527  1.00  0.00     0.050 A 
HETATM   33  C   UNL     1      15.855  49.289  47.623  1.00  0.00     0.008 A 
HETATM   34  C   UNL     1      16.890  49.743  48.491  1.00  0.00     0.018 A 
ENDBRANCH  29  30
BRANCH  29  35
HETATM   35  O   UNL     1      19.299  47.417  50.066  1.00  0.00    -0.385 OA
HETATM   36  H   UNL     1      20.258  47.482  49.919  1.00  0.00     0.210 HD
ENDBRANCH  29  35
ENDBRANCH  26  29
ENDBRANCH  23  24
ENDBRANCH   1  23
TORSDOF 7
ENDMDL
MODEL 6
REMARK VINA RESULT:      -9.7      1.664      2.071
REMARK  7 active torsions:
REMARK  status: ('A' for Active; 'I' for Inactive)
REMARK    1  A    between atoms: C_4  and  C_5 
REMARK    2  A    between atoms: C_5  and  O_6 
REMARK    3  A    between atoms: C_5  and  C_7 
REMARK    4  A    between atoms: C_9  and  C_10 
REMARK    5  A    between atoms: C_10  and  N_11 
REMARK       I    between atoms: N_11  and  C_12 
REMARK    6  A    between atoms: C_12  and  C_13 
REMARK       I    between atoms: C_13  and  N_14 
REMARK    7  A    between atoms: N_14  and  C_15 
ROOT
HETATM    1  N   UNL     1      22.641  45.393  47.953  1.00  0.00    -0.348 N 
HETATM    2  C   UNL     1      22.809  44.561  49.032  1.00  0.00     0.310 C 
HETATM    3  O   UNL     1      21.977  43.784  49.481  1.00  0.00    -0.262 OA
HETATM    4  H   UNL     1      23.383  46.065  47.772  1.00  0.00     0.163 HD
ENDROOT
BRANCH   2   5
HETATM    5  C   UNL     1      24.188  44.687  49.716  1.00  0.00     0.313 C 
HETATM    6  N   UNL     1      24.084  44.627  51.090  1.00  0.00    -0.319 N 
HETATM    7  H   UNL     1      23.133  44.506  51.431  1.00  0.00     0.169 HD
HETATM    8  O   UNL     1      25.180  44.844  49.019  1.00  0.00    -0.262 OA
BRANCH   6   9
HETATM    9  C   UNL     1      25.110  44.761  52.040  1.00  0.00     0.036 A 
HETATM   10  C   UNL     1      25.912  43.704  52.465  1.00  0.00     0.039 A 
HETATM   11  C   UNL     1      26.950  43.920  53.387  1.00  0.00    -0.028 A 
HETATM   12  C   UNL     1      27.180  45.202  53.901  1.00  0.00     0.050 A 
HETATM   13  C   UNL     1      27.763  42.769  53.901  1.00  0.00     0.050 C 
HETATM   14  N   UNL     1      28.246  45.408  54.817  1.00  0.00    -0.317 N 
HETATM   15  C   UNL     1      26.339  46.259  53.524  1.00  0.00    -0.028 A 
HETATM   16  C   UNL     1      29.232  44.452  55.039  1.00  0.00     0.224 C 
HETATM   17  C   UNL     1      28.428  46.725  55.419  1.00  0.00     0.132 C 
HETATM   18  O   UNL     1      30.174  44.623  55.816  1.00  0.00    -0.273 OA
HETATM   19  C   UNL     1      29.183  43.216  54.168  1.00  0.00     0.108 C 
HETATM   20  C   UNL     1      27.157  47.553  55.473  1.00  0.00     0.025 C 
HETATM   21  C   UNL     1      26.540  47.640  54.086  1.00  0.00     0.042 C 
HETATM   22  C   UNL     1      25.323  46.035  52.579  1.00  0.00     0.039 A 
ENDBRANCH   6   9
ENDBRANCH   2   5
BRANCH   1  23
HETATM   23  C   UNL     1      21.363  45.534  47.311  1.00  0.00     0.169 C 
BRANCH  23  24
HETATM   24  C   UNL     1      20.541  46.509  48.085  1.00  0.00     0.001 A 
HETATM   25  S   UNL     1      21.270  47.889  48.790  1.00  0.00    -0.095 SA
HETATM   26  C   UNL     1      19.783  48.433  49.455  1.00  0.00     0.017 A 
HETATM   27  C   UNL     1      18.751  47.571  49.129  1.00  0.00     0.018 A 
HETATM   28  C   UNL     1      19.186  46.469  48.340  1.00  0.00     0.017 A 
BRANCH  26  29
HETATM   29  C   UNL     1      19.748  49.698  50.271  1.00  0.00     0.198 C 
BRANCH  29  30
HETATM   30  C   UNL     1      19.131  50.865  49.549  1.00  0.00     0.016 A 
HETATM   31  S   UNL     1      17.451  51.179  49.723  1.00  0.00    -0.103 SA
HETATM   32  C   UNL     1      17.521  52.515  48.661  1.00  0.00     0.050 A 
HETATM   33  C   UNL     1      18.792  52.726  48.178  1.00  0.00     0.008 A 
HETATM   34  C   UNL     1      19.720  51.772  48.685  1.00  0.00     0.018 A 
ENDBRANCH  29  30
BRANCH  29  35
HETATM   35  O   UNL     1      18.926  49.447  51.412  1.00  0.00    -0.385 OA
HETATM   36  H   UNL     1      19.396  48.776  51.936  1.00  0.00     0.210 HD
ENDBRANCH  29  35
ENDBRANCH  26  29
ENDBRANCH  23  24
ENDBRANCH   1  23
TORSDOF 7
ENDMDL
MODEL 7
REMARK VINA RESULT:      -8.8      2.149      2.503
REMARK  7 active torsions:
REMARK  status: ('A' for Active; 'I' for Inactive)
REMARK    1  A    between atoms: C_4  and  C_5 
REMARK    2  A    between atoms: C_5  and  O_6 
REMARK    3  A    between atoms: C_5  and  C_7 
REMARK    4  A    between atoms: C_9  and  C_10 
REMARK    5  A    between atoms: C_10  and  N_11 
REMARK       I    between atoms: N_11  and  C_12 
REMARK    6  A    between atoms: C_12  and  C_13 
REMARK       I    between atoms: C_13  and  N_14 
REMARK    7  A    between atoms: N_14  and  C_15 
ROOT
HETATM    1  N   UNL     1      23.499  44.071  48.068  1.00  0.00    -0.348 N 
HETATM    2  C   UNL     1      23.647  43.443  49.280  1.00  0.00     0.310 C 
HETATM    3  O   UNL     1      22.804  42.760  49.846  1.00  0.00    -0.262 OA
HETATM    4  H   UNL     1      24.247  44.699  47.782  1.00  0.00     0.163 HD
ENDROOT
BRANCH   2   5
HETATM    5  C   UNL     1      25.016  43.687  49.952  1.00  0.00     0.313 C 
HETATM    6  N   UNL     1      24.905  43.758  51.325  1.00  0.00    -0.319 N 
HETATM    7  H   UNL     1      23.957  43.636  51.674  1.00  0.00     0.169 HD
HETATM    8  O   UNL     1      26.006  43.811  49.246  1.00  0.00    -0.262 OA
BRANCH   6   9
HETATM    9  C   UNL     1      25.919  44.022  52.260  1.00  0.00     0.036 A 
HETATM   10  C   UNL     1      26.849  43.073  52.681  1.00  0.00     0.039 A 
HETATM   11  C   UNL     1      27.864  43.421  53.587  1.00  0.00    -0.028 A 
HETATM   12  C   UNL     1      27.944  44.725  54.091  1.00  0.00     0.050 A 
HETATM   13  C   UNL     1      28.817  42.380  54.096  1.00  0.00     0.050 C 
HETATM   14  N   UNL     1      28.988  45.065  54.991  1.00  0.00    -0.317 N 
HETATM   15  C   UNL     1      26.976  45.669  53.719  1.00  0.00    -0.028 A 
HETATM   16  C   UNL     1      30.086  44.237  55.205  1.00  0.00     0.224 C 
HETATM   17  C   UNL     1      29.017  46.399  55.583  1.00  0.00     0.132 C 
HETATM   18  O   UNL     1      31.010  44.527  55.968  1.00  0.00    -0.273 OA
HETATM   19  C   UNL     1      30.176  42.998  54.342  1.00  0.00     0.108 C 
HETATM   20  C   UNL     1      27.655  47.067  55.649  1.00  0.00     0.025 C 
HETATM   21  C   UNL     1      27.015  47.068  54.270  1.00  0.00     0.042 C 
HETATM   22  C   UNL     1      25.983  45.316  52.789  1.00  0.00     0.039 A 
ENDBRANCH   6   9
ENDBRANCH   2   5
BRANCH   1  23
HETATM   23  C   UNL     1      22.231  44.098  47.390  1.00  0.00     0.169 C 
BRANCH  23  24
HETATM   24  C   UNL     1      21.603  45.435  47.598  1.00  0.00     0.001 A 
HETATM   25  S   UNL     1      20.479  45.675  48.867  1.00  0.00    -0.095 SA
HETATM   26  C   UNL     1      20.238  47.323  48.449  1.00  0.00     0.017 A 
HETATM   27  C   UNL     1      21.017  47.675  47.360  1.00  0.00     0.018 A 
HETATM   28  C   UNL     1      21.803  46.592  46.875  1.00  0.00     0.017 A 
BRANCH  26  29
HETATM   29  C   UNL     1      19.271  48.161  49.242  1.00  0.00     0.198 C 
BRANCH  29  30
HETATM   30  C   UNL     1      17.946  48.362  48.559  1.00  0.00     0.016 A 
HETATM   31  S   UNL     1      17.680  49.776  47.620  1.00  0.00    -0.103 SA
HETATM   32  C   UNL     1      16.078  49.312  47.251  1.00  0.00     0.050 A 
HETATM   33  C   UNL     1      15.742  48.108  47.825  1.00  0.00     0.008 A 
HETATM   34  C   UNL     1      16.817  47.562  48.584  1.00  0.00     0.018 A 
ENDBRANCH  29  30
BRANCH  29  35
HETATM   35  O   UNL     1      18.999  47.462  50.458  1.00  0.00    -0.385 OA
HETATM   36  H   UNL     1      18.151  47.812  50.781  1.00  0.00     0.210 HD
ENDBRANCH  29  35
ENDBRANCH  26  29
ENDBRANCH  23  24
ENDBRANCH   1  23
TORSDOF 7
ENDMDL
MODEL 8
REMARK VINA RESULT:      -8.7      2.352      3.112
REMARK  7 active torsions:
REMARK  status: ('A' for Active; 'I' for Inactive)
REMARK    1  A    between atoms: C_4  and  C_5 
REMARK    2  A    between atoms: C_5  and  O_6 
REMARK    3  A    between atoms: C_5  and  C_7 
REMARK    4  A    between atoms: C_9  and  C_10 
REMARK    5  A    between atoms: C_10  and  N_11 
REMARK       I    between atoms: N_11  and  C_12 
REMARK    6  A    between atoms: C_12  and  C_13 
REMARK       I    between atoms: C_13  and  N_14 
REMARK    7  A    between atoms: N_14  and  C_15 
ROOT
HETATM    1  N   UNL     1      24.138  43.844  47.815  1.00  0.00    -0.348 N 
HETATM    2  C   UNL     1      24.392  43.063  48.915  1.00  0.00     0.310 C 
HETATM    3  O   UNL     1      23.717  42.119  49.302  1.00  0.00    -0.262 OA
HETATM    4  H   UNL     1      24.726  44.665  47.688  1.00  0.00     0.163 HD
ENDROOT
BRANCH   2   5
HETATM    5  C   UNL     1      25.645  43.489  49.713  1.00  0.00     0.313 C 
HETATM    6  N   UNL     1      25.422  43.448  51.073  1.00  0.00    -0.319 N 
HETATM    7  H   UNL     1      24.486  43.145  51.333  1.00  0.00     0.169 HD
HETATM    8  O   UNL     1      26.648  43.826  49.100  1.00  0.00    -0.262 OA
BRANCH   6   9
HETATM    9  C   UNL     1      26.302  43.816  52.103  1.00  0.00     0.036 A 
HETATM   10  C   UNL     1      27.254  42.957  52.650  1.00  0.00     0.039 A 
HETATM   11  C   UNL     1      28.133  43.408  53.649  1.00  0.00    -0.028 A 
HETATM   12  C   UNL     1      28.051  44.725  54.119  1.00  0.00     0.050 A 
HETATM   13  C   UNL     1      29.105  42.462  54.290  1.00  0.00     0.050 C 
HETATM   14  N   UNL     1      28.959  45.170  55.115  1.00  0.00    -0.317 N 
HETATM   15  C   UNL     1      27.056  45.576  53.616  1.00  0.00    -0.028 A 
HETATM   16  C   UNL     1      30.090  44.442  55.472  1.00  0.00     0.224 C 
HETATM   17  C   UNL     1      28.815  46.514  55.667  1.00  0.00     0.132 C 
HETATM   18  O   UNL     1      30.898  44.824  56.321  1.00  0.00    -0.273 OA
HETATM   19  C   UNL     1      30.374  43.197  54.661  1.00  0.00     0.108 C 
HETATM   20  C   UNL     1      27.404  47.067  55.565  1.00  0.00     0.025 C 
HETATM   21  C   UNL     1      26.921  46.986  54.126  1.00  0.00     0.042 C 
HETATM   22  C   UNL     1      26.203  45.122  52.596  1.00  0.00     0.039 A 
ENDBRANCH   6   9
ENDBRANCH   2   5
BRANCH   1  23
HETATM   23  C   UNL     1      22.921  43.701  47.063  1.00  0.00     0.169 C 
BRANCH  23  24
HETATM   24  C   UNL     1      21.921  44.682  47.577  1.00  0.00     0.001 A 
HETATM   25  S   UNL     1      21.652  46.159  46.752  1.00  0.00    -0.095 SA
HETATM   26  C   UNL     1      20.477  46.674  47.894  1.00  0.00     0.017 A 
HETATM   27  C   UNL     1      20.294  45.720  48.880  1.00  0.00     0.018 A 
HETATM   28  C   UNL     1      21.121  44.576  48.696  1.00  0.00     0.017 A 
BRANCH  26  29
HETATM   29  C   UNL     1      19.812  48.014  47.727  1.00  0.00     0.198 C 
BRANCH  29  30
HETATM   30  C   UNL     1      20.620  49.160  48.272  1.00  0.00     0.016 A 
HETATM   31  S   UNL     1      20.221  49.827  49.805  1.00  0.00    -0.103 SA
HETATM   32  C   UNL     1      21.464  50.995  49.696  1.00  0.00     0.050 A 
HETATM   33  C   UNL     1      22.174  50.888  48.522  1.00  0.00     0.008 A 
HETATM   34  C   UNL     1      21.685  49.833  47.698  1.00  0.00     0.018 A 
ENDBRANCH  29  30
BRANCH  29  35
HETATM   35  O   UNL     1      19.670  48.249  46.325  1.00  0.00    -0.385 OA
HETATM   36  H   UNL     1      19.274  49.133  46.242  1.00  0.00     0.210 HD
ENDBRANCH  29  35
ENDBRANCH  26  29
ENDBRANCH  23  24
ENDBRANCH   1  23
TORSDOF 7
ENDMDL
MODEL 9
REMARK VINA RESULT:      -8.3     13.754     14.535
REMARK  7 active torsions:
REMARK  status: ('A' for Active; 'I' for Inactive)
REMARK    1  A    between atoms: C_4  and  C_5 
REMARK    2  A    between atoms: C_5  and  O_6 
REMARK    3  A    between atoms: C_5  and  C_7 
REMARK    4  A    between atoms: C_9  and  C_10 
REMARK    5  A    between atoms: C_10  and  N_11 
REMARK       I    between atoms: N_11  and  C_12 
REMARK    6  A    between atoms: C_12  and  C_13 
REMARK       I    between atoms: C_13  and  N_14 
REMARK    7  A    between atoms: N_14  and  C_15 
ROOT
HETATM    1  N   UNL     1      33.117  52.376  40.657  1.00  0.00    -0.348 N 
HETATM    2  C   UNL     1      33.540  51.261  41.338  1.00  0.00     0.310 C 
HETATM    3  O   UNL     1      33.336  50.098  41.016  1.00  0.00    -0.262 OA
HETATM    4  H   UNL     1      33.264  53.275  41.111  1.00  0.00     0.163 HD
ENDROOT
BRANCH   2   5
HETATM    5  C   UNL     1      34.312  51.573  42.639  1.00  0.00     0.313 C 
HETATM    6  N   UNL     1      35.627  51.900  42.386  1.00  0.00    -0.319 N 
HETATM    7  H   UNL     1      35.878  51.889  41.400  1.00  0.00     0.169 HD
HETATM    8  O   UNL     1      33.726  51.484  43.709  1.00  0.00    -0.262 OA
BRANCH   6   9
HETATM    9  C   UNL     1      36.639  52.187  43.316  1.00  0.00     0.036 A 
HETATM   10  C   UNL     1      36.633  53.310  44.144  1.00  0.00     0.039 A 
HETATM   11  C   UNL     1      37.657  53.511  45.083  1.00  0.00    -0.028 A 
HETATM   12  C   UNL     1      38.708  52.590  45.189  1.00  0.00     0.050 A 
HETATM   13  C   UNL     1      37.689  54.756  45.919  1.00  0.00     0.050 C 
HETATM   14  N   UNL     1      39.725  52.798  46.158  1.00  0.00    -0.317 N 
HETATM   15  C   UNL     1      38.753  51.491  44.319  1.00  0.00    -0.028 A 
HETATM   16  C   UNL     1      39.602  53.736  47.179  1.00  0.00     0.224 C 
HETATM   17  C   UNL     1      40.865  51.887  46.206  1.00  0.00     0.132 C 
HETATM   18  O   UNL     1      40.467  53.914  48.038  1.00  0.00    -0.273 OA
HETATM   19  C   UNL     1      38.273  54.451  47.280  1.00  0.00     0.108 C 
HETATM   20  C   UNL     1      41.147  51.192  44.885  1.00  0.00     0.025 C 
HETATM   21  C   UNL     1      39.886  50.504  44.385  1.00  0.00     0.042 C 
HETATM   22  C   UNL     1      37.706  51.286  43.404  1.00  0.00     0.039 A 
ENDBRANCH   6   9
ENDBRANCH   2   5
BRANCH   1  23
HETATM   23  C   UNL     1      32.236  52.271  39.526  1.00  0.00     0.169 C 
BRANCH  23  24
HETATM   24  C   UNL     1      30.826  52.288  40.013  1.00  0.00     0.001 A 
HETATM   25  S   UNL     1      29.885  50.857  39.991  1.00  0.00    -0.095 SA
HETATM   26  C   UNL     1      28.509  51.657  40.636  1.00  0.00     0.017 A 
HETATM   27  C   UNL     1      28.779  52.994  40.869  1.00  0.00     0.018 A 
HETATM   28  C   UNL     1      30.109  53.355  40.514  1.00  0.00     0.017 A 
BRANCH  26  29
HETATM   29  C   UNL     1      27.236  50.886  40.864  1.00  0.00     0.198 C 
BRANCH  29  30
HETATM   30  C   UNL     1      26.875  49.970  39.726  1.00  0.00     0.016 A 
HETATM   31  S   UNL     1      26.808  48.274  39.991  1.00  0.00    -0.103 SA
HETATM   32  C   UNL     1      26.406  47.966  38.359  1.00  0.00     0.050 A 
HETATM   33  C   UNL     1      26.321  49.123  37.620  1.00  0.00     0.008 A 
HETATM   34  C   UNL     1      26.596  50.279  38.406  1.00  0.00     0.018 A 
ENDBRANCH  29  30
BRANCH  29  35
HETATM   35  O   UNL     1      27.441  50.052  42.007  1.00  0.00    -0.385 OA
HETATM   36  H   UNL     1      28.403  49.937  42.082  1.00  0.00     0.210 HD
ENDBRANCH  29  35
ENDBRANCH  26  29
ENDBRANCH  23  24
ENDBRANCH   1  23
TORSDOF 7
ENDMDL
MODEL 10
REMARK VINA RESULT:      -8.2     15.040     18.542
REMARK  7 active torsions:
REMARK  status: ('A' for Active; 'I' for Inactive)
REMARK    1  A    between atoms: C_4  and  C_5 
REMARK    2  A    between atoms: C_5  and  O_6 
REMARK    3  A    between atoms: C_5  and  C_7 
REMARK    4  A    between atoms: C_9  and  C_10 
REMARK    5  A    between atoms: C_10  and  N_11 
REMARK       I    between atoms: N_11  and  C_12 
REMARK    6  A    between atoms: C_12  and  C_13 
REMARK       I    between atoms: C_13  and  N_14 
REMARK    7  A    between atoms: N_14  and  C_15 
ROOT
HETATM    1  N   UNL     1      36.369  53.165  43.103  1.00  0.00    -0.348 N 
HETATM    2  C   UNL     1      36.003  51.864  42.861  1.00  0.00     0.310 C 
HETATM    3  O   UNL     1      36.760  50.908  42.757  1.00  0.00    -0.262 OA
HETATM    4  H   UNL     1      35.634  53.867  43.046  1.00  0.00     0.163 HD
ENDROOT
BRANCH   2   5
HETATM    5  C   UNL     1      34.482  51.661  42.683  1.00  0.00     0.313 C 
HETATM    6  N   UNL     1      34.165  51.274  41.398  1.00  0.00    -0.319 N 
HETATM    7  H   UNL     1      34.969  51.181  40.780  1.00  0.00     0.169 HD
HETATM    8  O   UNL     1      33.743  51.872  43.635  1.00  0.00    -0.262 OA
BRANCH   6   9
HETATM    9  C   UNL     1      32.890  51.053  40.853  1.00  0.00     0.036 A 
HETATM   10  C   UNL     1      32.009  52.076  40.508  1.00  0.00     0.039 A 
HETATM   11  C   UNL     1      30.765  51.782  39.925  1.00  0.00    -0.028 A 
HETATM   12  C   UNL     1      30.390  50.452  39.698  1.00  0.00     0.050 A 
HETATM   13  C   UNL     1      29.788  52.879  39.625  1.00  0.00     0.050 C 
HETATM   14  N   UNL     1      29.137  50.172  39.090  1.00  0.00    -0.317 N 
HETATM   15  C   UNL     1      31.246  49.415  40.099  1.00  0.00    -0.028 A 
HETATM   16  C   UNL     1      28.369  51.158  38.478  1.00  0.00     0.224 C 
HETATM   17  C   UNL     1      28.710  48.785  38.936  1.00  0.00     0.132 C 
HETATM   18  O   UNL     1      27.290  50.928  37.930  1.00  0.00    -0.273 OA
HETATM   19  C   UNL     1      28.988  52.535  38.388  1.00  0.00     0.108 C 
HETATM   20  C   UNL     1      29.342  47.836  39.941  1.00  0.00     0.025 C 
HETATM   21  C   UNL     1      30.855  47.976  39.900  1.00  0.00     0.042 C 
HETATM   22  C   UNL     1      32.499  49.724  40.653  1.00  0.00     0.039 A 
ENDBRANCH   6   9
ENDBRANCH   2   5
BRANCH   1  23
HETATM   23  C   UNL     1      37.751  53.562  43.117  1.00  0.00     0.169 C 
BRANCH  23  24
HETATM   24  C   UNL     1      38.162  53.821  44.527  1.00  0.00     0.001 A 
HETATM   25  S   UNL     1      39.537  53.041  45.186  1.00  0.00    -0.095 SA
HETATM   26  C   UNL     1      39.331  53.796  46.714  1.00  0.00     0.017 A 
HETATM   27  C   UNL     1      38.232  54.636  46.707  1.00  0.00     0.018 A 
HETATM   28  C   UNL     1      37.563  54.653  45.451  1.00  0.00     0.017 A 
BRANCH  26  29
HETATM   29  C   UNL     1      40.292  53.490  47.833  1.00  0.00     0.198 C 
BRANCH  29  30
HETATM   30  C   UNL     1      41.600  54.225  47.721  1.00  0.00     0.016 A 
HETATM   31  S   UNL     1      43.073  53.341  47.724  1.00  0.00    -0.103 SA
HETATM   32  C   UNL     1      44.008  54.766  47.613  1.00  0.00     0.050 A 
HETATM   33  C   UNL     1      43.226  55.897  47.574  1.00  0.00     0.008 A 
HETATM   34  C   UNL     1      41.837  55.586  47.641  1.00  0.00     0.018 A 
ENDBRANCH  29  30
BRANCH  29  35
HETATM   35  O   UNL     1      39.683  53.928  49.050  1.00  0.00    -0.385 OA
HETATM   36  H   UNL     1      40.339  54.499  49.485  1.00  0.00     0.210 HD
ENDBRANCH  29  35
ENDBRANCH  26  29
ENDBRANCH  23  24
ENDBRANCH   1  23
TORSDOF 7
ENDMDL
