MODEL 1
REMARK VINA RESULT:     -10.2      0.000      0.000
REMARK  6 active torsions:
REMARK  status: ('A' for Active; 'I' for Inactive)
REMARK    1  A    between atoms: C_9  and  C_10 
REMARK       I    between atoms: C_10  and  N_11 
REMARK    2  A    between atoms: N_11  and  N_12 
REMARK       I    between atoms: N_12  and  C_13 
REMARK       I    between atoms: C_13  and  N_14 
REMARK    3  A    between atoms: N_14  and  C_15 
REMARK    4  A    between atoms: C_15  and  C_16 
REMARK    5  A    between atoms: C_16  and  C_17 
REMARK    6  A    between atoms: C_16  and  C_27 
ROOT
HETATM    1  N   UNL     1      25.073  45.563  51.630  1.00  0.00    -0.249 N 
HETATM    2  C   UNL     1      24.652  46.576  50.801  1.00  0.00     0.334 C 
HETATM    3  N   UNL     1      23.718  46.140  49.892  1.00  0.00    -0.341 N 
HETATM    4  O   UNL     1      25.084  47.721  50.859  1.00  0.00    -0.246 OA
HETATM    5  H   UNL     1      24.497  44.741  51.784  1.00  0.00     0.192 HD
HETATM    6  H   UNL     1      23.812  45.164  49.644  1.00  0.00     0.164 HD
ENDROOT
BRANCH   1   7
HETATM    7  N   UNL     1      26.013  45.867  52.626  1.00  0.00    -0.261 N 
HETATM    8  C   UNL     1      25.961  45.139  53.800  1.00  0.00     0.291 C 
HETATM    9  O   UNL     1      25.017  44.445  54.148  1.00  0.00    -0.264 OA
HETATM   10  H   UNL     1      26.932  46.179  52.296  1.00  0.00     0.190 HD
BRANCH   8  11
HETATM   11  C   UNL     1      27.245  45.245  54.629  1.00  0.00     0.157 A 
HETATM   12  C   UNL     1      28.371  44.301  54.440  1.00  0.00     0.016 A 
HETATM   13  C   UNL     1      28.344  43.206  53.569  1.00  0.00     0.015 A 
HETATM   14  C   UNL     1      29.523  44.535  55.195  1.00  0.00     0.046 A 
HETATM   15  C   UNL     1      29.468  42.381  53.438  1.00  0.00     0.001 A 
HETATM   16  C   UNL     1      30.619  42.635  54.179  1.00  0.00     0.001 A 
HETATM   17  C   UNL     1      30.647  43.710  55.064  1.00  0.00     0.018 A 
HETATM   18  C   UNL     1      29.545  45.653  56.153  1.00  0.00     0.272 A 
HETATM   19  O   UNL     1      30.534  45.895  56.835  1.00  0.00    -0.266 OA
HETATM   20  N   UNL     1      28.392  46.395  56.243  1.00  0.00    -0.242 N 
HETATM   21  N   UNL     1      27.269  46.222  55.494  1.00  0.00    -0.166 NA
HETATM   22  H   UNL     1      28.393  47.173  56.897  1.00  0.00     0.192 HD
ENDBRANCH   8  11
ENDBRANCH   1   7
BRANCH   3  23
HETATM   23  C   UNL     1      23.290  47.034  48.821  1.00  0.00     0.139 C 
BRANCH  23  24
HETATM   24  C   UNL     1      21.795  47.422  48.899  1.00  0.00     0.079 C 
BRANCH  24  25
HETATM   25  C   UNL     1      21.592  48.911  48.727  1.00  0.00    -0.020 A 
HETATM   26  C   UNL     1      20.420  49.660  49.091  1.00  0.00    -0.001 A 
HETATM   27  C   UNL     1      20.657  50.996  48.766  1.00  0.00     0.042 A 
HETATM   28  C   UNL     1      19.177  49.325  49.667  1.00  0.00     0.014 A 
HETATM   29  C   UNL     1      19.719  52.012  48.991  1.00  0.00     0.030 A 
HETATM   30  N   UNL     1      21.916  51.065  48.221  1.00  0.00    -0.365 N 
HETATM   31  C   UNL     1      18.498  51.651  49.566  1.00  0.00     0.002 A 
HETATM   32  C   UNL     1      18.228  50.327  49.901  1.00  0.00     0.001 A 
HETATM   33  H   UNL     1      22.350  51.914  47.889  1.00  0.00     0.165 HD
HETATM   34  C   UNL     1      22.490  49.824  48.197  1.00  0.00     0.097 A 
ENDBRANCH  24  25
BRANCH  24  35
HETATM   35  C   UNL     1      20.955  46.636  47.901  1.00  0.00    -0.007 A 
HETATM   36  S   UNL     1      19.986  45.326  48.447  1.00  0.00    -0.106 SA
HETATM   37  C   UNL     1      19.417  44.999  46.871  1.00  0.00     0.050 A 
HETATM   38  C   UNL     1      19.951  45.859  45.939  1.00  0.00     0.008 A 
HETATM   39  C   UNL     1      20.834  46.804  46.532  1.00  0.00     0.016 A 
ENDBRANCH  24  35
ENDBRANCH  23  24
ENDBRANCH   3  23
TORSDOF 6
ENDMDL
MODEL 2
REMARK VINA RESULT:      -9.7      2.067      2.653
REMARK  6 active torsions:
REMARK  status: ('A' for Active; 'I' for Inactive)
REMARK    1  A    between atoms: C_9  and  C_10 
REMARK       I    between atoms: C_10  and  N_11 
REMARK    2  A    between atoms: N_11  and  N_12 
REMARK       I    between atoms: N_12  and  C_13 
REMARK       I    between atoms: C_13  and  N_14 
REMARK    3  A    between atoms: N_14  and  C_15 
REMARK    4  A    between atoms: C_15  and  C_16 
REMARK    5  A    between atoms: C_16  and  C_17 
REMARK    6  A    between atoms: C_16  and  C_27 
ROOT
HETATM    1  N   UNL     1      24.794  46.396  51.017  1.00  0.00    -0.249 N 
HETATM    2  C   UNL     1      24.149  46.102  49.838  1.00  0.00     0.334 C 
HETATM    3  N   UNL     1      23.153  47.006  49.559  1.00  0.00    -0.341 N 
HETATM    4  O   UNL     1      24.422  45.130  49.143  1.00  0.00    -0.246 OA
HETATM    5  H   UNL     1      24.784  47.338  51.396  1.00  0.00     0.192 HD
HETATM    6  H   UNL     1      22.738  47.425  50.381  1.00  0.00     0.164 HD
ENDROOT
BRANCH   1   7
HETATM    7  N   UNL     1      25.852  45.567  51.420  1.00  0.00    -0.261 N 
HETATM    8  C   UNL     1      25.604  44.658  52.431  1.00  0.00     0.291 C 
HETATM    9  O   UNL     1      24.635  44.691  53.176  1.00  0.00    -0.264 OA
HETATM   10  H   UNL     1      26.517  45.299  50.687  1.00  0.00     0.190 HD
BRANCH   8  11
HETATM   11  C   UNL     1      26.655  43.546  52.509  1.00  0.00     0.157 A 
HETATM   12  C   UNL     1      27.827  43.647  53.409  1.00  0.00     0.016 A 
HETATM   13  C   UNL     1      28.124  44.768  54.193  1.00  0.00     0.015 A 
HETATM   14  C   UNL     1      28.682  42.544  53.457  1.00  0.00     0.046 A 
HETATM   15  C   UNL     1      29.244  44.764  55.033  1.00  0.00     0.001 A 
HETATM   16  C   UNL     1      30.078  43.651  55.091  1.00  0.00     0.001 A 
HETATM   17  C   UNL     1      29.802  42.539  54.299  1.00  0.00     0.018 A 
HETATM   18  C   UNL     1      28.408  41.379  52.599  1.00  0.00     0.272 A 
HETATM   19  O   UNL     1      29.131  40.389  52.610  1.00  0.00    -0.266 OA
HETATM   20  N   UNL     1      27.308  41.475  51.782  1.00  0.00    -0.242 N 
HETATM   21  N   UNL     1      26.432  42.515  51.740  1.00  0.00    -0.166 NA
HETATM   22  H   UNL     1      27.104  40.678  51.186  1.00  0.00     0.192 HD
ENDBRANCH   8  11
ENDBRANCH   1   7
BRANCH   3  23
HETATM   23  C   UNL     1      22.249  46.752  48.442  1.00  0.00     0.139 C 
BRANCH  23  24
HETATM   24  C   UNL     1      20.841  47.363  48.636  1.00  0.00     0.079 C 
BRANCH  24  25
HETATM   25  C   UNL     1      20.841  48.857  48.401  1.00  0.00    -0.020 A 
HETATM   26  C   UNL     1      19.844  49.791  48.850  1.00  0.00    -0.001 A 
HETATM   27  C   UNL     1      20.235  51.061  48.423  1.00  0.00     0.042 A 
HETATM   28  C   UNL     1      18.644  49.674  49.582  1.00  0.00     0.014 A 
HETATM   29  C   UNL     1      19.490  52.217  48.692  1.00  0.00     0.030 A 
HETATM   30  N   UNL     1      21.415  50.913  47.736  1.00  0.00    -0.365 N 
HETATM   31  C   UNL     1      18.308  52.071  49.421  1.00  0.00     0.002 A 
HETATM   32  C   UNL     1      17.888  50.819  49.861  1.00  0.00     0.001 A 
HETATM   33  H   UNL     1      21.927  51.672  47.308  1.00  0.00     0.165 HD
HETATM   34  C   UNL     1      21.793  49.599  47.720  1.00  0.00     0.097 A 
ENDBRANCH  24  25
BRANCH  24  35
HETATM   35  C   UNL     1      19.800  46.672  47.765  1.00  0.00    -0.007 A 
HETATM   36  S   UNL     1      19.935  46.750  46.054  1.00  0.00    -0.106 SA
HETATM   37  C   UNL     1      18.518  45.822  45.831  1.00  0.00     0.050 A 
HETATM   38  C   UNL     1      17.944  45.459  47.027  1.00  0.00     0.008 A 
HETATM   39  C   UNL     1      18.683  45.946  48.142  1.00  0.00     0.016 A 
ENDBRANCH  24  35
ENDBRANCH  23  24
ENDBRANCH   3  23
TORSDOF 6
ENDMDL
MODEL 3
REMARK VINA RESULT:      -9.6      3.235     10.709
REMARK  6 active torsions:
REMARK  status: ('A' for Active; 'I' for Inactive)
REMARK    1  A    between atoms: C_9  and  C_10 
REMARK       I    between atoms: C_10  and  N_11 
REMARK    2  A    between atoms: N_11  and  N_12 
REMARK       I    between atoms: N_12  and  C_13 
REMARK       I    between atoms: C_13  and  N_14 
REMARK    3  A    between atoms: N_14  and  C_15 
REMARK    4  A    between atoms: C_15  and  C_16 
REMARK    5  A    between atoms: C_16  and  C_17 
REMARK    6  A    between atoms: C_16  and  C_27 
ROOT
HETATM    1  N   UNL     1      22.756  46.300  49.189  1.00  0.00    -0.249 N 
HETATM    2  C   UNL     1      23.965  46.776  49.641  1.00  0.00     0.334 C 
HETATM    3  N   UNL     1      24.958  45.832  49.537  1.00  0.00    -0.341 N 
HETATM    4  O   UNL     1      24.119  47.900  50.102  1.00  0.00    -0.246 OA
HETATM    5  H   UNL     1      22.712  45.524  48.536  1.00  0.00     0.192 HD
HETATM    6  H   UNL     1      24.627  44.879  49.605  1.00  0.00     0.164 HD
ENDROOT
BRANCH   1   7
HETATM    7  N   UNL     1      21.651  47.164  49.214  1.00  0.00    -0.261 N 
HETATM    8  C   UNL     1      21.140  47.585  48.001  1.00  0.00     0.291 C 
HETATM    9  O   UNL     1      21.718  47.486  46.929  1.00  0.00    -0.264 OA
HETATM   10  H   UNL     1      20.995  47.031  49.990  1.00  0.00     0.190 HD
BRANCH   8  11
HETATM   11  C   UNL     1      19.725  48.163  48.114  1.00  0.00     0.157 A 
HETATM   12  C   UNL     1      19.490  49.617  48.269  1.00  0.00     0.016 A 
HETATM   13  C   UNL     1      20.507  50.569  48.403  1.00  0.00     0.015 A 
HETATM   14  C   UNL     1      18.160  50.042  48.286  1.00  0.00     0.046 A 
HETATM   15  C   UNL     1      20.189  51.928  48.520  1.00  0.00     0.001 A 
HETATM   16  C   UNL     1      18.860  52.344  48.514  1.00  0.00     0.001 A 
HETATM   17  C   UNL     1      17.842  51.401  48.402  1.00  0.00     0.018 A 
HETATM   18  C   UNL     1      17.081  49.044  48.197  1.00  0.00     0.272 A 
HETATM   19  O   UNL     1      15.900  49.373  48.207  1.00  0.00    -0.266 OA
HETATM   20  N   UNL     1      17.477  47.731  48.115  1.00  0.00    -0.242 N 
HETATM   21  N   UNL     1      18.761  47.286  48.054  1.00  0.00    -0.166 NA
HETATM   22  H   UNL     1      16.743  47.031  48.050  1.00  0.00     0.192 HD
ENDBRANCH   8  11
ENDBRANCH   1   7
BRANCH   3  23
HETATM   23  C   UNL     1      26.264  46.100  50.131  1.00  0.00     0.139 C 
BRANCH  23  24
HETATM   24  C   UNL     1      27.015  44.823  50.576  1.00  0.00     0.079 C 
BRANCH  24  25
HETATM   25  C   UNL     1      27.276  44.817  52.067  1.00  0.00    -0.020 A 
HETATM   26  C   UNL     1      28.324  44.107  52.747  1.00  0.00    -0.001 A 
HETATM   27  C   UNL     1      28.204  44.381  54.109  1.00  0.00     0.042 A 
HETATM   28  C   UNL     1      29.367  43.253  52.329  1.00  0.00     0.014 A 
HETATM   29  C   UNL     1      29.071  43.850  55.073  1.00  0.00     0.030 A 
HETATM   30  N   UNL     1      27.125  45.218  54.261  1.00  0.00    -0.365 N 
HETATM   31  C   UNL     1      30.096  43.012  54.629  1.00  0.00     0.002 A 
HETATM   32  C   UNL     1      30.245  42.715  53.277  1.00  0.00     0.001 A 
HETATM   33  H   UNL     1      26.800  45.577  55.148  1.00  0.00     0.165 HD
HETATM   34  C   UNL     1      26.563  45.492  53.045  1.00  0.00     0.097 A 
ENDBRANCH  24  25
BRANCH  24  35
HETATM   35  C   UNL     1      26.287  43.559  50.143  1.00  0.00    -0.007 A 
HETATM   36  S   UNL     1      24.906  43.028  51.019  1.00  0.00    -0.106 SA
HETATM   37  C   UNL     1      24.696  41.672  50.003  1.00  0.00     0.050 A 
HETATM   38  C   UNL     1      25.654  41.611  49.017  1.00  0.00     0.008 A 
HETATM   39  C   UNL     1      26.569  42.699  49.095  1.00  0.00     0.016 A 
ENDBRANCH  24  35
ENDBRANCH  23  24
ENDBRANCH   3  23
TORSDOF 6
ENDMDL
MODEL 4
REMARK VINA RESULT:      -9.4      3.097      4.780
REMARK  6 active torsions:
REMARK  status: ('A' for Active; 'I' for Inactive)
REMARK    1  A    between atoms: C_9  and  C_10 
REMARK       I    between atoms: C_10  and  N_11 
REMARK    2  A    between atoms: N_11  and  N_12 
REMARK       I    between atoms: N_12  and  C_13 
REMARK       I    between atoms: C_13  and  N_14 
REMARK    3  A    between atoms: N_14  and  C_15 
REMARK    4  A    between atoms: C_15  and  C_16 
REMARK    5  A    between atoms: C_16  and  C_17 
REMARK    6  A    between atoms: C_16  and  C_27 
ROOT
HETATM    1  N   UNL     1      24.638  44.880  48.358  1.00  0.00    -0.249 N 
HETATM    2  C   UNL     1      23.409  45.320  48.793  1.00  0.00     0.334 C 
HETATM    3  N   UNL     1      22.855  46.230  47.926  1.00  0.00    -0.341 N 
HETATM    4  O   UNL     1      22.894  44.956  49.843  1.00  0.00    -0.246 OA
HETATM    5  H   UNL     1      24.894  44.931  47.377  1.00  0.00     0.192 HD
HETATM    6  H   UNL     1      23.535  46.770  47.407  1.00  0.00     0.164 HD
ENDROOT
BRANCH   1   7
HETATM    7  N   UNL     1      25.315  43.929  49.135  1.00  0.00    -0.261 N 
HETATM    8  C   UNL     1      26.573  44.261  49.602  1.00  0.00     0.291 C 
HETATM    9  O   UNL     1      27.249  45.191  49.185  1.00  0.00    -0.264 OA
HETATM   10  H   UNL     1      24.729  43.330  49.725  1.00  0.00     0.190 HD
BRANCH   8  11
HETATM   11  C   UNL     1      27.043  43.365  50.753  1.00  0.00     0.157 A 
HETATM   12  C   UNL     1      27.048  43.841  52.156  1.00  0.00     0.016 A 
HETATM   13  C   UNL     1      26.711  45.141  52.547  1.00  0.00     0.015 A 
HETATM   14  C   UNL     1      27.424  42.917  53.133  1.00  0.00     0.046 A 
HETATM   15  C   UNL     1      26.721  45.495  53.902  1.00  0.00     0.001 A 
HETATM   16  C   UNL     1      27.076  44.560  54.871  1.00  0.00     0.001 A 
HETATM   17  C   UNL     1      27.434  43.270  54.489  1.00  0.00     0.018 A 
HETATM   18  C   UNL     1      27.831  41.560  52.728  1.00  0.00     0.272 A 
HETATM   19  O   UNL     1      28.167  40.718  53.553  1.00  0.00    -0.266 OA
HETATM   20  N   UNL     1      27.822  41.305  51.378  1.00  0.00    -0.242 N 
HETATM   21  N   UNL     1      27.423  42.166  50.404  1.00  0.00    -0.166 NA
HETATM   22  H   UNL     1      28.097  40.372  51.083  1.00  0.00     0.192 HD
ENDBRANCH   8  11
ENDBRANCH   1   7
BRANCH   3  23
HETATM   23  C   UNL     1      21.636  46.935  48.311  1.00  0.00     0.139 C 
BRANCH  23  24
HETATM   24  C   UNL     1      21.897  48.210  49.146  1.00  0.00     0.079 C 
BRANCH  24  25
HETATM   25  C   UNL     1      23.059  49.011  48.599  1.00  0.00    -0.020 A 
HETATM   26  C   UNL     1      24.441  48.868  48.965  1.00  0.00    -0.001 A 
HETATM   27  C   UNL     1      25.172  49.795  48.221  1.00  0.00     0.042 A 
HETATM   28  C   UNL     1      25.141  48.033  49.862  1.00  0.00     0.014 A 
HETATM   29  C   UNL     1      26.562  49.928  48.325  1.00  0.00     0.030 A 
HETATM   30  N   UNL     1      24.277  50.483  47.437  1.00  0.00    -0.365 N 
HETATM   31  C   UNL     1      27.229  49.087  49.218  1.00  0.00     0.002 A 
HETATM   32  C   UNL     1      26.531  48.151  49.977  1.00  0.00     0.001 A 
HETATM   33  H   UNL     1      24.528  51.222  46.797  1.00  0.00     0.165 HD
HETATM   34  C   UNL     1      23.008  50.019  47.650  1.00  0.00     0.097 A 
ENDBRANCH  24  25
BRANCH  24  35
HETATM   35  C   UNL     1      20.648  49.072  49.269  1.00  0.00    -0.007 A 
HETATM   36  S   UNL     1      20.675  50.476  50.259  1.00  0.00    -0.106 SA
HETATM   37  C   UNL     1      19.046  50.844  49.901  1.00  0.00     0.050 A 
HETATM   38  C   UNL     1      18.482  49.922  49.050  1.00  0.00     0.008 A 
HETATM   39  C   UNL     1      19.405  48.902  48.683  1.00  0.00     0.016 A 
ENDBRANCH  24  35
ENDBRANCH  23  24
ENDBRANCH   3  23
TORSDOF 6
ENDMDL
MODEL 5
REMARK VINA RESULT:      -9.4      1.628      2.258
REMARK  6 active torsions:
REMARK  status: ('A' for Active; 'I' for Inactive)
REMARK    1  A    between atoms: C_9  and  C_10 
REMARK       I    between atoms: C_10  and  N_11 
REMARK    2  A    between atoms: N_11  and  N_12 
REMARK       I    between atoms: N_12  and  C_13 
REMARK       I    between atoms: C_13  and  N_14 
REMARK    3  A    between atoms: N_14  and  C_15 
REMARK    4  A    between atoms: C_15  and  C_16 
REMARK    5  A    between atoms: C_16  and  C_17 
REMARK    6  A    between atoms: C_16  and  C_27 
ROOT
HETATM    1  N   UNL     1      24.473  45.348  51.832  1.00  0.00    -0.249 N 
HETATM    2  C   UNL     1      24.512  45.458  50.461  1.00  0.00     0.334 C 
HETATM    3  N   UNL     1      23.263  45.665  49.929  1.00  0.00    -0.341 N 
HETATM    4  O   UNL     1      25.540  45.354  49.804  1.00  0.00    -0.246 OA
HETATM    5  H   UNL     1      23.707  45.745  52.366  1.00  0.00     0.192 HD
HETATM    6  H   UNL     1      22.511  45.266  50.477  1.00  0.00     0.164 HD
ENDROOT
BRANCH   1   7
HETATM    7  N   UNL     1      25.682  45.155  52.517  1.00  0.00    -0.261 N 
HETATM    8  C   UNL     1      26.286  46.266  53.075  1.00  0.00     0.291 C 
HETATM    9  O   UNL     1      26.003  47.423  52.804  1.00  0.00    -0.264 OA
HETATM   10  H   UNL     1      25.785  44.259  53.004  1.00  0.00     0.190 HD
BRANCH   8  11
HETATM   11  C   UNL     1      27.341  45.910  54.128  1.00  0.00     0.157 A 
HETATM   12  C   UNL     1      28.311  44.810  53.915  1.00  0.00     0.016 A 
HETATM   13  C   UNL     1      28.309  43.963  52.802  1.00  0.00     0.015 A 
HETATM   14  C   UNL     1      29.277  44.621  54.906  1.00  0.00     0.046 A 
HETATM   15  C   UNL     1      29.281  42.964  52.674  1.00  0.00     0.001 A 
HETATM   16  C   UNL     1      30.253  42.797  53.657  1.00  0.00     0.001 A 
HETATM   17  C   UNL     1      30.250  43.622  54.779  1.00  0.00     0.018 A 
HETATM   18  C   UNL     1      29.258  45.474  56.107  1.00  0.00     0.272 A 
HETATM   19  O   UNL     1      30.087  45.343  57.000  1.00  0.00    -0.266 OA
HETATM   20  N   UNL     1      28.253  46.409  56.168  1.00  0.00    -0.242 N 
HETATM   21  N   UNL     1      27.323  46.648  55.205  1.00  0.00    -0.166 NA
HETATM   22  H   UNL     1      28.228  47.007  56.989  1.00  0.00     0.192 HD
ENDBRANCH   8  11
ENDBRANCH   1   7
BRANCH   3  23
HETATM   23  C   UNL     1      23.087  45.629  48.480  1.00  0.00     0.139 C 
BRANCH  23  24
HETATM   24  C   UNL     1      21.631  45.885  48.026  1.00  0.00     0.079 C 
BRANCH  24  25
HETATM   25  C   UNL     1      21.120  47.225  48.511  1.00  0.00    -0.020 A 
HETATM   26  C   UNL     1      21.814  48.480  48.434  1.00  0.00    -0.001 A 
HETATM   27  C   UNL     1      20.984  49.455  48.988  1.00  0.00     0.042 A 
HETATM   28  C   UNL     1      23.075  48.881  47.944  1.00  0.00     0.014 A 
HETATM   29  C   UNL     1      21.347  50.806  49.074  1.00  0.00     0.030 A 
HETATM   30  N   UNL     1      19.833  48.825  49.394  1.00  0.00    -0.365 N 
HETATM   31  C   UNL     1      22.599  51.173  48.577  1.00  0.00     0.002 A 
HETATM   32  C   UNL     1      23.454  50.226  48.019  1.00  0.00     0.001 A 
HETATM   33  H   UNL     1      19.052  49.289  49.837  1.00  0.00     0.165 HD
HETATM   34  C   UNL     1      19.899  47.489  49.109  1.00  0.00     0.097 A 
ENDBRANCH  24  25
BRANCH  24  35
HETATM   35  C   UNL     1      21.478  45.754  46.517  1.00  0.00    -0.007 A 
HETATM   36  S   UNL     1      22.544  44.733  45.638  1.00  0.00    -0.106 SA
HETATM   37  C   UNL     1      21.789  45.106  44.153  1.00  0.00     0.050 A 
HETATM   38  C   UNL     1      20.748  45.993  44.310  1.00  0.00     0.008 A 
HETATM   39  C   UNL     1      20.567  46.364  45.672  1.00  0.00     0.016 A 
ENDBRANCH  24  35
ENDBRANCH  23  24
ENDBRANCH   3  23
TORSDOF 6
ENDMDL
MODEL 6
REMARK VINA RESULT:      -9.4      2.659      3.465
REMARK  6 active torsions:
REMARK  status: ('A' for Active; 'I' for Inactive)
REMARK    1  A    between atoms: C_9  and  C_10 
REMARK       I    between atoms: C_10  and  N_11 
REMARK    2  A    between atoms: N_11  and  N_12 
REMARK       I    between atoms: N_12  and  C_13 
REMARK       I    between atoms: C_13  and  N_14 
REMARK    3  A    between atoms: N_14  and  C_15 
REMARK    4  A    between atoms: C_15  and  C_16 
REMARK    5  A    between atoms: C_16  and  C_17 
REMARK    6  A    between atoms: C_16  and  C_27 
ROOT
HETATM    1  N   UNL     1      23.507  44.885  50.551  1.00  0.00    -0.249 N 
HETATM    2  C   UNL     1      23.091  45.083  49.255  1.00  0.00     0.334 C 
HETATM    3  N   UNL     1      21.839  45.646  49.199  1.00  0.00    -0.341 N 
HETATM    4  O   UNL     1      23.756  44.767  48.276  1.00  0.00    -0.246 OA
HETATM    5  H   UNL     1      23.112  45.426  51.314  1.00  0.00     0.192 HD
HETATM    6  H   UNL     1      21.249  45.415  49.988  1.00  0.00     0.164 HD
ENDROOT
BRANCH   1   7
HETATM    7  N   UNL     1      24.779  44.336  50.763  1.00  0.00    -0.261 N 
HETATM    8  C   UNL     1      25.182  44.137  52.071  1.00  0.00     0.291 C 
HETATM    9  O   UNL     1      24.643  44.634  53.049  1.00  0.00    -0.264 OA
HETATM   10  H   UNL     1      25.105  43.669  50.056  1.00  0.00     0.190 HD
BRANCH   8  11
HETATM   11  C   UNL     1      26.368  43.174  52.195  1.00  0.00     0.157 A 
HETATM   12  C   UNL     1      27.500  43.451  53.109  1.00  0.00     0.016 A 
HETATM   13  C   UNL     1      27.633  44.619  53.867  1.00  0.00     0.015 A 
HETATM   14  C   UNL     1      28.490  42.471  53.199  1.00  0.00     0.046 A 
HETATM   15  C   UNL     1      28.727  44.783  54.725  1.00  0.00     0.001 A 
HETATM   16  C   UNL     1      29.699  43.791  54.824  1.00  0.00     0.001 A 
HETATM   17  C   UNL     1      29.586  42.634  54.057  1.00  0.00     0.018 A 
HETATM   18  C   UNL     1      28.388  41.259  52.368  1.00  0.00     0.272 A 
HETATM   19  O   UNL     1      29.234  40.374  52.416  1.00  0.00    -0.266 OA
HETATM   20  N   UNL     1      27.300  41.191  51.532  1.00  0.00    -0.242 N 
HETATM   21  N   UNL     1      26.296  42.105  51.449  1.00  0.00    -0.166 NA
HETATM   22  H   UNL     1      27.213  40.359  50.954  1.00  0.00     0.192 HD
ENDBRANCH   8  11
ENDBRANCH   1   7
BRANCH   3  23
HETATM   23  C   UNL     1      21.165  45.765  47.910  1.00  0.00     0.139 C 
BRANCH  23  24
HETATM   24  C   UNL     1      19.866  46.603  47.966  1.00  0.00     0.079 C 
BRANCH  24  25
HETATM   25  C   UNL     1      20.041  47.854  48.799  1.00  0.00    -0.020 A 
HETATM   26  C   UNL     1      21.041  48.869  48.612  1.00  0.00    -0.001 A 
HETATM   27  C   UNL     1      20.840  49.843  49.591  1.00  0.00     0.042 A 
HETATM   28  C   UNL     1      22.101  49.052  47.699  1.00  0.00     0.014 A 
HETATM   29  C   UNL     1      21.639  50.988  49.702  1.00  0.00     0.030 A 
HETATM   30  N   UNL     1      19.768  49.440  50.350  1.00  0.00    -0.365 N 
HETATM   31  C   UNL     1      22.679  51.144  48.782  1.00  0.00     0.002 A 
HETATM   32  C   UNL     1      22.909  50.191  47.794  1.00  0.00     0.001 A 
HETATM   33  H   UNL     1      19.400  49.954  51.139  1.00  0.00     0.165 HD
HETATM   34  C   UNL     1      19.276  48.253  49.883  1.00  0.00     0.097 A 
ENDBRANCH  24  25
BRANCH  24  35
HETATM   35  C   UNL     1      19.350  46.940  46.573  1.00  0.00    -0.007 A 
HETATM   36  S   UNL     1      18.001  47.990  46.396  1.00  0.00    -0.106 SA
HETATM   37  C   UNL     1      18.042  47.867  44.693  1.00  0.00     0.050 A 
HETATM   38  C   UNL     1      19.054  47.042  44.258  1.00  0.00     0.008 A 
HETATM   39  C   UNL     1      19.809  46.510  45.340  1.00  0.00     0.016 A 
ENDBRANCH  24  35
ENDBRANCH  23  24
ENDBRANCH   3  23
TORSDOF 6
ENDMDL
MODEL 7
REMARK VINA RESULT:      -9.3      5.476      7.800
REMARK  6 active torsions:
REMARK  status: ('A' for Active; 'I' for Inactive)
REMARK    1  A    between atoms: C_9  and  C_10 
REMARK       I    between atoms: C_10  and  N_11 
REMARK    2  A    between atoms: N_11  and  N_12 
REMARK       I    between atoms: N_12  and  C_13 
REMARK       I    between atoms: C_13  and  N_14 
REMARK    3  A    between atoms: N_14  and  C_15 
REMARK    4  A    between atoms: C_15  and  C_16 
REMARK    5  A    between atoms: C_16  and  C_17 
REMARK    6  A    between atoms: C_16  and  C_27 
ROOT
HETATM    1  N   UNL     1      28.924  40.716  52.366  1.00  0.00    -0.249 N 
HETATM    2  C   UNL     1      28.395  41.001  51.128  1.00  0.00     0.334 C 
HETATM    3  N   UNL     1      28.615  39.985  50.230  1.00  0.00    -0.341 N 
HETATM    4  O   UNL     1      27.821  42.051  50.864  1.00  0.00    -0.246 OA
HETATM    5  H   UNL     1      29.096  39.758  52.651  1.00  0.00     0.192 HD
HETATM    6  H   UNL     1      29.454  39.450  50.414  1.00  0.00     0.164 HD
ENDROOT
BRANCH   1   7
HETATM    7  N   UNL     1      28.757  41.657  53.392  1.00  0.00    -0.261 N 
HETATM    8  C   UNL     1      29.716  42.645  53.518  1.00  0.00     0.291 C 
HETATM    9  O   UNL     1      30.818  42.618  52.992  1.00  0.00    -0.264 OA
HETATM   10  H   UNL     1      27.788  41.897  53.628  1.00  0.00     0.190 HD
BRANCH   8  11
HETATM   11  C   UNL     1      29.246  43.834  54.363  1.00  0.00     0.157 A 
HETATM   12  C   UNL     1      29.896  44.178  55.649  1.00  0.00     0.016 A 
HETATM   13  C   UNL     1      30.919  43.428  56.240  1.00  0.00     0.015 A 
HETATM   14  C   UNL     1      29.437  45.325  56.300  1.00  0.00     0.046 A 
HETATM   15  C   UNL     1      31.491  43.844  57.448  1.00  0.00     0.001 A 
HETATM   16  C   UNL     1      31.041  45.002  58.078  1.00  0.00     0.001 A 
HETATM   17  C   UNL     1      30.009  45.743  57.508  1.00  0.00     0.018 A 
HETATM   18  C   UNL     1      28.326  46.094  55.714  1.00  0.00     0.272 A 
HETATM   19  O   UNL     1      27.893  47.107  56.251  1.00  0.00    -0.266 OA
HETATM   20  N   UNL     1      27.801  45.601  54.544  1.00  0.00    -0.242 N 
HETATM   21  N   UNL     1      28.249  44.512  53.862  1.00  0.00    -0.166 NA
HETATM   22  H   UNL     1      27.036  46.122  54.125  1.00  0.00     0.192 HD
ENDBRANCH   8  11
ENDBRANCH   1   7
BRANCH   3  23
HETATM   23  C   UNL     1      28.280  40.187  48.824  1.00  0.00     0.139 C 
BRANCH  23  24
HETATM   24  C   UNL     1      26.994  39.450  48.382  1.00  0.00     0.079 C 
BRANCH  24  25
HETATM   25  C   UNL     1      26.067  40.357  47.603  1.00  0.00    -0.020 A 
HETATM   26  C   UNL     1      25.070  41.233  48.153  1.00  0.00    -0.001 A 
HETATM   27  C   UNL     1      24.449  41.887  47.088  1.00  0.00     0.042 A 
HETATM   28  C   UNL     1      24.636  41.533  49.462  1.00  0.00     0.014 A 
HETATM   29  C   UNL     1      23.423  42.823  47.263  1.00  0.00     0.030 A 
HETATM   30  N   UNL     1      25.035  41.427  45.933  1.00  0.00    -0.365 N 
HETATM   31  C   UNL     1      23.016  43.102  48.570  1.00  0.00     0.002 A 
HETATM   32  C   UNL     1      23.612  42.468  49.656  1.00  0.00     0.001 A 
HETATM   33  H   UNL     1      24.778  41.726  45.003  1.00  0.00     0.165 HD
HETATM   34  C   UNL     1      26.010  40.514  46.228  1.00  0.00     0.097 A 
ENDBRANCH  24  25
BRANCH  24  35
HETATM   35  C   UNL     1      27.310  38.184  47.597  1.00  0.00    -0.007 A 
HETATM   36  S   UNL     1      26.169  36.900  47.556  1.00  0.00    -0.106 SA
HETATM   37  C   UNL     1      27.180  35.941  46.569  1.00  0.00     0.050 A 
HETATM   38  C   UNL     1      28.366  36.573  46.274  1.00  0.00     0.008 A 
HETATM   39  C   UNL     1      28.440  37.866  46.864  1.00  0.00     0.016 A 
ENDBRANCH  24  35
ENDBRANCH  23  24
ENDBRANCH   3  23
TORSDOF 6
ENDMDL
MODEL 8
REMARK VINA RESULT:      -9.0      4.035     11.412
REMARK  6 active torsions:
REMARK  status: ('A' for Active; 'I' for Inactive)
REMARK    1  A    between atoms: C_9  and  C_10 
REMARK       I    between atoms: C_10  and  N_11 
REMARK    2  A    between atoms: N_11  and  N_12 
REMARK       I    between atoms: N_12  and  C_13 
REMARK       I    between atoms: C_13  and  N_14 
REMARK    3  A    between atoms: N_14  and  C_15 
REMARK    4  A    between atoms: C_15  and  C_16 
REMARK    5  A    between atoms: C_16  and  C_17 
REMARK    6  A    between atoms: C_16  and  C_27 
ROOT
HETATM    1  N   UNL     1      20.329  47.586  48.694  1.00  0.00    -0.249 N 
HETATM    2  C   UNL     1      21.601  47.257  48.287  1.00  0.00     0.334 C 
HETATM    3  N   UNL     1      22.327  46.670  49.294  1.00  0.00    -0.341 N 
HETATM    4  O   UNL     1      22.032  47.491  47.164  1.00  0.00    -0.246 OA
HETATM    5  H   UNL     1      19.895  47.113  49.481  1.00  0.00     0.192 HD
HETATM    6  H   UNL     1      22.052  46.964  50.223  1.00  0.00     0.164 HD
ENDROOT
BRANCH   1   7
HETATM    7  N   UNL     1      19.464  48.175  47.761  1.00  0.00    -0.261 N 
HETATM    8  C   UNL     1      18.110  47.936  47.902  1.00  0.00     0.291 C 
HETATM    9  O   UNL     1      17.626  47.055  48.598  1.00  0.00    -0.264 OA
HETATM   10  H   UNL     1      19.753  49.088  47.394  1.00  0.00     0.190 HD
BRANCH   8  11
HETATM   11  C   UNL     1      17.241  48.928  47.122  1.00  0.00     0.157 A 
HETATM   12  C   UNL     1      16.758  50.187  47.737  1.00  0.00     0.016 A 
HETATM   13  C   UNL     1      16.976  50.546  49.071  1.00  0.00     0.015 A 
HETATM   14  C   UNL     1      16.037  51.054  46.913  1.00  0.00     0.046 A 
HETATM   15  C   UNL     1      16.502  51.770  49.559  1.00  0.00     0.001 A 
HETATM   16  C   UNL     1      15.802  52.637  48.724  1.00  0.00     0.001 A 
HETATM   17  C   UNL     1      15.563  52.279  47.400  1.00  0.00     0.018 A 
HETATM   18  C   UNL     1      15.758  50.664  45.520  1.00  0.00     0.272 A 
HETATM   19  O   UNL     1      15.129  51.395  44.763  1.00  0.00    -0.266 OA
HETATM   20  N   UNL     1      16.231  49.435  45.131  1.00  0.00    -0.242 N 
HETATM   21  N   UNL     1      16.972  48.585  45.892  1.00  0.00    -0.166 NA
HETATM   22  H   UNL     1      16.050  49.153  44.171  1.00  0.00     0.192 HD
ENDBRANCH   8  11
ENDBRANCH   1   7
BRANCH   3  23
HETATM   23  C   UNL     1      23.750  46.416  49.097  1.00  0.00     0.139 C 
BRANCH  23  24
HETATM   24  C   UNL     1      24.652  47.099  50.153  1.00  0.00     0.079 C 
BRANCH  24  25
HETATM   25  C   UNL     1      25.471  46.089  50.927  1.00  0.00    -0.020 A 
HETATM   26  C   UNL     1      25.974  46.244  52.264  1.00  0.00    -0.001 A 
HETATM   27  C   UNL     1      26.669  45.079  52.591  1.00  0.00     0.042 A 
HETATM   28  C   UNL     1      25.902  47.270  53.231  1.00  0.00     0.014 A 
HETATM   29  C   UNL     1      27.291  44.886  53.831  1.00  0.00     0.030 A 
HETATM   30  N   UNL     1      26.602  44.247  51.499  1.00  0.00    -0.365 N 
HETATM   31  C   UNL     1      27.200  45.917  54.769  1.00  0.00     0.002 A 
HETATM   32  C   UNL     1      26.516  47.093  54.476  1.00  0.00     0.001 A 
HETATM   33  H   UNL     1      27.025  43.331  51.452  1.00  0.00     0.165 HD
HETATM   34  C   UNL     1      25.883  44.838  50.498  1.00  0.00     0.097 A 
ENDBRANCH  24  25
BRANCH  24  35
HETATM   35  C   UNL     1      25.543  48.165  49.531  1.00  0.00    -0.007 A 
HETATM   36  S   UNL     1      24.841  49.416  48.585  1.00  0.00    -0.106 SA
HETATM   37  C   UNL     1      26.361  50.130  48.275  1.00  0.00     0.050 A 
HETATM   38  C   UNL     1      27.389  49.436  48.870  1.00  0.00     0.008 A 
HETATM   39  C   UNL     1      26.919  48.306  49.596  1.00  0.00     0.016 A 
ENDBRANCH  24  35
ENDBRANCH  23  24
ENDBRANCH   3  23
TORSDOF 6
ENDMDL
MODEL 9
REMARK VINA RESULT:      -8.9     13.788     14.800
REMARK  6 active torsions:
REMARK  status: ('A' for Active; 'I' for Inactive)
REMARK    1  A    between atoms: C_9  and  C_10 
REMARK       I    between atoms: C_10  and  N_11 
REMARK    2  A    between atoms: N_11  and  N_12 
REMARK       I    between atoms: N_12  and  C_13 
REMARK       I    between atoms: C_13  and  N_14 
REMARK    3  A    between atoms: N_14  and  C_15 
REMARK    4  A    between atoms: C_15  and  C_16 
REMARK    5  A    between atoms: C_16  and  C_17 
REMARK    6  A    between atoms: C_16  and  C_27 
ROOT
HETATM    1  N   UNL     1      35.232  50.509  42.913  1.00  0.00    -0.249 N 
HETATM    2  C   UNL     1      34.101  50.649  42.142  1.00  0.00     0.334 C 
HETATM    3  N   UNL     1      33.649  49.440  41.671  1.00  0.00    -0.341 N 
HETATM    4  O   UNL     1      33.584  51.731  41.891  1.00  0.00    -0.246 OA
HETATM    5  H   UNL     1      35.449  49.626  43.365  1.00  0.00     0.192 HD
HETATM    6  H   UNL     1      34.378  48.750  41.544  1.00  0.00     0.164 HD
ENDROOT
BRANCH   1   7
HETATM    7  N   UNL     1      35.795  51.661  43.480  1.00  0.00    -0.261 N 
HETATM    8  C   UNL     1      37.144  51.883  43.276  1.00  0.00     0.291 C 
HETATM    9  O   UNL     1      37.935  51.042  42.874  1.00  0.00    -0.264 OA
HETATM   10  H   UNL     1      35.180  52.479  43.542  1.00  0.00     0.190 HD
BRANCH   8  11
HETATM   11  C   UNL     1      37.565  53.328  43.561  1.00  0.00     0.157 A 
HETATM   12  C   UNL     1      38.028  53.751  44.903  1.00  0.00     0.016 A 
HETATM   13  C   UNL     1      38.050  52.919  46.027  1.00  0.00     0.015 A 
HETATM   14  C   UNL     1      38.460  55.073  45.032  1.00  0.00     0.046 A 
HETATM   15  C   UNL     1      38.528  53.400  47.252  1.00  0.00     0.001 A 
HETATM   16  C   UNL     1      38.977  54.714  47.366  1.00  0.00     0.001 A 
HETATM   17  C   UNL     1      38.939  55.555  46.257  1.00  0.00     0.018 A 
HETATM   18  C   UNL     1      38.393  55.973  43.868  1.00  0.00     0.272 A 
HETATM   19  O   UNL     1      38.763  57.140  43.938  1.00  0.00    -0.266 OA
HETATM   20  N   UNL     1      37.884  55.431  42.714  1.00  0.00    -0.242 N 
HETATM   21  N   UNL     1      37.494  54.139  42.541  1.00  0.00    -0.166 NA
HETATM   22  H   UNL     1      37.835  56.039  41.901  1.00  0.00     0.192 HD
ENDBRANCH   8  11
ENDBRANCH   1   7
BRANCH   3  23
HETATM   23  C   UNL     1      32.565  49.413  40.694  1.00  0.00     0.139 C 
BRANCH  23  24
HETATM   24  C   UNL     1      31.157  49.358  41.332  1.00  0.00     0.079 C 
BRANCH  24  25
HETATM   25  C   UNL     1      30.432  50.680  41.204  1.00  0.00    -0.020 A 
HETATM   26  C   UNL     1      30.034  51.319  39.980  1.00  0.00    -0.001 A 
HETATM   27  C   UNL     1      29.392  52.511  40.317  1.00  0.00     0.042 A 
HETATM   28  C   UNL     1      30.160  50.994  38.613  1.00  0.00     0.014 A 
HETATM   29  C   UNL     1      28.869  53.391  39.361  1.00  0.00     0.030 A 
HETATM   30  N   UNL     1      29.401  52.604  41.688  1.00  0.00    -0.365 N 
HETATM   31  C   UNL     1      29.005  53.042  38.016  1.00  0.00     0.002 A 
HETATM   32  C   UNL     1      29.641  51.861  37.644  1.00  0.00     0.001 A 
HETATM   33  H   UNL     1      29.007  53.372  42.212  1.00  0.00     0.165 HD
HETATM   34  C   UNL     1      30.016  51.510  42.232  1.00  0.00     0.097 A 
ENDBRANCH  24  25
BRANCH  24  35
HETATM   35  C   UNL     1      30.323  48.218  40.763  1.00  0.00    -0.007 A 
HETATM   36  S   UNL     1      28.690  48.027  41.263  1.00  0.00    -0.106 SA
HETATM   37  C   UNL     1      28.475  46.653  40.271  1.00  0.00     0.050 A 
HETATM   38  C   UNL     1      29.617  46.335  39.573  1.00  0.00     0.008 A 
HETATM   39  C   UNL     1      30.681  47.238  39.854  1.00  0.00     0.016 A 
ENDBRANCH  24  35
ENDBRANCH  23  24
ENDBRANCH   3  23
TORSDOF 6
ENDMDL
MODEL 10
REMARK VINA RESULT:      -8.9      5.517      9.996
REMARK  6 active torsions:
REMARK  status: ('A' for Active; 'I' for Inactive)
REMARK    1  A    between atoms: C_9  and  C_10 
REMARK       I    between atoms: C_10  and  N_11 
REMARK    2  A    between atoms: N_11  and  N_12 
REMARK       I    between atoms: N_12  and  C_13 
REMARK       I    between atoms: C_13  and  N_14 
REMARK    3  A    between atoms: N_14  and  C_15 
REMARK    4  A    between atoms: C_15  and  C_16 
REMARK    5  A    between atoms: C_16  and  C_17 
REMARK    6  A    between atoms: C_16  and  C_27 
ROOT
HETATM    1  N   UNL     1      26.517  40.412  51.376  1.00  0.00    -0.249 N 
HETATM    2  C   UNL     1      27.654  40.949  51.936  1.00  0.00     0.334 C 
HETATM    3  N   UNL     1      27.528  41.113  53.294  1.00  0.00    -0.341 N 
HETATM    4  O   UNL     1      28.643  41.264  51.285  1.00  0.00    -0.246 OA
HETATM    5  H   UNL     1      25.864  39.875  51.937  1.00  0.00     0.192 HD
HETATM    6  H   UNL     1      26.577  41.270  53.602  1.00  0.00     0.164 HD
ENDROOT
BRANCH   1   7
HETATM    7  N   UNL     1      26.509  40.168  49.995  1.00  0.00    -0.261 N 
HETATM    8  C   UNL     1      25.887  41.099  49.184  1.00  0.00     0.291 C 
HETATM    9  O   UNL     1      25.125  41.969  49.579  1.00  0.00    -0.264 OA
HETATM   10  H   UNL     1      27.327  39.677  49.620  1.00  0.00     0.190 HD
BRANCH   8  11
HETATM   11  C   UNL     1      26.283  40.970  47.709  1.00  0.00     0.157 A 
HETATM   12  C   UNL     1      25.310  40.541  46.678  1.00  0.00     0.016 A 
HETATM   13  C   UNL     1      23.995  40.148  46.951  1.00  0.00     0.015 A 
HETATM   14  C   UNL     1      25.757  40.531  45.355  1.00  0.00     0.046 A 
HETATM   15  C   UNL     1      23.137  39.781  45.907  1.00  0.00     0.001 A 
HETATM   16  C   UNL     1      23.586  39.795  44.589  1.00  0.00     0.001 A 
HETATM   17  C   UNL     1      24.899  40.165  44.310  1.00  0.00     0.018 A 
HETATM   18  C   UNL     1      27.154  40.894  45.061  1.00  0.00     0.272 A 
HETATM   19  O   UNL     1      27.587  40.899  43.914  1.00  0.00    -0.266 OA
HETATM   20  N   UNL     1      27.937  41.211  46.144  1.00  0.00    -0.242 N 
HETATM   21  N   UNL     1      27.524  41.272  47.439  1.00  0.00    -0.166 NA
HETATM   22  H   UNL     1      28.902  41.468  45.957  1.00  0.00     0.192 HD
ENDBRANCH   8  11
ENDBRANCH   1   7
BRANCH   3  23
HETATM   23  C   UNL     1      28.566  41.832  54.027  1.00  0.00     0.139 C 
BRANCH  23  24
HETATM   24  C   UNL     1      28.613  43.345  53.709  1.00  0.00     0.079 C 
BRANCH  24  25
HETATM   25  C   UNL     1      27.235  43.903  53.430  1.00  0.00    -0.020 A 
HETATM   26  C   UNL     1      26.762  44.420  52.176  1.00  0.00    -0.001 A 
HETATM   27  C   UNL     1      25.438  44.823  52.359  1.00  0.00     0.042 A 
HETATM   28  C   UNL     1      27.337  44.584  50.898  1.00  0.00     0.014 A 
HETATM   29  C   UNL     1      24.662  45.377  51.333  1.00  0.00     0.030 A 
HETATM   30  N   UNL     1      25.114  44.571  53.670  1.00  0.00    -0.365 N 
HETATM   31  C   UNL     1      25.257  45.524  50.078  1.00  0.00     0.002 A 
HETATM   32  C   UNL     1      26.575  45.134  49.860  1.00  0.00     0.001 A 
HETATM   33  H   UNL     1      24.215  44.769  54.086  1.00  0.00     0.165 HD
HETATM   34  C   UNL     1      26.180  44.014  54.322  1.00  0.00     0.097 A 
ENDBRANCH  24  25
BRANCH  24  35
HETATM   35  C   UNL     1      29.310  44.132  54.810  1.00  0.00    -0.007 A 
HETATM   36  S   UNL     1      30.659  43.446  55.624  1.00  0.00    -0.106 SA
HETATM   37  C   UNL     1      30.845  44.821  56.620  1.00  0.00     0.050 A 
HETATM   38  C   UNL     1      29.902  45.787  56.351  1.00  0.00     0.008 A 
HETATM   39  C   UNL     1      29.020  45.391  55.306  1.00  0.00     0.016 A 
ENDBRANCH  24  35
ENDBRANCH  23  24
ENDBRANCH   3  23
TORSDOF 6
ENDMDL
