MODEL 1
REMARK VINA RESULT:      -8.3      0.000      0.000
REMARK  5 active torsions:
REMARK  status: ('A' for Active; 'I' for Inactive)
REMARK    1  A    between atoms: C_2  and  N_3 
REMARK    2  A    between atoms: N_3  and  C_6 
REMARK    3  A    between atoms: C_6  and  C_7 
REMARK    4  A    between atoms: C_8  and  N_9 
REMARK       I    between atoms: N_9  and  C_10 
REMARK    5  A    between atoms: C_10  and  C_11 
ROOT
HETATM    1  N   UNL     1      28.619  45.574  54.875  1.00  0.00    -0.322 N 
HETATM    2  C   UNL     1      27.369  45.111  54.528  1.00  0.00     0.259 C 
HETATM    3  O   UNL     1      26.906  44.032  54.866  1.00  0.00    -0.267 OA
HETATM    4  H   UNL     1      28.756  46.561  54.663  1.00  0.00     0.169 HD
ENDROOT
BRANCH   1   5
HETATM    5  C   UNL     1      29.601  45.009  55.735  1.00  0.00     0.043 A 
HETATM    6  C   UNL     1      30.430  43.885  55.513  1.00  0.00    -0.006 A 
HETATM    7  C   UNL     1      31.296  43.473  56.557  1.00  0.00     0.011 A 
HETATM    8  C   UNL     1      31.382  44.164  57.763  1.00  0.00     0.001 A 
HETATM    9  C   UNL     1      30.609  45.294  57.955  1.00  0.00     0.002 A 
HETATM   10  C   UNL     1      29.734  45.711  56.952  1.00  0.00     0.030 A 
BRANCH   6  11
HETATM   11  C   UNL     1      30.543  43.076  54.242  1.00  0.00     0.273 C 
BRANCH  11  12
HETATM   12  N   UNL     1      29.309  42.293  53.951  1.00  0.00    -0.072 N 
HETATM   13  H   UNL     1      28.535  42.666  54.513  1.00  0.00     0.277 HD
HETATM   14  H   UNL     1      29.492  41.342  54.288  1.00  0.00     0.277 HD
BRANCH  12  15
HETATM   15  C   UNL     1      28.947  42.197  52.513  1.00  0.00     0.228 C 
HETATM   16  C   UNL     1      27.644  41.429  52.397  1.00  0.00     0.034 C 
ENDBRANCH  12  15
ENDBRANCH  11  12
ENDBRANCH   6  11
ENDBRANCH   1   5
BRANCH   2  17
HETATM   17  C   UNL     1      26.633  45.984  53.643  1.00  0.00     0.067 A 
HETATM   18  C   UNL     1      26.322  45.840  52.254  1.00  0.00     0.015 A 
HETATM   19  C   UNL     1      25.510  46.926  51.936  1.00  0.00     0.086 A 
HETATM   20  C   UNL     1      26.591  44.895  51.244  1.00  0.00     0.015 A 
HETATM   21  C   UNL     1      24.952  47.149  50.681  1.00  0.00     0.038 A 
HETATM   22  O   UNL     1      25.324  47.714  53.027  1.00  0.00    -0.321 OA
HETATM   23  C   UNL     1      25.231  46.198  49.696  1.00  0.00     0.003 A 
HETATM   24  C   UNL     1      26.036  45.090  49.970  1.00  0.00     0.001 A 
HETATM   25  C   UNL     1      25.986  47.133  54.056  1.00  0.00     0.160 A 
ENDBRANCH   2  17
TORSDOF 5
ENDMDL
MODEL 2
REMARK VINA RESULT:      -7.7      2.412      6.861
REMARK  5 active torsions:
REMARK  status: ('A' for Active; 'I' for Inactive)
REMARK    1  A    between atoms: C_2  and  N_3 
REMARK    2  A    between atoms: N_3  and  C_6 
REMARK    3  A    between atoms: C_6  and  C_7 
REMARK    4  A    between atoms: C_8  and  N_9 
REMARK       I    between atoms: N_9  and  C_10 
REMARK    5  A    between atoms: C_10  and  C_11 
ROOT
HETATM    1  N   UNL     1      26.649  45.408  52.786  1.00  0.00    -0.322 N 
HETATM    2  C   UNL     1      26.523  45.984  54.031  1.00  0.00     0.259 C 
HETATM    3  O   UNL     1      25.556  46.631  54.405  1.00  0.00    -0.267 OA
HETATM    4  H   UNL     1      27.430  44.756  52.723  1.00  0.00     0.169 HD
ENDROOT
BRANCH   1   5
HETATM    5  C   UNL     1      25.721  45.331  51.711  1.00  0.00     0.043 A 
HETATM    6  C   UNL     1      25.430  46.301  50.724  1.00  0.00    -0.006 A 
HETATM    7  C   UNL     1      24.409  46.014  49.783  1.00  0.00     0.011 A 
HETATM    8  C   UNL     1      23.726  44.800  49.779  1.00  0.00     0.001 A 
HETATM    9  C   UNL     1      24.052  43.834  50.713  1.00  0.00     0.002 A 
HETATM   10  C   UNL     1      25.039  44.096  51.662  1.00  0.00     0.030 A 
BRANCH   6  11
HETATM   11  C   UNL     1      26.129  47.623  50.515  1.00  0.00     0.273 C 
BRANCH  11  12
HETATM   12  N   UNL     1      25.518  48.425  49.416  1.00  0.00    -0.072 N 
HETATM   13  H   UNL     1      24.682  48.901  49.774  1.00  0.00     0.277 HD
HETATM   14  H   UNL     1      25.202  47.749  48.715  1.00  0.00     0.277 HD
BRANCH  12  15
HETATM   15  C   UNL     1      26.441  49.374  48.740  1.00  0.00     0.228 C 
HETATM   16  C   UNL     1      27.863  49.020  49.132  1.00  0.00     0.034 C 
ENDBRANCH  12  15
ENDBRANCH  11  12
ENDBRANCH   6  11
ENDBRANCH   1   5
BRANCH   2  17
HETATM   17  C   UNL     1      27.681  45.832  54.882  1.00  0.00     0.067 A 
HETATM   18  C   UNL     1      28.656  44.787  54.932  1.00  0.00     0.015 A 
HETATM   19  C   UNL     1      29.601  45.199  55.868  1.00  0.00     0.086 A 
HETATM   20  C   UNL     1      28.876  43.567  54.261  1.00  0.00     0.015 A 
HETATM   21  C   UNL     1      30.747  44.481  56.197  1.00  0.00     0.038 A 
HETATM   22  O   UNL     1      29.255  46.404  56.391  1.00  0.00    -0.321 OA
HETATM   23  C   UNL     1      30.944  43.276  55.518  1.00  0.00     0.003 A 
HETATM   24  C   UNL     1      30.027  42.825  54.566  1.00  0.00     0.001 A 
HETATM   25  C   UNL     1      28.109  46.790  55.779  1.00  0.00     0.160 A 
ENDBRANCH   2  17
TORSDOF 5
ENDMDL
MODEL 3
REMARK VINA RESULT:      -7.7      2.106      6.713
REMARK  5 active torsions:
REMARK  status: ('A' for Active; 'I' for Inactive)
REMARK    1  A    between atoms: C_2  and  N_3 
REMARK    2  A    between atoms: N_3  and  C_6 
REMARK    3  A    between atoms: C_6  and  C_7 
REMARK    4  A    between atoms: C_8  and  N_9 
REMARK       I    between atoms: N_9  and  C_10 
REMARK    5  A    between atoms: C_10  and  C_11 
ROOT
HETATM    1  N   UNL     1      27.735  43.564  52.770  1.00  0.00    -0.322 N 
HETATM    2  C   UNL     1      29.027  43.718  53.221  1.00  0.00     0.259 C 
HETATM    3  O   UNL     1      30.016  43.243  52.682  1.00  0.00    -0.267 OA
HETATM    4  H   UNL     1      27.071  44.182  53.233  1.00  0.00     0.169 HD
ENDROOT
BRANCH   1   5
HETATM    5  C   UNL     1      27.242  42.938  51.592  1.00  0.00     0.043 A 
HETATM    6  C   UNL     1      26.877  43.532  50.361  1.00  0.00    -0.006 A 
HETATM    7  C   UNL     1      26.349  42.697  49.344  1.00  0.00     0.011 A 
HETATM    8  C   UNL     1      26.223  41.320  49.507  1.00  0.00     0.001 A 
HETATM    9  C   UNL     1      26.633  40.737  50.693  1.00  0.00     0.002 A 
HETATM   10  C   UNL     1      27.139  41.536  51.717  1.00  0.00     0.030 A 
BRANCH   6  11
HETATM   11  C   UNL     1      27.032  44.983  49.971  1.00  0.00     0.273 C 
BRANCH  11  12
HETATM   12  N   UNL     1      25.816  45.790  50.276  1.00  0.00    -0.072 N 
HETATM   13  H   UNL     1      25.193  45.242  50.880  1.00  0.00     0.277 HD
HETATM   14  H   UNL     1      25.331  45.918  49.383  1.00  0.00     0.277 HD
BRANCH  12  15
HETATM   15  C   UNL     1      26.080  47.140  50.840  1.00  0.00     0.228 C 
HETATM   16  C   UNL     1      25.979  47.055  52.351  1.00  0.00     0.034 C 
ENDBRANCH  12  15
ENDBRANCH  11  12
ENDBRANCH   6  11
ENDBRANCH   1   5
BRANCH   2  17
HETATM   17  C   UNL     1      29.144  44.449  54.462  1.00  0.00     0.067 A 
HETATM   18  C   UNL     1      30.000  44.224  55.586  1.00  0.00     0.015 A 
HETATM   19  C   UNL     1      29.762  45.284  56.457  1.00  0.00     0.086 A 
HETATM   20  C   UNL     1      30.981  43.279  55.946  1.00  0.00     0.015 A 
HETATM   21  C   UNL     1      30.421  45.469  57.669  1.00  0.00     0.038 A 
HETATM   22  O   UNL     1      28.818  46.116  55.944  1.00  0.00    -0.321 OA
HETATM   23  C   UNL     1      31.390  44.520  58.003  1.00  0.00     0.003 A 
HETATM   24  C   UNL     1      31.667  43.443  57.158  1.00  0.00     0.001 A 
HETATM   25  C   UNL     1      28.464  45.620  54.734  1.00  0.00     0.160 A 
ENDBRANCH   2  17
TORSDOF 5
ENDMDL
MODEL 4
REMARK VINA RESULT:      -7.6      1.507      3.466
REMARK  5 active torsions:
REMARK  status: ('A' for Active; 'I' for Inactive)
REMARK    1  A    between atoms: C_2  and  N_3 
REMARK    2  A    between atoms: N_3  and  C_6 
REMARK    3  A    between atoms: C_6  and  C_7 
REMARK    4  A    between atoms: C_8  and  N_9 
REMARK       I    between atoms: N_9  and  C_10 
REMARK    5  A    between atoms: C_10  and  C_11 
ROOT
HETATM    1  N   UNL     1      28.965  44.286  54.125  1.00  0.00    -0.322 N 
HETATM    2  C   UNL     1      27.667  43.904  53.871  1.00  0.00     0.259 C 
HETATM    3  O   UNL     1      26.886  43.482  54.711  1.00  0.00    -0.267 OA
HETATM    4  H   UNL     1      29.397  44.784  53.348  1.00  0.00     0.169 HD
ENDROOT
BRANCH   1   5
HETATM    5  C   UNL     1      29.671  44.379  55.356  1.00  0.00     0.043 A 
HETATM    6  C   UNL     1      29.501  45.313  56.405  1.00  0.00    -0.006 A 
HETATM    7  C   UNL     1      30.376  45.238  57.518  1.00  0.00     0.011 A 
HETATM    8  C   UNL     1      31.356  44.255  57.624  1.00  0.00     0.001 A 
HETATM    9  C   UNL     1      31.483  43.311  56.621  1.00  0.00     0.002 A 
HETATM   10  C   UNL     1      30.648  43.371  55.506  1.00  0.00     0.030 A 
BRANCH   6  11
HETATM   11  C   UNL     1      28.437  46.381  56.507  1.00  0.00     0.273 C 
BRANCH  11  12
HETATM   12  N   UNL     1      28.324  47.196  55.264  1.00  0.00    -0.072 N 
HETATM   13  H   UNL     1      28.834  46.725  54.507  1.00  0.00     0.277 HD
HETATM   14  H   UNL     1      28.817  48.074  55.456  1.00  0.00     0.277 HD
BRANCH  12  15
HETATM   15  C   UNL     1      26.936  47.540  54.860  1.00  0.00     0.228 C 
HETATM   16  C   UNL     1      26.435  48.650  55.765  1.00  0.00     0.034 C 
ENDBRANCH  12  15
ENDBRANCH  11  12
ENDBRANCH   6  11
ENDBRANCH   1   5
BRANCH   2  17
HETATM   17  C   UNL     1      27.286  43.968  52.478  1.00  0.00     0.067 A 
HETATM   18  C   UNL     1      26.421  44.884  51.801  1.00  0.00     0.015 A 
HETATM   19  C   UNL     1      26.490  44.540  50.453  1.00  0.00     0.086 A 
HETATM   20  C   UNL     1      25.629  45.992  52.162  1.00  0.00     0.015 A 
HETATM   21  C   UNL     1      25.820  45.211  49.435  1.00  0.00     0.038 A 
HETATM   22  O   UNL     1      27.320  43.478  50.278  1.00  0.00    -0.321 OA
HETATM   23  C   UNL     1      25.042  46.307  49.817  1.00  0.00     0.003 A 
HETATM   24  C   UNL     1      24.946  46.693  51.155  1.00  0.00     0.001 A 
HETATM   25  C   UNL     1      27.811  43.150  51.497  1.00  0.00     0.160 A 
ENDBRANCH   2  17
TORSDOF 5
ENDMDL
MODEL 5
REMARK VINA RESULT:      -7.6      6.655     10.521
REMARK  5 active torsions:
REMARK  status: ('A' for Active; 'I' for Inactive)
REMARK    1  A    between atoms: C_2  and  N_3 
REMARK    2  A    between atoms: N_3  and  C_6 
REMARK    3  A    between atoms: C_6  and  C_7 
REMARK    4  A    between atoms: C_8  and  N_9 
REMARK       I    between atoms: N_9  and  C_10 
REMARK    5  A    between atoms: C_10  and  C_11 
ROOT
HETATM    1  N   UNL     1      21.618  49.533  49.550  1.00  0.00    -0.322 N 
HETATM    2  C   UNL     1      22.364  48.923  48.566  1.00  0.00     0.259 C 
HETATM    3  O   UNL     1      22.022  48.814  47.398  1.00  0.00    -0.267 OA
HETATM    4  H   UNL     1      22.141  49.695  50.409  1.00  0.00     0.169 HD
ENDROOT
BRANCH   1   5
HETATM    5  C   UNL     1      20.383  50.232  49.465  1.00  0.00     0.043 A 
HETATM    6  C   UNL     1      19.106  49.832  49.926  1.00  0.00    -0.006 A 
HETATM    7  C   UNL     1      18.003  50.684  49.666  1.00  0.00     0.011 A 
HETATM    8  C   UNL     1      18.148  51.908  49.018  1.00  0.00     0.001 A 
HETATM    9  C   UNL     1      19.407  52.319  48.618  1.00  0.00     0.002 A 
HETATM   10  C   UNL     1      20.507  51.493  48.843  1.00  0.00     0.030 A 
BRANCH   6  11
HETATM   11  C   UNL     1      18.776  48.595  50.726  1.00  0.00     0.273 C 
BRANCH  11  12
HETATM   12  N   UNL     1      17.962  47.614  49.952  1.00  0.00    -0.072 N 
HETATM   13  H   UNL     1      16.997  47.957  49.887  1.00  0.00     0.277 HD
HETATM   14  H   UNL     1      17.939  46.759  50.517  1.00  0.00     0.277 HD
BRANCH  12  15
HETATM   15  C   UNL     1      18.509  47.255  48.618  1.00  0.00     0.228 C 
HETATM   16  C   UNL     1      19.782  46.457  48.821  1.00  0.00     0.034 C 
ENDBRANCH  12  15
ENDBRANCH  11  12
ENDBRANCH   6  11
ENDBRANCH   1   5
BRANCH   2  17
HETATM   17  C   UNL     1      23.599  48.334  49.030  1.00  0.00     0.067 A 
HETATM   18  C   UNL     1      24.947  48.796  48.900  1.00  0.00     0.015 A 
HETATM   19  C   UNL     1      25.726  47.890  49.615  1.00  0.00     0.086 A 
HETATM   20  C   UNL     1      25.592  49.899  48.305  1.00  0.00     0.015 A 
HETATM   21  C   UNL     1      27.104  47.992  49.774  1.00  0.00     0.038 A 
HETATM   22  O   UNL     1      24.946  46.914  50.149  1.00  0.00    -0.321 OA
HETATM   23  C   UNL     1      27.721  49.094  49.176  1.00  0.00     0.003 A 
HETATM   24  C   UNL     1      26.980  50.032  48.454  1.00  0.00     0.001 A 
HETATM   25  C   UNL     1      23.665  47.197  49.811  1.00  0.00     0.160 A 
ENDBRANCH   2  17
TORSDOF 5
ENDMDL
MODEL 6
REMARK VINA RESULT:      -7.5      5.448      8.714
REMARK  5 active torsions:
REMARK  status: ('A' for Active; 'I' for Inactive)
REMARK    1  A    between atoms: C_2  and  N_3 
REMARK    2  A    between atoms: N_3  and  C_6 
REMARK    3  A    between atoms: C_6  and  C_7 
REMARK    4  A    between atoms: C_8  and  N_9 
REMARK       I    between atoms: N_9  and  C_10 
REMARK    5  A    between atoms: C_10  and  C_11 
ROOT
HETATM    1  N   UNL     1      23.052  49.040  49.255  1.00  0.00    -0.322 N 
HETATM    2  C   UNL     1      22.075  48.525  48.432  1.00  0.00     0.259 C 
HETATM    3  O   UNL     1      22.287  47.890  47.410  1.00  0.00    -0.267 OA
HETATM    4  H   UNL     1      22.692  49.372  50.149  1.00  0.00     0.169 HD
ENDROOT
BRANCH   1   5
HETATM    5  C   UNL     1      24.466  48.903  49.198  1.00  0.00     0.043 A 
HETATM    6  C   UNL     1      25.292  47.968  49.864  1.00  0.00    -0.006 A 
HETATM    7  C   UNL     1      26.696  48.071  49.694  1.00  0.00     0.011 A 
HETATM    8  C   UNL     1      27.272  49.030  48.864  1.00  0.00     0.001 A 
HETATM    9  C   UNL     1      26.457  49.908  48.172  1.00  0.00     0.002 A 
HETATM   10  C   UNL     1      25.074  49.841  48.335  1.00  0.00     0.030 A 
BRANCH   6  11
HETATM   11  C   UNL     1      24.843  46.807  50.720  1.00  0.00     0.273 C 
BRANCH  11  12
HETATM   12  N   UNL     1      25.984  45.975  51.199  1.00  0.00    -0.072 N 
HETATM   13  H   UNL     1      26.861  46.372  50.843  1.00  0.00     0.277 HD
HETATM   14  H   UNL     1      25.869  45.058  50.756  1.00  0.00     0.277 HD
BRANCH  12  15
HETATM   15  C   UNL     1      26.034  45.759  52.668  1.00  0.00     0.228 C 
HETATM   16  C   UNL     1      25.847  47.099  53.355  1.00  0.00     0.034 C 
ENDBRANCH  12  15
ENDBRANCH  11  12
ENDBRANCH   6  11
ENDBRANCH   1   5
BRANCH   2  17
HETATM   17  C   UNL     1      20.725  48.854  48.829  1.00  0.00     0.067 A 
HETATM   18  C   UNL     1      20.035  50.107  48.799  1.00  0.00     0.015 A 
HETATM   19  C   UNL     1      18.732  49.829  49.202  1.00  0.00     0.086 A 
HETATM   20  C   UNL     1      20.346  51.432  48.431  1.00  0.00     0.015 A 
HETATM   21  C   UNL     1      17.713  50.774  49.278  1.00  0.00     0.038 A 
HETATM   22  O   UNL     1      18.596  48.507  49.484  1.00  0.00    -0.321 OA
HETATM   23  C   UNL     1      18.045  52.080  48.908  1.00  0.00     0.003 A 
HETATM   24  C   UNL     1      19.337  52.405  48.491  1.00  0.00     0.001 A 
HETATM   25  C   UNL     1      19.793  47.921  49.239  1.00  0.00     0.160 A 
ENDBRANCH   2  17
TORSDOF 5
ENDMDL
MODEL 7
REMARK VINA RESULT:      -7.5      1.830      3.965
REMARK  5 active torsions:
REMARK  status: ('A' for Active; 'I' for Inactive)
REMARK    1  A    between atoms: C_2  and  N_3 
REMARK    2  A    between atoms: N_3  and  C_6 
REMARK    3  A    between atoms: C_6  and  C_7 
REMARK    4  A    between atoms: C_8  and  N_9 
REMARK       I    between atoms: N_9  and  C_10 
REMARK    5  A    between atoms: C_10  and  C_11 
ROOT
HETATM    1  N   UNL     1      29.096  44.066  54.137  1.00  0.00    -0.322 N 
HETATM    2  C   UNL     1      27.784  43.740  53.875  1.00  0.00     0.259 C 
HETATM    3  O   UNL     1      26.944  43.489  54.726  1.00  0.00    -0.267 OA
HETATM    4  H   UNL     1      29.592  44.424  53.322  1.00  0.00     0.169 HD
ENDROOT
BRANCH   1   5
HETATM    5  C   UNL     1      29.760  44.277  55.377  1.00  0.00     0.043 A 
HETATM    6  C   UNL     1      29.549  45.300  56.330  1.00  0.00    -0.006 A 
HETATM    7  C   UNL     1      30.387  45.335  57.473  1.00  0.00     0.011 A 
HETATM    8  C   UNL     1      31.370  44.375  57.700  1.00  0.00     0.001 A 
HETATM    9  C   UNL     1      31.536  43.345  56.792  1.00  0.00     0.002 A 
HETATM   10  C   UNL     1      30.738  43.296  55.649  1.00  0.00     0.030 A 
BRANCH   6  11
HETATM   11  C   UNL     1      28.475  46.362  56.301  1.00  0.00     0.273 C 
BRANCH  11  12
HETATM   12  N   UNL     1      28.488  47.153  55.037  1.00  0.00    -0.072 N 
HETATM   13  H   UNL     1      29.150  46.724  54.380  1.00  0.00     0.277 HD
HETATM   14  H   UNL     1      28.865  48.074  55.284  1.00  0.00     0.277 HD
BRANCH  12  15
HETATM   15  C   UNL     1      27.156  47.366  54.413  1.00  0.00     0.228 C 
HETATM   16  C   UNL     1      26.364  48.317  55.290  1.00  0.00     0.034 C 
ENDBRANCH  12  15
ENDBRANCH  11  12
ENDBRANCH   6  11
ENDBRANCH   1   5
BRANCH   2  17
HETATM   17  C   UNL     1      27.461  43.641  52.470  1.00  0.00     0.067 A 
HETATM   18  C   UNL     1      27.668  42.565  51.551  1.00  0.00     0.015 A 
HETATM   19  C   UNL     1      27.080  42.972  50.356  1.00  0.00     0.086 A 
HETATM   20  C   UNL     1      28.238  41.277  51.603  1.00  0.00     0.015 A 
HETATM   21  C   UNL     1      27.026  42.197  49.202  1.00  0.00     0.038 A 
HETATM   22  O   UNL     1      26.551  44.217  50.489  1.00  0.00    -0.321 OA
HETATM   23  C   UNL     1      27.596  40.923  49.278  1.00  0.00     0.003 A 
HETATM   24  C   UNL     1      28.191  40.469  50.457  1.00  0.00     0.001 A 
HETATM   25  C   UNL     1      26.766  44.607  51.768  1.00  0.00     0.160 A 
ENDBRANCH   2  17
TORSDOF 5
ENDMDL
MODEL 8
REMARK VINA RESULT:      -7.4      2.269      6.530
REMARK  5 active torsions:
REMARK  status: ('A' for Active; 'I' for Inactive)
REMARK    1  A    between atoms: C_2  and  N_3 
REMARK    2  A    between atoms: N_3  and  C_6 
REMARK    3  A    between atoms: C_6  and  C_7 
REMARK    4  A    between atoms: C_8  and  N_9 
REMARK       I    between atoms: N_9  and  C_10 
REMARK    5  A    between atoms: C_10  and  C_11 
ROOT
HETATM    1  N   UNL     1      26.924  43.752  52.154  1.00  0.00    -0.322 N 
HETATM    2  C   UNL     1      26.325  44.257  53.286  1.00  0.00     0.259 C 
HETATM    3  O   UNL     1      25.122  44.249  53.503  1.00  0.00    -0.267 OA
HETATM    4  H   UNL     1      27.937  43.676  52.235  1.00  0.00     0.169 HD
ENDROOT
BRANCH   1   5
HETATM    5  C   UNL     1      26.361  43.049  51.053  1.00  0.00     0.043 A 
HETATM    6  C   UNL     1      25.661  43.567  49.939  1.00  0.00    -0.006 A 
HETATM    7  C   UNL     1      25.136  42.651  48.992  1.00  0.00     0.011 A 
HETATM    8  C   UNL     1      25.328  41.276  49.107  1.00  0.00     0.001 A 
HETATM    9  C   UNL     1      26.059  40.779  50.170  1.00  0.00     0.002 A 
HETATM   10  C   UNL     1      26.571  41.655  51.126  1.00  0.00     0.030 A 
BRANCH   6  11
HETATM   11  C   UNL     1      25.441  45.022  49.599  1.00  0.00     0.273 C 
BRANCH  11  12
HETATM   12  N   UNL     1      24.512  45.697  50.551  1.00  0.00    -0.072 N 
HETATM   13  H   UNL     1      24.207  45.019  51.259  1.00  0.00     0.277 HD
HETATM   14  H   UNL     1      23.684  45.952  50.004  1.00  0.00     0.277 HD
BRANCH  12  15
HETATM   15  C   UNL     1      25.040  46.940  51.172  1.00  0.00     0.228 C 
HETATM   16  C   UNL     1      26.216  47.425  50.347  1.00  0.00     0.034 C 
ENDBRANCH  12  15
ENDBRANCH  11  12
ENDBRANCH   6  11
ENDBRANCH   1   5
BRANCH   2  17
HETATM   17  C   UNL     1      27.235  44.889  54.214  1.00  0.00     0.067 A 
HETATM   18  C   UNL     1      28.490  44.434  54.728  1.00  0.00     0.015 A 
HETATM   19  C   UNL     1      28.980  45.480  55.505  1.00  0.00     0.086 A 
HETATM   20  C   UNL     1      29.290  43.282  54.587  1.00  0.00     0.015 A 
HETATM   21  C   UNL     1      30.205  45.463  56.164  1.00  0.00     0.038 A 
HETATM   22  O   UNL     1      28.105  46.520  55.505  1.00  0.00    -0.321 OA
HETATM   23  C   UNL     1      30.981  44.312  56.009  1.00  0.00     0.003 A 
HETATM   24  C   UNL     1      30.534  43.239  55.234  1.00  0.00     0.001 A 
HETATM   25  C   UNL     1      27.066  46.166  54.711  1.00  0.00     0.160 A 
ENDBRANCH   2  17
TORSDOF 5
ENDMDL
MODEL 9
REMARK VINA RESULT:      -7.2      2.783      5.702
REMARK  5 active torsions:
REMARK  status: ('A' for Active; 'I' for Inactive)
REMARK    1  A    between atoms: C_2  and  N_3 
REMARK    2  A    between atoms: N_3  and  C_6 
REMARK    3  A    between atoms: C_6  and  C_7 
REMARK    4  A    between atoms: C_8  and  N_9 
REMARK       I    between atoms: N_9  and  C_10 
REMARK    5  A    between atoms: C_10  and  C_11 
ROOT
HETATM    1  N   UNL     1      29.058  42.868  52.778  1.00  0.00    -0.322 N 
HETATM    2  C   UNL     1      28.290  41.735  52.626  1.00  0.00     0.259 C 
HETATM    3  O   UNL     1      27.751  41.130  53.541  1.00  0.00    -0.267 OA
HETATM    4  H   UNL     1      29.264  43.335  51.896  1.00  0.00     0.169 HD
ENDROOT
BRANCH   1   5
HETATM    5  C   UNL     1      29.334  43.641  53.939  1.00  0.00     0.043 A 
HETATM    6  C   UNL     1      28.620  44.747  54.456  1.00  0.00    -0.006 A 
HETATM    7  C   UNL     1      29.132  45.398  55.607  1.00  0.00     0.011 A 
HETATM    8  C   UNL     1      30.281  44.955  56.258  1.00  0.00     0.001 A 
HETATM    9  C   UNL     1      30.946  43.841  55.780  1.00  0.00     0.002 A 
HETATM   10  C   UNL     1      30.475  43.192  54.639  1.00  0.00     0.030 A 
BRANCH   6  11
HETATM   11  C   UNL     1      27.312  45.304  53.944  1.00  0.00     0.273 C 
BRANCH  11  12
HETATM   12  N   UNL     1      26.970  46.618  54.561  1.00  0.00    -0.072 N 
HETATM   13  H   UNL     1      27.824  47.181  54.645  1.00  0.00     0.277 HD
HETATM   14  H   UNL     1      26.654  46.409  55.513  1.00  0.00     0.277 HD
BRANCH  12  15
HETATM   15  C   UNL     1      25.882  47.368  53.882  1.00  0.00     0.228 C 
HETATM   16  C   UNL     1      25.877  46.983  52.415  1.00  0.00     0.034 C 
ENDBRANCH  12  15
ENDBRANCH  11  12
ENDBRANCH   6  11
ENDBRANCH   1   5
BRANCH   2  17
HETATM   17  C   UNL     1      28.214  41.241  51.270  1.00  0.00     0.067 A 
HETATM   18  C   UNL     1      28.717  40.029  50.701  1.00  0.00     0.015 A 
HETATM   19  C   UNL     1      28.275  40.022  49.380  1.00  0.00     0.086 A 
HETATM   20  C   UNL     1      29.449  38.916  51.160  1.00  0.00     0.015 A 
HETATM   21  C   UNL     1      28.518  38.993  48.476  1.00  0.00     0.038 A 
HETATM   22  O   UNL     1      27.559  41.146  49.115  1.00  0.00    -0.321 OA
HETATM   23  C   UNL     1      29.245  37.900  48.954  1.00  0.00     0.003 A 
HETATM   24  C   UNL     1      29.703  37.860  50.272  1.00  0.00     0.001 A 
HETATM   25  C   UNL     1      27.508  41.867  50.261  1.00  0.00     0.160 A 
ENDBRANCH   2  17
TORSDOF 5
ENDMDL
MODEL 10
REMARK VINA RESULT:      -7.0      2.305      3.492
REMARK  5 active torsions:
REMARK  status: ('A' for Active; 'I' for Inactive)
REMARK    1  A    between atoms: C_2  and  N_3 
REMARK    2  A    between atoms: N_3  and  C_6 
REMARK    3  A    between atoms: C_6  and  C_7 
REMARK    4  A    between atoms: C_8  and  N_9 
REMARK       I    between atoms: N_9  and  C_10 
REMARK    5  A    between atoms: C_10  and  C_11 
ROOT
HETATM    1  N   UNL     1      26.935  44.879  52.066  1.00  0.00    -0.322 N 
HETATM    2  C   UNL     1      25.568  44.788  51.917  1.00  0.00     0.259 C 
HETATM    3  O   UNL     1      24.875  43.891  52.373  1.00  0.00    -0.267 OA
HETATM    4  H   UNL     1      27.310  45.783  51.785  1.00  0.00     0.169 HD
ENDROOT
BRANCH   1   5
HETATM    5  C   UNL     1      27.833  44.069  52.814  1.00  0.00     0.043 A 
HETATM    6  C   UNL     1      28.220  42.729  52.579  1.00  0.00    -0.006 A 
HETATM    7  C   UNL     1      29.091  42.110  53.511  1.00  0.00     0.011 A 
HETATM    8  C   UNL     1      29.602  42.791  54.612  1.00  0.00     0.001 A 
HETATM    9  C   UNL     1      29.263  44.117  54.808  1.00  0.00     0.002 A 
HETATM   10  C   UNL     1      28.394  44.747  53.918  1.00  0.00     0.030 A 
BRANCH   6  11
HETATM   11  C   UNL     1      27.846  41.870  51.394  1.00  0.00     0.273 C 
BRANCH  11  12
HETATM   12  N   UNL     1      26.455  41.341  51.488  1.00  0.00    -0.072 N 
HETATM   13  H   UNL     1      25.926  41.908  52.161  1.00  0.00     0.277 HD
HETATM   14  H   UNL     1      26.537  40.401  51.887  1.00  0.00     0.277 HD
BRANCH  12  15
HETATM   15  C   UNL     1      25.739  41.217  50.192  1.00  0.00     0.228 C 
HETATM   16  C   UNL     1      26.301  42.251  49.234  1.00  0.00     0.034 C 
ENDBRANCH  12  15
ENDBRANCH  11  12
ENDBRANCH   6  11
ENDBRANCH   1   5
BRANCH   2  17
HETATM   17  C   UNL     1      24.986  45.824  51.095  1.00  0.00     0.067 A 
HETATM   18  C   UNL     1      24.101  45.723  49.976  1.00  0.00     0.015 A 
HETATM   19  C   UNL     1      23.782  47.034  49.630  1.00  0.00     0.086 A 
HETATM   20  C   UNL     1      23.493  44.680  49.249  1.00  0.00     0.015 A 
HETATM   21  C   UNL     1      22.911  47.386  48.603  1.00  0.00     0.038 A 
HETATM   22  O   UNL     1      24.422  47.909  50.448  1.00  0.00    -0.321 OA
HETATM   23  C   UNL     1      22.320  46.335  47.898  1.00  0.00     0.003 A 
HETATM   24  C   UNL     1      22.604  45.005  48.213  1.00  0.00     0.001 A 
HETATM   25  C   UNL     1      25.130  47.175  51.341  1.00  0.00     0.160 A 
ENDBRANCH   2  17
TORSDOF 5
ENDMDL
