MODEL 1
REMARK VINA RESULT:      -8.4      0.000      0.000
REMARK  2 active torsions:
REMARK  status: ('A' for Active; 'I' for Inactive)
REMARK    1  A    between atoms: C_4  and  C_5 
REMARK    2  A    between atoms: C_10  and  C_11 
ROOT
HETATM    1  C   UNL     1      26.821  44.332  51.883  1.00  0.00     0.202 C 
HETATM    2  N   UNL     1      27.157  42.914  51.782  1.00  0.00    -0.331 N 
HETATM    3  C   UNL     1      26.706  42.137  50.636  1.00  0.00     0.155 C 
HETATM    4  C   UNL     1      28.375  42.513  52.344  1.00  0.00     0.256 C 
HETATM    5  O   UNL     1      28.992  41.507  52.004  1.00  0.00    -0.267 OA
HETATM    6  C   UNL     1      28.900  43.347  53.447  1.00  0.00     0.053 A 
HETATM    7  C   UNL     1      28.110  44.411  53.892  1.00  0.00     0.026 A 
HETATM    8  N   UNL     1      26.853  44.678  53.312  1.00  0.00    -0.266 NA
HETATM    9  C   UNL     1      30.113  43.040  54.072  1.00  0.00     0.019 A 
HETATM   10  C   UNL     1      30.527  43.785  55.175  1.00  0.00     0.001 A 
HETATM   11  C   UNL     1      29.720  44.816  55.659  1.00  0.00     0.002 A 
HETATM   12  C   UNL     1      28.510  45.116  55.029  1.00  0.00     0.024 A 
HETATM   13  H   UNL     1      26.166  44.090  53.778  1.00  0.00     0.130 HD
ENDROOT
BRANCH   1  14
HETATM   14  C   UNL     1      25.499  44.663  51.245  1.00  0.00     0.029 A 
HETATM   15  C   UNL     1      25.200  45.720  50.335  1.00  0.00     0.121 A 
HETATM   16  N   UNL     1      23.906  45.728  49.982  1.00  0.00    -0.172 NA
HETATM   17  N   UNL     1      23.376  44.703  50.661  1.00  0.00    -0.288 N 
HETATM   18  H   UNL     1      22.383  44.521  50.557  1.00  0.00     0.188 HD
HETATM   19  C   UNL     1      24.280  44.027  51.420  1.00  0.00     0.122 A 
BRANCH  15  20
HETATM   20  C   UNL     1      26.167  46.714  49.774  1.00  0.00     0.106 A 
HETATM   21  O   UNL     1      25.871  48.019  49.489  1.00  0.00    -0.313 OA
HETATM   22  C   UNL     1      27.007  48.611  49.031  1.00  0.00     0.050 A 
HETATM   23  C   UNL     1      26.904  50.040  48.672  1.00  0.00     0.076 C 
HETATM   24  C   UNL     1      28.037  47.699  49.004  1.00  0.00     0.035 A 
HETATM   25  C   UNL     1      27.498  46.479  49.482  1.00  0.00     0.042 A 
ENDBRANCH  15  20
ENDBRANCH   1  14
TORSDOF 2
ENDMDL
MODEL 2
REMARK VINA RESULT:      -8.4      4.649      8.347
REMARK  2 active torsions:
REMARK  status: ('A' for Active; 'I' for Inactive)
REMARK    1  A    between atoms: C_4  and  C_5 
REMARK    2  A    between atoms: C_10  and  C_11 
ROOT
HETATM    1  C   UNL     1      23.067  48.953  49.307  1.00  0.00     0.202 C 
HETATM    2  N   UNL     1      22.351  47.942  48.532  1.00  0.00    -0.331 N 
HETATM    3  C   UNL     1      23.037  46.732  48.101  1.00  0.00     0.155 C 
HETATM    4  C   UNL     1      20.981  47.803  48.789  1.00  0.00     0.256 C 
HETATM    5  O   UNL     1      20.338  46.781  48.563  1.00  0.00    -0.267 OA
HETATM    6  C   UNL     1      20.285  48.995  49.321  1.00  0.00     0.053 A 
HETATM    7  C   UNL     1      21.020  50.176  49.448  1.00  0.00     0.026 A 
HETATM    8  N   UNL     1      22.380  50.232  49.077  1.00  0.00    -0.266 NA
HETATM    9  C   UNL     1      18.920  48.961  49.621  1.00  0.00     0.019 A 
HETATM   10  C   UNL     1      18.273  50.129  50.021  1.00  0.00     0.001 A 
HETATM   11  C   UNL     1      18.988  51.326  50.101  1.00  0.00     0.002 A 
HETATM   12  C   UNL     1      20.352  51.351  49.799  1.00  0.00     0.024 A 
HETATM   13  H   UNL     1      22.420  50.420  48.078  1.00  0.00     0.130 HD
ENDROOT
BRANCH   1  14
HETATM   14  C   UNL     1      24.530  49.020  48.963  1.00  0.00     0.029 A 
HETATM   15  C   UNL     1      25.615  48.344  49.595  1.00  0.00     0.121 A 
HETATM   16  N   UNL     1      26.794  48.654  49.035  1.00  0.00    -0.172 NA
HETATM   17  N   UNL     1      26.478  49.525  48.068  1.00  0.00    -0.288 N 
HETATM   18  H   UNL     1      27.230  49.913  47.507  1.00  0.00     0.188 HD
HETATM   19  C   UNL     1      25.144  49.771  47.972  1.00  0.00     0.122 A 
BRANCH  15  20
HETATM   20  C   UNL     1      25.522  47.368  50.725  1.00  0.00     0.106 A 
HETATM   21  O   UNL     1      25.893  47.627  52.015  1.00  0.00    -0.313 OA
HETATM   22  C   UNL     1      25.629  46.516  52.754  1.00  0.00     0.050 A 
HETATM   23  C   UNL     1      25.952  46.591  54.193  1.00  0.00     0.076 C 
HETATM   24  C   UNL     1      25.100  45.530  51.951  1.00  0.00     0.035 A 
HETATM   25  C   UNL     1      25.031  46.078  50.647  1.00  0.00     0.042 A 
ENDBRANCH  15  20
ENDBRANCH   1  14
TORSDOF 2
ENDMDL
MODEL 3
REMARK VINA RESULT:      -8.4      2.036      6.093
REMARK  2 active torsions:
REMARK  status: ('A' for Active; 'I' for Inactive)
REMARK    1  A    between atoms: C_4  and  C_5 
REMARK    2  A    between atoms: C_10  and  C_11 
ROOT
HETATM    1  C   UNL     1      25.848  45.840  51.064  1.00  0.00     0.202 C 
HETATM    2  N   UNL     1      24.645  45.680  50.250  1.00  0.00    -0.331 N 
HETATM    3  C   UNL     1      23.647  44.684  50.611  1.00  0.00     0.155 C 
HETATM    4  C   UNL     1      24.152  46.831  49.621  1.00  0.00     0.256 C 
HETATM    5  O   UNL     1      22.984  46.976  49.269  1.00  0.00    -0.267 OA
HETATM    6  C   UNL     1      25.134  47.899  49.334  1.00  0.00     0.053 A 
HETATM    7  C   UNL     1      26.476  47.648  49.635  1.00  0.00     0.026 A 
HETATM    8  N   UNL     1      26.881  46.416  50.190  1.00  0.00    -0.266 NA
HETATM    9  C   UNL     1      24.746  49.091  48.717  1.00  0.00     0.019 A 
HETATM   10  C   UNL     1      25.713  50.032  48.367  1.00  0.00     0.001 A 
HETATM   11  C   UNL     1      27.061  49.768  48.616  1.00  0.00     0.002 A 
HETATM   12  C   UNL     1      27.441  48.574  49.233  1.00  0.00     0.024 A 
HETATM   13  H   UNL     1      27.024  45.763  49.423  1.00  0.00     0.130 HD
ENDROOT
BRANCH   1  14
HETATM   14  C   UNL     1      26.293  44.551  51.701  1.00  0.00     0.029 A 
HETATM   15  C   UNL     1      26.945  44.369  52.956  1.00  0.00     0.121 A 
HETATM   16  N   UNL     1      27.213  43.077  53.199  1.00  0.00    -0.172 NA
HETATM   17  N   UNL     1      26.755  42.438  52.115  1.00  0.00    -0.288 N 
HETATM   18  H   UNL     1      26.863  41.430  52.071  1.00  0.00     0.188 HD
HETATM   19  C   UNL     1      26.187  43.264  51.196  1.00  0.00     0.122 A 
BRANCH  15  20
HETATM   20  C   UNL     1      27.287  45.436  53.947  1.00  0.00     0.106 A 
HETATM   21  O   UNL     1      26.510  46.527  54.221  1.00  0.00    -0.313 OA
HETATM   22  C   UNL     1      27.133  47.245  55.195  1.00  0.00     0.050 A 
HETATM   23  C   UNL     1      26.447  48.472  55.648  1.00  0.00     0.076 C 
HETATM   24  C   UNL     1      28.316  46.635  55.548  1.00  0.00     0.035 A 
HETATM   25  C   UNL     1      28.415  45.472  54.746  1.00  0.00     0.042 A 
ENDBRANCH  15  20
ENDBRANCH   1  14
TORSDOF 2
ENDMDL
MODEL 4
REMARK VINA RESULT:      -8.3      2.549      5.737
REMARK  2 active torsions:
REMARK  status: ('A' for Active; 'I' for Inactive)
REMARK    1  A    between atoms: C_4  and  C_5 
REMARK    2  A    between atoms: C_10  and  C_11 
ROOT
HETATM    1  C   UNL     1      27.323  45.459  53.362  1.00  0.00     0.202 C 
HETATM    2  N   UNL     1      26.470  45.328  52.184  1.00  0.00    -0.331 N 
HETATM    3  C   UNL     1      25.881  46.512  51.574  1.00  0.00     0.155 C 
HETATM    4  C   UNL     1      26.764  44.278  51.305  1.00  0.00     0.256 C 
HETATM    5  O   UNL     1      26.451  44.266  50.117  1.00  0.00    -0.267 OA
HETATM    6  C   UNL     1      27.452  43.104  51.885  1.00  0.00     0.053 A 
HETATM    7  C   UNL     1      27.680  43.099  53.264  1.00  0.00     0.026 A 
HETATM    8  N   UNL     1      27.265  44.175  54.076  1.00  0.00    -0.266 NA
HETATM    9  C   UNL     1      27.800  42.006  51.094  1.00  0.00     0.019 A 
HETATM   10  C   UNL     1      28.353  40.874  51.692  1.00  0.00     0.001 A 
HETATM   11  C   UNL     1      28.536  40.839  53.075  1.00  0.00     0.002 A 
HETATM   12  C   UNL     1      28.186  41.941  53.859  1.00  0.00     0.024 A 
HETATM   13  H   UNL     1      26.291  44.015  54.327  1.00  0.00     0.130 HD
ENDROOT
BRANCH   1  14
HETATM   14  C   UNL     1      26.931  46.618  54.238  1.00  0.00     0.029 A 
HETATM   15  C   UNL     1      27.444  46.964  55.523  1.00  0.00     0.121 A 
HETATM   16  N   UNL     1      26.848  48.056  56.024  1.00  0.00    -0.172 NA
HETATM   17  N   UNL     1      25.956  48.401  55.087  1.00  0.00    -0.288 N 
HETATM   18  H   UNL     1      25.368  49.210  55.259  1.00  0.00     0.188 HD
HETATM   19  C   UNL     1      25.969  47.588  53.997  1.00  0.00     0.122 A 
BRANCH  15  20
HETATM   20  C   UNL     1      28.538  46.263  56.265  1.00  0.00     0.106 A 
HETATM   21  O   UNL     1      29.438  45.402  55.702  1.00  0.00    -0.313 OA
HETATM   22  C   UNL     1      30.292  44.997  56.681  1.00  0.00     0.050 A 
HETATM   23  C   UNL     1      31.360  44.061  56.276  1.00  0.00     0.076 C 
HETATM   24  C   UNL     1      29.945  45.578  57.880  1.00  0.00     0.035 A 
HETATM   25  C   UNL     1      28.817  46.392  57.613  1.00  0.00     0.042 A 
ENDBRANCH  15  20
ENDBRANCH   1  14
TORSDOF 2
ENDMDL
MODEL 5
REMARK VINA RESULT:      -8.2      1.675      5.972
REMARK  2 active torsions:
REMARK  status: ('A' for Active; 'I' for Inactive)
REMARK    1  A    between atoms: C_4  and  C_5 
REMARK    2  A    between atoms: C_10  and  C_11 
ROOT
HETATM    1  C   UNL     1      26.918  44.209  50.876  1.00  0.00     0.202 C 
HETATM    2  N   UNL     1      25.524  44.068  50.464  1.00  0.00    -0.331 N 
HETATM    3  C   UNL     1      24.741  42.927  50.919  1.00  0.00     0.155 C 
HETATM    4  C   UNL     1      24.805  45.251  50.256  1.00  0.00     0.256 C 
HETATM    5  O   UNL     1      23.581  45.334  50.321  1.00  0.00    -0.267 OA
HETATM    6  C   UNL     1      25.594  46.448  49.889  1.00  0.00     0.053 A 
HETATM    7  C   UNL     1      26.970  46.288  49.702  1.00  0.00     0.026 A 
HETATM    8  N   UNL     1      27.585  45.028  49.853  1.00  0.00    -0.266 NA
HETATM    9  C   UNL     1      24.975  47.682  49.668  1.00  0.00     0.019 A 
HETATM   10  C   UNL     1      25.735  48.762  49.223  1.00  0.00     0.001 A 
HETATM   11  C   UNL     1      27.101  48.599  48.983  1.00  0.00     0.002 A 
HETATM   12  C   UNL     1      27.711  47.363  49.206  1.00  0.00     0.024 A 
HETATM   13  H   UNL     1      27.497  44.533  48.969  1.00  0.00     0.130 HD
ENDROOT
BRANCH   1  14
HETATM   14  C   UNL     1      27.601  42.883  51.080  1.00  0.00     0.029 A 
HETATM   15  C   UNL     1      28.474  42.496  52.139  1.00  0.00     0.121 A 
HETATM   16  N   UNL     1      28.916  41.239  51.991  1.00  0.00    -0.172 NA
HETATM   17  N   UNL     1      28.349  40.825  50.851  1.00  0.00    -0.288 N 
HETATM   18  H   UNL     1      28.555  39.885  50.526  1.00  0.00     0.188 HD
HETATM   19  C   UNL     1      27.547  41.758  50.272  1.00  0.00     0.122 A 
BRANCH  15  20
HETATM   20  C   UNL     1      28.867  43.326  53.321  1.00  0.00     0.106 A 
HETATM   21  O   UNL     1      28.237  44.475  53.714  1.00  0.00    -0.313 OA
HETATM   22  C   UNL     1      28.855  44.921  54.841  1.00  0.00     0.050 A 
HETATM   23  C   UNL     1      28.316  46.158  55.439  1.00  0.00     0.076 C 
HETATM   24  C   UNL     1      29.890  44.078  55.177  1.00  0.00     0.035 A 
HETATM   25  C   UNL     1      29.898  43.052  54.200  1.00  0.00     0.042 A 
ENDBRANCH  15  20
ENDBRANCH   1  14
TORSDOF 2
ENDMDL
MODEL 6
REMARK VINA RESULT:      -8.2     11.807     13.511
REMARK  2 active torsions:
REMARK  status: ('A' for Active; 'I' for Inactive)
REMARK    1  A    between atoms: C_4  and  C_5 
REMARK    2  A    between atoms: C_10  and  C_11 
ROOT
HETATM    1  C   UNL     1      29.677  50.467  40.399  1.00  0.00     0.202 C 
HETATM    2  N   UNL     1      30.341  49.829  39.265  1.00  0.00    -0.331 N 
HETATM    3  C   UNL     1      31.558  50.406  38.712  1.00  0.00     0.155 C 
HETATM    4  C   UNL     1      30.238  48.435  39.177  1.00  0.00     0.256 C 
HETATM    5  O   UNL     1      31.036  47.722  38.574  1.00  0.00    -0.267 OA
HETATM    6  C   UNL     1      29.056  47.818  39.819  1.00  0.00     0.053 A 
HETATM    7  C   UNL     1      28.105  48.670  40.386  1.00  0.00     0.026 A 
HETATM    8  N   UNL     1      28.263  50.071  40.345  1.00  0.00    -0.266 NA
HETATM    9  C   UNL     1      28.862  46.434  39.798  1.00  0.00     0.019 A 
HETATM   10  C   UNL     1      27.687  45.896  40.321  1.00  0.00     0.001 A 
HETATM   11  C   UNL     1      26.707  46.742  40.843  1.00  0.00     0.002 A 
HETATM   12  C   UNL     1      26.909  48.124  40.860  1.00  0.00     0.024 A 
HETATM   13  H   UNL     1      27.893  50.397  39.455  1.00  0.00     0.130 HD
ENDROOT
BRANCH   1  14
HETATM   14  C   UNL     1      29.852  51.962  40.407  1.00  0.00     0.029 A 
HETATM   15  C   UNL     1      30.800  52.734  41.143  1.00  0.00     0.121 A 
HETATM   16  N   UNL     1      30.655  54.049  40.922  1.00  0.00    -0.172 NA
HETATM   17  N   UNL     1      29.625  54.127  40.070  1.00  0.00    -0.288 N 
HETATM   18  H   UNL     1      29.322  55.046  39.766  1.00  0.00     0.188 HD
HETATM   19  C   UNL     1      29.115  52.915  39.721  1.00  0.00     0.122 A 
BRANCH  15  20
HETATM   20  C   UNL     1      31.874  52.208  42.042  1.00  0.00     0.106 A 
HETATM   21  O   UNL     1      33.143  51.891  41.642  1.00  0.00    -0.313 OA
HETATM   22  C   UNL     1      33.833  51.483  42.741  1.00  0.00     0.050 A 
HETATM   23  C   UNL     1      35.243  51.100  42.526  1.00  0.00     0.076 C 
HETATM   24  C   UNL     1      33.019  51.518  43.851  1.00  0.00     0.035 A 
HETATM   25  C   UNL     1      31.759  51.984  43.401  1.00  0.00     0.042 A 
ENDBRANCH  15  20
ENDBRANCH   1  14
TORSDOF 2
ENDMDL
MODEL 7
REMARK VINA RESULT:      -8.1      1.489      2.073
REMARK  2 active torsions:
REMARK  status: ('A' for Active; 'I' for Inactive)
REMARK    1  A    between atoms: C_4  and  C_5 
REMARK    2  A    between atoms: C_10  and  C_11 
ROOT
HETATM    1  C   UNL     1      27.610  44.044  51.940  1.00  0.00     0.202 C 
HETATM    2  N   UNL     1      28.269  42.929  52.615  1.00  0.00    -0.331 N 
HETATM    3  C   UNL     1      28.644  41.739  51.864  1.00  0.00     0.155 C 
HETATM    4  C   UNL     1      29.101  43.249  53.696  1.00  0.00     0.256 C 
HETATM    5  O   UNL     1      30.019  42.536  54.093  1.00  0.00    -0.267 OA
HETATM    6  C   UNL     1      28.797  44.506  54.413  1.00  0.00     0.053 A 
HETATM    7  C   UNL     1      27.669  45.228  54.013  1.00  0.00     0.026 A 
HETATM    8  N   UNL     1      26.845  44.771  52.964  1.00  0.00    -0.266 NA
HETATM    9  C   UNL     1      29.571  44.923  55.500  1.00  0.00     0.019 A 
HETATM   10  C   UNL     1      29.195  46.058  56.218  1.00  0.00     0.001 A 
HETATM   11  C   UNL     1      28.040  46.756  55.858  1.00  0.00     0.002 A 
HETATM   12  C   UNL     1      27.273  46.333  54.771  1.00  0.00     0.024 A 
HETATM   13  H   UNL     1      26.175  44.116  53.360  1.00  0.00     0.130 HD
ENDROOT
BRANCH   1  14
HETATM   14  C   UNL     1      26.746  43.598  50.791  1.00  0.00     0.029 A 
HETATM   15  C   UNL     1      26.047  44.409  49.849  1.00  0.00     0.121 A 
HETATM   16  N   UNL     1      25.356  43.671  48.967  1.00  0.00    -0.172 NA
HETATM   17  N   UNL     1      25.593  42.407  49.341  1.00  0.00    -0.288 N 
HETATM   18  H   UNL     1      25.153  41.660  48.813  1.00  0.00     0.188 HD
HETATM   19  C   UNL     1      26.423  42.304  50.413  1.00  0.00     0.122 A 
BRANCH  15  20
HETATM   20  C   UNL     1      26.064  45.903  49.771  1.00  0.00     0.106 A 
HETATM   21  O   UNL     1      27.151  46.656  49.423  1.00  0.00    -0.313 OA
HETATM   22  C   UNL     1      26.770  47.962  49.431  1.00  0.00     0.050 A 
HETATM   23  C   UNL     1      27.806  48.950  49.071  1.00  0.00     0.076 C 
HETATM   24  C   UNL     1      25.446  48.065  49.794  1.00  0.00     0.035 A 
HETATM   25  C   UNL     1      24.991  46.742  50.012  1.00  0.00     0.042 A 
ENDBRANCH  15  20
ENDBRANCH   1  14
TORSDOF 2
ENDMDL
MODEL 8
REMARK VINA RESULT:      -8.0      1.555      2.333
REMARK  2 active torsions:
REMARK  status: ('A' for Active; 'I' for Inactive)
REMARK    1  A    between atoms: C_4  and  C_5 
REMARK    2  A    between atoms: C_10  and  C_11 
ROOT
HETATM    1  C   UNL     1      26.037  44.510  52.351  1.00  0.00     0.202 C 
HETATM    2  N   UNL     1      26.406  45.757  53.016  1.00  0.00    -0.331 N 
HETATM    3  C   UNL     1      25.411  46.802  53.214  1.00  0.00     0.155 C 
HETATM    4  C   UNL     1      27.403  45.677  53.997  1.00  0.00     0.256 C 
HETATM    5  O   UNL     1      27.538  46.489  54.910  1.00  0.00    -0.267 OA
HETATM    6  C   UNL     1      28.368  44.563  53.870  1.00  0.00     0.053 A 
HETATM    7  C   UNL     1      28.260  43.734  52.750  1.00  0.00     0.026 A 
HETATM    8  N   UNL     1      27.268  43.954  51.772  1.00  0.00    -0.266 NA
HETATM    9  C   UNL     1      29.396  44.386  54.800  1.00  0.00     0.019 A 
HETATM   10  C   UNL     1      30.348  43.390  54.593  1.00  0.00     0.001 A 
HETATM   11  C   UNL     1      30.280  42.590  53.451  1.00  0.00     0.002 A 
HETATM   12  C   UNL     1      29.249  42.773  52.526  1.00  0.00     0.024 A 
HETATM   13  H   UNL     1      27.629  44.643  51.116  1.00  0.00     0.130 HD
ENDROOT
BRANCH   1  14
HETATM   14  C   UNL     1      24.956  44.700  51.322  1.00  0.00     0.029 A 
HETATM   15  C   UNL     1      24.958  45.573  50.194  1.00  0.00     0.121 A 
HETATM   16  N   UNL     1      23.814  45.497  49.498  1.00  0.00    -0.172 NA
HETATM   17  N   UNL     1      23.081  44.600  50.171  1.00  0.00    -0.288 N 
HETATM   18  H   UNL     1      22.150  44.386  49.827  1.00  0.00     0.188 HD
HETATM   19  C   UNL     1      23.715  44.084  51.257  1.00  0.00     0.122 A 
BRANCH  15  20
HETATM   20  C   UNL     1      26.075  46.468  49.760  1.00  0.00     0.106 A 
HETATM   21  O   UNL     1      25.966  47.817  49.563  1.00  0.00    -0.313 OA
HETATM   22  C   UNL     1      27.194  48.285  49.209  1.00  0.00     0.050 A 
HETATM   23  C   UNL     1      27.296  49.736  48.958  1.00  0.00     0.076 C 
HETATM   24  C   UNL     1      28.098  47.248  49.162  1.00  0.00     0.035 A 
HETATM   25  C   UNL     1      27.379  46.080  49.516  1.00  0.00     0.042 A 
ENDBRANCH  15  20
ENDBRANCH   1  14
TORSDOF 2
ENDMDL
MODEL 9
REMARK VINA RESULT:      -7.9     11.417     13.564
REMARK  2 active torsions:
REMARK  status: ('A' for Active; 'I' for Inactive)
REMARK    1  A    between atoms: C_4  and  C_5 
REMARK    2  A    between atoms: C_10  and  C_11 
ROOT
HETATM    1  C   UNL     1      31.919  49.098  40.534  1.00  0.00     0.202 C 
HETATM    2  N   UNL     1      31.351  49.664  41.755  1.00  0.00    -0.331 N 
HETATM    3  C   UNL     1      30.154  49.079  42.343  1.00  0.00     0.155 C 
HETATM    4  C   UNL     1      32.250  50.241  42.661  1.00  0.00     0.256 C 
HETATM    5  O   UNL     1      32.028  50.375  43.861  1.00  0.00    -0.267 OA
HETATM    6  C   UNL     1      33.518  50.754  42.097  1.00  0.00     0.053 A 
HETATM    7  C   UNL     1      33.683  50.699  40.710  1.00  0.00     0.026 A 
HETATM    8  N   UNL     1      32.674  50.174  39.876  1.00  0.00    -0.266 NA
HETATM    9  C   UNL     1      34.489  51.340  42.915  1.00  0.00     0.019 A 
HETATM   10  C   UNL     1      35.624  51.906  42.338  1.00  0.00     0.001 A 
HETATM   11  C   UNL     1      35.774  51.902  40.950  1.00  0.00     0.002 A 
HETATM   12  C   UNL     1      34.799  51.315  40.140  1.00  0.00     0.024 A 
HETATM   13  H   UNL     1      32.017  50.925  39.677  1.00  0.00     0.130 HD
ENDROOT
BRANCH   1  14
HETATM   14  C   UNL     1      30.875  48.499  39.631  1.00  0.00     0.029 A 
HETATM   15  C   UNL     1      29.814  49.165  38.948  1.00  0.00     0.121 A 
HETATM   16  N   UNL     1      29.058  48.311  38.243  1.00  0.00    -0.172 NA
HETATM   17  N   UNL     1      29.610  47.114  38.476  1.00  0.00    -0.288 N 
HETATM   18  H   UNL     1      29.188  46.298  38.045  1.00  0.00     0.188 HD
HETATM   19  C   UNL     1      30.701  47.167  39.286  1.00  0.00     0.122 A 
BRANCH  15  20
HETATM   20  C   UNL     1      29.540  50.636  38.944  1.00  0.00     0.106 A 
HETATM   21  O   UNL     1      30.012  51.522  39.873  1.00  0.00    -0.313 OA
HETATM   22  C   UNL     1      29.582  52.763  39.517  1.00  0.00     0.050 A 
HETATM   23  C   UNL     1      29.995  53.877  40.393  1.00  0.00     0.076 C 
HETATM   24  C   UNL     1      28.823  52.689  38.371  1.00  0.00     0.035 A 
HETATM   25  C   UNL     1      28.796  51.321  38.002  1.00  0.00     0.042 A 
ENDBRANCH  15  20
ENDBRANCH   1  14
TORSDOF 2
ENDMDL
MODEL 10
REMARK VINA RESULT:      -7.8      2.387      4.254
REMARK  2 active torsions:
REMARK  status: ('A' for Active; 'I' for Inactive)
REMARK    1  A    between atoms: C_4  and  C_5 
REMARK    2  A    between atoms: C_10  and  C_11 
ROOT
HETATM    1  C   UNL     1      26.491  44.637  52.139  1.00  0.00     0.202 C 
HETATM    2  N   UNL     1      26.659  45.816  52.985  1.00  0.00    -0.331 N 
HETATM    3  C   UNL     1      25.596  46.807  53.074  1.00  0.00     0.155 C 
HETATM    4  C   UNL     1      27.439  45.660  54.138  1.00  0.00     0.256 C 
HETATM    5  O   UNL     1      27.348  46.373  55.133  1.00  0.00    -0.267 OA
HETATM    6  C   UNL     1      28.461  44.590  54.103  1.00  0.00     0.053 A 
HETATM    7  C   UNL     1      28.622  43.882  52.909  1.00  0.00     0.026 A 
HETATM    8  N   UNL     1      27.839  44.178  51.774  1.00  0.00    -0.266 NA
HETATM    9  C   UNL     1      29.287  44.344  55.204  1.00  0.00     0.019 A 
HETATM   10  C   UNL     1      30.307  43.400  55.101  1.00  0.00     0.001 A 
HETATM   11  C   UNL     1      30.509  42.724  53.897  1.00  0.00     0.002 A 
HETATM   12  C   UNL     1      29.680  42.976  52.801  1.00  0.00     0.024 A 
HETATM   13  H   UNL     1      28.292  44.942  51.277  1.00  0.00     0.130 HD
ENDROOT
BRANCH   1  14
HETATM   14  C   UNL     1      25.633  44.905  50.932  1.00  0.00     0.029 A 
HETATM   15  C   UNL     1      25.432  44.073  49.792  1.00  0.00     0.121 A 
HETATM   16  N   UNL     1      24.613  44.640  48.894  1.00  0.00    -0.172 NA
HETATM   17  N   UNL     1      24.301  45.823  49.438  1.00  0.00    -0.288 N 
HETATM   18  H   UNL     1      23.688  46.443  48.918  1.00  0.00     0.188 HD
HETATM   19  C   UNL     1      24.870  46.030  50.655  1.00  0.00     0.122 A 
BRANCH  15  20
HETATM   20  C   UNL     1      26.004  42.708  49.571  1.00  0.00     0.106 A 
HETATM   21  O   UNL     1      27.076  42.429  48.770  1.00  0.00    -0.313 OA
HETATM   22  C   UNL     1      27.319  41.092  48.852  1.00  0.00     0.050 A 
HETATM   23  C   UNL     1      28.455  40.581  48.060  1.00  0.00     0.076 C 
HETATM   24  C   UNL     1      26.404  40.498  49.691  1.00  0.00     0.035 A 
HETATM   25  C   UNL     1      25.558  41.536  50.154  1.00  0.00     0.042 A 
ENDBRANCH  15  20
ENDBRANCH   1  14
TORSDOF 2
ENDMDL
