MODEL 1
REMARK VINA RESULT:      -8.8      0.000      0.000
REMARK  7 active torsions:
REMARK  status: ('A' for Active; 'I' for Inactive)
REMARK    1  A    between atoms: C_2  and  O_3 
REMARK    2  A    between atoms: O_3  and  C_4 
REMARK    3  A    between atoms: C_4  and  C_5 
REMARK    4  A    between atoms: C_6  and  C_7 
REMARK    5  A    between atoms: C_18  and  S_19 
REMARK    6  A    between atoms: S_19  and  C_20 
REMARK    7  A    between atoms: C_20  and  C_21 
ROOT
HETATM    1  C   UNL     1      23.463  46.099  48.959  1.00  0.00     0.070 C 
HETATM    2  C   UNL     1      23.903  47.208  49.918  1.00  0.00     0.204 C 
HETATM    3  N   UNL     1      24.787  46.680  50.965  1.00  0.00    -0.082 N 
HETATM    4  C   UNL     1      25.378  45.450  50.915  1.00  0.00     0.726 A 
HETATM    5  N   UNL     1      25.080  44.620  49.900  1.00  0.00    -0.192 N 
HETATM    6  N   UNL     1      25.142  47.353  52.077  1.00  0.00    -0.128 NA
HETATM    7  C   UNL     1      25.999  46.486  52.632  1.00  0.00     0.226 A 
HETATM    8  N   UNL     1      26.168  45.306  51.947  1.00  0.00    -0.035 NA
HETATM    9  C   UNL     1      24.073  44.883  48.973  1.00  0.00     0.037 C 
HETATM   10  C   UNL     1      23.747  43.750  48.032  1.00  0.00     0.070 C 
HETATM   11  H   UNL     1      25.456  43.675  49.926  1.00  0.00     0.184 HD
ENDROOT
BRANCH   7  12
HETATM   12  S   UNL     1      26.889  46.837  54.087  1.00  0.00    -0.083 SA
BRANCH  12  13
HETATM   13  C   UNL     1      26.900  45.207  54.883  1.00  0.00     0.123 C 
BRANCH  13  14
HETATM   14  C   UNL     1      28.295  44.630  54.945  1.00  0.00    -0.027 A 
HETATM   15  C   UNL     1      29.241  45.015  55.909  1.00  0.00     0.041 A 
HETATM   16 CL   UNL     1      28.894  46.213  57.106  1.00  0.00    -0.084 Cl
HETATM   17  C   UNL     1      30.513  44.432  55.929  1.00  0.00     0.024 A 
HETATM   18  C   UNL     1      30.857  43.459  54.991  1.00  0.00     0.002 A 
HETATM   19  C   UNL     1      29.930  43.063  54.033  1.00  0.00     0.001 A 
HETATM   20  C   UNL     1      28.658  43.639  54.012  1.00  0.00     0.009 A 
ENDBRANCH  13  14
ENDBRANCH  12  13
ENDBRANCH   7  12
BRANCH   2  21
HETATM   21  C   UNL     1      24.621  48.369  49.224  1.00  0.00    -0.006 A 
HETATM   22  C   UNL     1      23.935  49.507  48.762  1.00  0.00     0.042 A 
HETATM   23 CL   UNL     1      22.222  49.683  48.912  1.00  0.00    -0.084 Cl
HETATM   24  C   UNL     1      24.626  50.556  48.145  1.00  0.00     0.024 A 
HETATM   25  C   UNL     1      26.010  50.494  47.987  1.00  0.00     0.002 A 
HETATM   26  C   UNL     1      26.708  49.384  48.446  1.00  0.00     0.001 A 
HETATM   27  C   UNL     1      26.024  48.333  49.059  1.00  0.00     0.011 A 
ENDBRANCH   2  21
BRANCH   1  28
HETATM   28  C   UNL     1      22.275  46.367  48.107  1.00  0.00     0.293 C 
HETATM   29  O   UNL     1      22.317  46.854  46.989  1.00  0.00    -0.259 OA
BRANCH  28  30
HETATM   30  O   UNL     1      21.148  45.953  48.732  1.00  0.00    -0.318 OA
BRANCH  30  31
HETATM   31  C   UNL     1      19.911  46.502  48.251  1.00  0.00     0.174 C 
HETATM   32  C   UNL     1      19.412  47.572  49.202  1.00  0.00     0.034 C 
ENDBRANCH  30  31
ENDBRANCH  28  30
ENDBRANCH   1  28
TORSDOF 7
ENDMDL
MODEL 2
REMARK VINA RESULT:      -8.5     12.326     14.653
REMARK  7 active torsions:
REMARK  status: ('A' for Active; 'I' for Inactive)
REMARK    1  A    between atoms: C_2  and  O_3 
REMARK    2  A    between atoms: O_3  and  C_4 
REMARK    3  A    between atoms: C_4  and  C_5 
REMARK    4  A    between atoms: C_6  and  C_7 
REMARK    5  A    between atoms: C_18  and  S_19 
REMARK    6  A    between atoms: S_19  and  C_20 
REMARK    7  A    between atoms: C_20  and  C_21 
ROOT
HETATM    1  C   UNL     1      33.415  50.733  40.232  1.00  0.00     0.070 C 
HETATM    2  C   UNL     1      32.070  50.444  39.560  1.00  0.00     0.204 C 
HETATM    3  N   UNL     1      31.656  49.053  39.784  1.00  0.00    -0.082 N 
HETATM    4  C   UNL     1      32.229  48.227  40.708  1.00  0.00     0.726 A 
HETATM    5  N   UNL     1      33.292  48.662  41.407  1.00  0.00    -0.192 N 
HETATM    6  N   UNL     1      30.651  48.440  39.129  1.00  0.00    -0.128 NA
HETATM    7  C   UNL     1      30.633  47.254  39.752  1.00  0.00     0.226 A 
HETATM    8  N   UNL     1      31.589  47.087  40.726  1.00  0.00    -0.035 NA
HETATM    9  C   UNL     1      33.949  49.858  41.127  1.00  0.00     0.037 C 
HETATM   10  C   UNL     1      35.238  50.081  41.879  1.00  0.00     0.070 C 
HETATM   11  H   UNL     1      33.763  48.003  42.024  1.00  0.00     0.184 HD
ENDROOT
BRANCH   7  12
HETATM   12  S   UNL     1      29.454  46.022  39.404  1.00  0.00    -0.083 SA
BRANCH  12  13
HETATM   13  C   UNL     1      28.010  46.669  40.291  1.00  0.00     0.123 C 
BRANCH  13  14
HETATM   14  C   UNL     1      27.426  47.876  39.593  1.00  0.00    -0.027 A 
HETATM   15  C   UNL     1      27.340  49.142  40.196  1.00  0.00     0.041 A 
HETATM   16 CL   UNL     1      27.881  49.426  41.812  1.00  0.00    -0.084 Cl
HETATM   17  C   UNL     1      26.806  50.227  39.494  1.00  0.00     0.024 A 
HETATM   18  C   UNL     1      26.352  50.066  38.185  1.00  0.00     0.002 A 
HETATM   19  C   UNL     1      26.434  48.820  37.573  1.00  0.00     0.001 A 
HETATM   20  C   UNL     1      26.970  47.734  38.269  1.00  0.00     0.009 A 
ENDBRANCH  13  14
ENDBRANCH  12  13
ENDBRANCH   7  12
BRANCH   2  21
HETATM   21  C   UNL     1      30.940  51.363  40.033  1.00  0.00    -0.006 A 
HETATM   22  C   UNL     1      30.050  51.981  39.135  1.00  0.00     0.042 A 
HETATM   23 CL   UNL     1      30.170  51.781  37.423  1.00  0.00    -0.084 Cl
HETATM   24  C   UNL     1      29.019  52.803  39.604  1.00  0.00     0.024 A 
HETATM   25  C   UNL     1      28.851  53.016  40.972  1.00  0.00     0.002 A 
HETATM   26  C   UNL     1      29.713  52.406  41.876  1.00  0.00     0.001 A 
HETATM   27  C   UNL     1      30.745  51.587  41.414  1.00  0.00     0.011 A 
ENDBRANCH   2  21
BRANCH   1  28
HETATM   28  C   UNL     1      34.160  51.936  39.777  1.00  0.00     0.293 C 
HETATM   29  O   UNL     1      34.043  53.050  40.262  1.00  0.00    -0.259 OA
BRANCH  28  30
HETATM   30  O   UNL     1      35.015  51.608  38.781  1.00  0.00    -0.318 OA
BRANCH  30  31
HETATM   31  C   UNL     1      36.390  51.977  38.972  1.00  0.00     0.174 C 
HETATM   32  C   UNL     1      37.290  50.782  38.719  1.00  0.00     0.034 C 
ENDBRANCH  30  31
ENDBRANCH  28  30
ENDBRANCH   1  28
TORSDOF 7
ENDMDL
MODEL 3
REMARK VINA RESULT:      -8.4      3.665      8.552
REMARK  7 active torsions:
REMARK  status: ('A' for Active; 'I' for Inactive)
REMARK    1  A    between atoms: C_2  and  O_3 
REMARK    2  A    between atoms: O_3  and  C_4 
REMARK    3  A    between atoms: C_4  and  C_5 
REMARK    4  A    between atoms: C_6  and  C_7 
REMARK    5  A    between atoms: C_18  and  S_19 
REMARK    6  A    between atoms: S_19  and  C_20 
REMARK    7  A    between atoms: C_20  and  C_21 
ROOT
HETATM    1  C   UNL     1      25.527  45.161  52.748  1.00  0.00     0.070 C 
HETATM    2  C   UNL     1      24.620  44.879  51.546  1.00  0.00     0.204 C 
HETATM    3  N   UNL     1      24.336  46.111  50.799  1.00  0.00    -0.082 N 
HETATM    4  C   UNL     1      25.023  47.279  50.967  1.00  0.00     0.726 A 
HETATM    5  N   UNL     1      25.962  47.356  51.926  1.00  0.00    -0.192 N 
HETATM    6  N   UNL     1      23.390  46.226  49.847  1.00  0.00    -0.128 NA
HETATM    7  C   UNL     1      23.600  47.484  49.437  1.00  0.00     0.226 A 
HETATM    8  N   UNL     1      24.593  48.162  50.103  1.00  0.00    -0.035 NA
HETATM    9  C   UNL     1      26.166  46.355  52.874  1.00  0.00     0.037 C 
HETATM   10  C   UNL     1      27.119  46.704  53.990  1.00  0.00     0.070 C 
HETATM   11  H   UNL     1      26.399  48.260  52.098  1.00  0.00     0.184 HD
ENDROOT
BRANCH   7  12
HETATM   12  S   UNL     1      22.723  48.206  48.117  1.00  0.00    -0.083 SA
BRANCH  12  13
HETATM   13  C   UNL     1      21.016  48.038  48.707  1.00  0.00     0.123 C 
BRANCH  13  14
HETATM   14  C   UNL     1      20.374  49.387  48.939  1.00  0.00    -0.027 A 
HETATM   15  C   UNL     1      19.321  49.589  49.846  1.00  0.00     0.041 A 
HETATM   16 CL   UNL     1      18.647  48.293  50.769  1.00  0.00    -0.084 Cl
HETATM   17  C   UNL     1      18.779  50.864  50.031  1.00  0.00     0.024 A 
HETATM   18  C   UNL     1      19.278  51.954  49.318  1.00  0.00     0.002 A 
HETATM   19  C   UNL     1      20.324  51.772  48.420  1.00  0.00     0.001 A 
HETATM   20  C   UNL     1      20.871  50.500  48.234  1.00  0.00     0.009 A 
ENDBRANCH  13  14
ENDBRANCH  12  13
ENDBRANCH   7  12
BRANCH   2  21
HETATM   21  C   UNL     1      25.198  43.849  50.572  1.00  0.00    -0.006 A 
HETATM   22  C   UNL     1      24.391  42.902  49.915  1.00  0.00     0.042 A 
HETATM   23 CL   UNL     1      22.685  42.800  50.169  1.00  0.00    -0.084 Cl
HETATM   24  C   UNL     1      24.952  41.985  49.019  1.00  0.00     0.024 A 
HETATM   25  C   UNL     1      26.321  42.001  48.755  1.00  0.00     0.002 A 
HETATM   26  C   UNL     1      27.134  42.935  49.385  1.00  0.00     0.001 A 
HETATM   27  C   UNL     1      26.582  43.851  50.283  1.00  0.00     0.011 A 
ENDBRANCH   2  21
BRANCH   1  28
HETATM   28  C   UNL     1      25.580  44.130  53.818  1.00  0.00     0.293 C 
HETATM   29  O   UNL     1      24.819  44.079  54.771  1.00  0.00    -0.259 OA
BRANCH  28  30
HETATM   30  O   UNL     1      26.563  43.237  53.559  1.00  0.00    -0.318 OA
BRANCH  30  31
HETATM   31  C   UNL     1      27.688  43.247  54.452  1.00  0.00     0.174 C 
HETATM   32  C   UNL     1      28.968  43.487  53.675  1.00  0.00     0.034 C 
ENDBRANCH  30  31
ENDBRANCH  28  30
ENDBRANCH   1  28
TORSDOF 7
ENDMDL
MODEL 4
REMARK VINA RESULT:      -8.1      4.854      6.839
REMARK  7 active torsions:
REMARK  status: ('A' for Active; 'I' for Inactive)
REMARK    1  A    between atoms: C_2  and  O_3 
REMARK    2  A    between atoms: O_3  and  C_4 
REMARK    3  A    between atoms: C_4  and  C_5 
REMARK    4  A    between atoms: C_6  and  C_7 
REMARK    5  A    between atoms: C_18  and  S_19 
REMARK    6  A    between atoms: S_19  and  C_20 
REMARK    7  A    between atoms: C_20  and  C_21 
ROOT
HETATM    1  C   UNL     1      18.170  47.601  46.845  1.00  0.00     0.070 C 
HETATM    2  C   UNL     1      19.056  47.732  48.087  1.00  0.00     0.204 C 
HETATM    3  N   UNL     1      20.360  47.091  47.875  1.00  0.00    -0.082 N 
HETATM    4  C   UNL     1      20.830  46.706  46.652  1.00  0.00     0.726 A 
HETATM    5  N   UNL     1      20.035  46.832  45.574  1.00  0.00    -0.192 N 
HETATM    6  N   UNL     1      21.253  46.834  48.850  1.00  0.00    -0.128 NA
HETATM    7  C   UNL     1      22.271  46.341  48.133  1.00  0.00     0.226 A 
HETATM    8  N   UNL     1      22.047  46.246  46.780  1.00  0.00    -0.035 NA
HETATM    9  C   UNL     1      18.690  47.187  45.658  1.00  0.00     0.037 C 
HETATM   10  C   UNL     1      17.910  47.081  44.371  1.00  0.00     0.070 C 
HETATM   11  H   UNL     1      20.365  46.456  44.688  1.00  0.00     0.184 HD
ENDROOT
BRANCH   7  12
HETATM   12  S   UNL     1      23.800  45.900  48.842  1.00  0.00    -0.083 SA
BRANCH  12  13
HETATM   13  C   UNL     1      24.078  47.305  49.956  1.00  0.00     0.123 C 
BRANCH  13  14
HETATM   14  C   UNL     1      25.161  48.220  49.434  1.00  0.00    -0.027 A 
HETATM   15  C   UNL     1      24.898  49.329  48.614  1.00  0.00     0.041 A 
HETATM   16 CL   UNL     1      23.296  49.734  48.108  1.00  0.00    -0.084 Cl
HETATM   17  C   UNL     1      25.941  50.152  48.176  1.00  0.00     0.024 A 
HETATM   18  C   UNL     1      27.257  49.882  48.550  1.00  0.00     0.002 A 
HETATM   19  C   UNL     1      27.534  48.790  49.365  1.00  0.00     0.001 A 
HETATM   20  C   UNL     1      26.496  47.968  49.807  1.00  0.00     0.009 A 
ENDBRANCH  13  14
ENDBRANCH  12  13
ENDBRANCH   7  12
BRANCH   2  21
HETATM   21  C   UNL     1      19.298  49.181  48.516  1.00  0.00    -0.006 A 
HETATM   22  C   UNL     1      19.119  49.611  49.844  1.00  0.00     0.042 A 
HETATM   23 CL   UNL     1      18.585  48.549  51.099  1.00  0.00    -0.084 Cl
HETATM   24  C   UNL     1      19.364  50.941  50.204  1.00  0.00     0.024 A 
HETATM   25  C   UNL     1      19.800  51.862  49.252  1.00  0.00     0.002 A 
HETATM   26  C   UNL     1      19.993  51.456  47.937  1.00  0.00     0.001 A 
HETATM   27  C   UNL     1      19.747  50.131  47.571  1.00  0.00     0.011 A 
ENDBRANCH   2  21
BRANCH   1  28
HETATM   28  C   UNL     1      16.711  47.827  47.021  1.00  0.00     0.293 C 
HETATM   29  O   UNL     1      16.020  47.274  47.862  1.00  0.00    -0.259 OA
BRANCH  28  30
HETATM   30  O   UNL     1      16.273  48.763  46.147  1.00  0.00    -0.318 OA
BRANCH  30  31
HETATM   31  C   UNL     1      16.555  50.131  46.481  1.00  0.00     0.174 C 
HETATM   32  C   UNL     1      15.769  50.539  47.713  1.00  0.00     0.034 C 
ENDBRANCH  30  31
ENDBRANCH  28  30
ENDBRANCH   1  28
TORSDOF 7
ENDMDL
MODEL 5
REMARK VINA RESULT:      -8.1      5.591      7.710
REMARK  7 active torsions:
REMARK  status: ('A' for Active; 'I' for Inactive)
REMARK    1  A    between atoms: C_2  and  O_3 
REMARK    2  A    between atoms: O_3  and  C_4 
REMARK    3  A    between atoms: C_4  and  C_5 
REMARK    4  A    between atoms: C_6  and  C_7 
REMARK    5  A    between atoms: C_18  and  S_19 
REMARK    6  A    between atoms: S_19  and  C_20 
REMARK    7  A    between atoms: C_20  and  C_21 
ROOT
HETATM    1  C   UNL     1      27.776  38.707  49.593  1.00  0.00     0.070 C 
HETATM    2  C   UNL     1      26.858  39.866  49.196  1.00  0.00     0.204 C 
HETATM    3  N   UNL     1      27.094  41.040  50.045  1.00  0.00    -0.082 N 
HETATM    4  C   UNL     1      28.178  41.185  50.863  1.00  0.00     0.726 A 
HETATM    5  N   UNL     1      29.051  40.168  50.979  1.00  0.00    -0.192 N 
HETATM    6  N   UNL     1      26.289  42.120  50.098  1.00  0.00    -0.128 NA
HETATM    7  C   UNL     1      26.981  42.908  50.930  1.00  0.00     0.226 A 
HETATM    8  N   UNL     1      28.146  42.366  51.421  1.00  0.00    -0.035 NA
HETATM    9  C   UNL     1      28.827  38.906  50.432  1.00  0.00     0.037 C 
HETATM   10  C   UNL     1      29.817  37.841  50.836  1.00  0.00     0.070 C 
HETATM   11  H   UNL     1      29.802  40.257  51.660  1.00  0.00     0.184 HD
ENDROOT
BRANCH   7  12
HETATM   12  S   UNL     1      26.486  44.529  51.328  1.00  0.00    -0.083 SA
BRANCH  12  13
HETATM   13  C   UNL     1      26.123  44.351  53.097  1.00  0.00     0.123 C 
BRANCH  13  14
HETATM   14  C   UNL     1      27.175  45.023  53.948  1.00  0.00    -0.027 A 
HETATM   15  C   UNL     1      27.087  46.363  54.360  1.00  0.00     0.041 A 
HETATM   16 CL   UNL     1      25.763  47.376  53.903  1.00  0.00    -0.084 Cl
HETATM   17  C   UNL     1      28.083  46.926  55.164  1.00  0.00     0.024 A 
HETATM   18  C   UNL     1      29.178  46.163  55.569  1.00  0.00     0.002 A 
HETATM   19  C   UNL     1      29.278  44.833  55.174  1.00  0.00     0.001 A 
HETATM   20  C   UNL     1      28.283  44.266  54.374  1.00  0.00     0.009 A 
ENDBRANCH  13  14
ENDBRANCH  12  13
ENDBRANCH   7  12
BRANCH   2  21
HETATM   21  C   UNL     1      27.009  40.293  47.733  1.00  0.00    -0.006 A 
HETATM   22  C   UNL     1      25.912  40.370  46.856  1.00  0.00     0.042 A 
HETATM   23 CL   UNL     1      24.304  39.964  47.343  1.00  0.00    -0.084 Cl
HETATM   24  C   UNL     1      26.085  40.780  45.530  1.00  0.00     0.024 A 
HETATM   25  C   UNL     1      27.350  41.128  45.056  1.00  0.00     0.002 A 
HETATM   26  C   UNL     1      28.446  41.069  45.909  1.00  0.00     0.001 A 
HETATM   27  C   UNL     1      28.280  40.658  47.233  1.00  0.00     0.011 A 
ENDBRANCH   2  21
BRANCH   1  28
HETATM   28  C   UNL     1      27.399  37.347  49.123  1.00  0.00     0.293 C 
HETATM   29  O   UNL     1      26.566  36.634  49.658  1.00  0.00    -0.259 OA
BRANCH  28  30
HETATM   30  O   UNL     1      28.081  37.036  47.995  1.00  0.00    -0.318 OA
BRANCH  30  31
HETATM   31  C   UNL     1      27.304  36.907  46.794  1.00  0.00     0.174 C 
HETATM   32  C   UNL     1      28.140  37.295  45.589  1.00  0.00     0.034 C 
ENDBRANCH  30  31
ENDBRANCH  28  30
ENDBRANCH   1  28
TORSDOF 7
ENDMDL
MODEL 6
REMARK VINA RESULT:      -7.7      4.368      8.523
REMARK  7 active torsions:
REMARK  status: ('A' for Active; 'I' for Inactive)
REMARK    1  A    between atoms: C_2  and  O_3 
REMARK    2  A    between atoms: O_3  and  C_4 
REMARK    3  A    between atoms: C_4  and  C_5 
REMARK    4  A    between atoms: C_6  and  C_7 
REMARK    5  A    between atoms: C_18  and  S_19 
REMARK    6  A    between atoms: S_19  and  C_20 
REMARK    7  A    between atoms: C_20  and  C_21 
ROOT
HETATM    1  C   UNL     1      24.178  46.464  49.501  1.00  0.00     0.070 C 
HETATM    2  C   UNL     1      23.517  47.197  48.331  1.00  0.00     0.204 C 
HETATM    3  N   UNL     1      22.478  46.367  47.707  1.00  0.00    -0.082 N 
HETATM    4  C   UNL     1      21.964  45.236  48.274  1.00  0.00     0.726 A 
HETATM    5  N   UNL     1      22.484  44.788  49.430  1.00  0.00    -0.192 N 
HETATM    6  N   UNL     1      21.893  46.637  46.524  1.00  0.00    -0.128 NA
HETATM    7  C   UNL     1      20.988  45.652  46.463  1.00  0.00     0.226 A 
HETATM    8  N   UNL     1      21.003  44.771  47.519  1.00  0.00    -0.035 NA
HETATM    9  C   UNL     1      23.633  45.325  50.007  1.00  0.00     0.037 C 
HETATM   10  C   UNL     1      24.180  44.565  51.191  1.00  0.00     0.070 C 
HETATM   11  H   UNL     1      22.152  43.895  49.791  1.00  0.00     0.184 HD
ENDROOT
BRANCH   7  12
HETATM   12  S   UNL     1      19.827  45.514  45.172  1.00  0.00    -0.083 SA
BRANCH  12  13
HETATM   13  C   UNL     1      19.076  47.164  45.209  1.00  0.00     0.123 C 
BRANCH  13  14
HETATM   14  C   UNL     1      18.386  47.430  46.527  1.00  0.00    -0.027 A 
HETATM   15  C   UNL     1      18.384  48.689  47.151  1.00  0.00     0.041 A 
HETATM   16 CL   UNL     1      19.199  50.051  46.467  1.00  0.00    -0.084 Cl
HETATM   17  C   UNL     1      17.712  48.879  48.363  1.00  0.00     0.024 A 
HETATM   18  C   UNL     1      17.034  47.821  48.967  1.00  0.00     0.002 A 
HETATM   19  C   UNL     1      17.022  46.570  48.360  1.00  0.00     0.001 A 
HETATM   20  C   UNL     1      17.689  46.376  47.148  1.00  0.00     0.009 A 
ENDBRANCH  13  14
ENDBRANCH  12  13
ENDBRANCH   7  12
BRANCH   2  21
HETATM   21  C   UNL     1      22.889  48.537  48.724  1.00  0.00    -0.006 A 
HETATM   22  C   UNL     1      23.564  49.760  48.557  1.00  0.00     0.042 A 
HETATM   23 CL   UNL     1      25.167  49.856  47.919  1.00  0.00    -0.084 Cl
HETATM   24  C   UNL     1      22.953  50.967  48.914  1.00  0.00     0.024 A 
HETATM   25  C   UNL     1      21.659  50.978  49.434  1.00  0.00     0.002 A 
HETATM   26  C   UNL     1      20.971  49.782  49.598  1.00  0.00     0.001 A 
HETATM   27  C   UNL     1      21.577  48.574  49.246  1.00  0.00     0.011 A 
ENDBRANCH   2  21
BRANCH   1  28
HETATM   28  C   UNL     1      25.491  46.977  49.973  1.00  0.00     0.293 C 
HETATM   29  O   UNL     1      26.536  46.892  49.347  1.00  0.00    -0.259 OA
BRANCH  28  30
HETATM   30  O   UNL     1      25.351  47.589  51.172  1.00  0.00    -0.318 OA
BRANCH  30  31
HETATM   31  C   UNL     1      26.341  47.281  52.166  1.00  0.00     0.174 C 
HETATM   32  C   UNL     1      25.704  47.247  53.542  1.00  0.00     0.034 C 
ENDBRANCH  30  31
ENDBRANCH  28  30
ENDBRANCH   1  28
TORSDOF 7
ENDMDL
MODEL 7
REMARK VINA RESULT:      -7.6     11.311     14.165
REMARK  7 active torsions:
REMARK  status: ('A' for Active; 'I' for Inactive)
REMARK    1  A    between atoms: C_2  and  O_3 
REMARK    2  A    between atoms: O_3  and  C_4 
REMARK    3  A    between atoms: C_4  and  C_5 
REMARK    4  A    between atoms: C_6  and  C_7 
REMARK    5  A    between atoms: C_18  and  S_19 
REMARK    6  A    between atoms: S_19  and  C_20 
REMARK    7  A    between atoms: C_20  and  C_21 
ROOT
HETATM    1  C   UNL     1      33.239  50.731  40.220  1.00  0.00     0.070 C 
HETATM    2  C   UNL     1      31.903  50.408  39.547  1.00  0.00     0.204 C 
HETATM    3  N   UNL     1      31.536  49.001  39.751  1.00  0.00    -0.082 N 
HETATM    4  C   UNL     1      32.138  48.181  40.663  1.00  0.00     0.726 A 
HETATM    5  N   UNL     1      33.188  48.641  41.365  1.00  0.00    -0.192 N 
HETATM    6  N   UNL     1      30.550  48.364  39.090  1.00  0.00    -0.128 NA
HETATM    7  C   UNL     1      30.573  47.170  39.695  1.00  0.00     0.226 A 
HETATM    8  N   UNL     1      31.536  47.020  40.665  1.00  0.00    -0.035 NA
HETATM    9  C   UNL     1      33.804  49.862  41.101  1.00  0.00     0.037 C 
HETATM   10  C   UNL     1      35.087  50.117  41.854  1.00  0.00     0.070 C 
HETATM   11  H   UNL     1      33.682  47.989  41.972  1.00  0.00     0.184 HD
ENDROOT
BRANCH   7  12
HETATM   12  S   UNL     1      29.434  45.903  39.332  1.00  0.00    -0.083 SA
BRANCH  12  13
HETATM   13  C   UNL     1      27.888  46.848  39.243  1.00  0.00     0.123 C 
BRANCH  13  14
HETATM   14  C   UNL     1      26.878  46.354  40.252  1.00  0.00    -0.027 A 
HETATM   15  C   UNL     1      25.643  46.986  40.472  1.00  0.00     0.041 A 
HETATM   16 CL   UNL     1      25.178  48.412  39.615  1.00  0.00    -0.084 Cl
HETATM   17  C   UNL     1      24.739  46.471  41.407  1.00  0.00     0.024 A 
HETATM   18  C   UNL     1      25.052  45.322  42.133  1.00  0.00     0.002 A 
HETATM   19  C   UNL     1      26.269  44.682  41.923  1.00  0.00     0.001 A 
HETATM   20  C   UNL     1      27.173  45.190  40.988  1.00  0.00     0.009 A 
ENDBRANCH  13  14
ENDBRANCH  12  13
ENDBRANCH   7  12
BRANCH   2  21
HETATM   21  C   UNL     1      30.744  51.282  40.035  1.00  0.00    -0.006 A 
HETATM   22  C   UNL     1      29.877  51.943  39.146  1.00  0.00     0.042 A 
HETATM   23 CL   UNL     1      30.059  51.851  37.430  1.00  0.00    -0.084 Cl
HETATM   24  C   UNL     1      28.819  52.722  39.628  1.00  0.00     0.024 A 
HETATM   25  C   UNL     1      28.600  52.848  40.999  1.00  0.00     0.002 A 
HETATM   26  C   UNL     1      29.439  52.194  41.894  1.00  0.00     0.001 A 
HETATM   27  C   UNL     1      30.498  51.418  41.420  1.00  0.00     0.011 A 
ENDBRANCH   2  21
BRANCH   1  28
HETATM   28  C   UNL     1      33.943  51.965  39.781  1.00  0.00     0.293 C 
HETATM   29  O   UNL     1      33.726  53.082  40.222  1.00  0.00    -0.259 OA
BRANCH  28  30
HETATM   30  O   UNL     1      34.884  51.663  38.857  1.00  0.00    -0.318 OA
BRANCH  30  31
HETATM   31  C   UNL     1      36.200  52.190  39.089  1.00  0.00     0.174 C 
HETATM   32  C   UNL     1      37.248  51.168  38.691  1.00  0.00     0.034 C 
ENDBRANCH  30  31
ENDBRANCH  28  30
ENDBRANCH   1  28
TORSDOF 7
ENDMDL
MODEL 8
REMARK VINA RESULT:      -7.5      5.465      8.434
REMARK  7 active torsions:
REMARK  status: ('A' for Active; 'I' for Inactive)
REMARK    1  A    between atoms: C_2  and  O_3 
REMARK    2  A    between atoms: O_3  and  C_4 
REMARK    3  A    between atoms: C_4  and  C_5 
REMARK    4  A    between atoms: C_6  and  C_7 
REMARK    5  A    between atoms: C_18  and  S_19 
REMARK    6  A    between atoms: S_19  and  C_20 
REMARK    7  A    between atoms: C_20  and  C_21 
ROOT
HETATM    1  C   UNL     1      17.159  50.674  46.103  1.00  0.00     0.070 C 
HETATM    2  C   UNL     1      18.354  49.768  46.413  1.00  0.00     0.204 C 
HETATM    3  N   UNL     1      19.320  50.448  47.285  1.00  0.00    -0.082 N 
HETATM    4  C   UNL     1      19.052  51.600  47.968  1.00  0.00     0.726 A 
HETATM    5  N   UNL     1      17.869  52.213  47.780  1.00  0.00    -0.192 N 
HETATM    6  N   UNL     1      20.568  50.005  47.535  1.00  0.00    -0.128 NA
HETATM    7  C   UNL     1      20.981  50.913  48.428  1.00  0.00     0.226 A 
HETATM    8  N   UNL     1      20.078  51.909  48.717  1.00  0.00    -0.035 NA
HETATM    9  C   UNL     1      16.958  51.824  46.801  1.00  0.00     0.037 C 
HETATM   10  C   UNL     1      15.782  52.751  46.605  1.00  0.00     0.070 C 
HETATM   11  H   UNL     1      17.722  53.116  48.225  1.00  0.00     0.184 HD
ENDROOT
BRANCH   7  12
HETATM   12  S   UNL     1      22.529  50.823  49.220  1.00  0.00    -0.083 SA
BRANCH  12  13
HETATM   13  C   UNL     1      23.183  49.283  48.520  1.00  0.00     0.123 C 
BRANCH  13  14
HETATM   14  C   UNL     1      24.666  49.144  48.773  1.00  0.00    -0.027 A 
HETATM   15  C   UNL     1      25.220  48.100  49.531  1.00  0.00     0.041 A 
HETATM   16 CL   UNL     1      24.239  46.882  50.266  1.00  0.00    -0.084 Cl
HETATM   17  C   UNL     1      26.603  48.013  49.716  1.00  0.00     0.024 A 
HETATM   18  C   UNL     1      27.452  48.963  49.149  1.00  0.00     0.002 A 
HETATM   19  C   UNL     1      26.920  50.001  48.392  1.00  0.00     0.001 A 
HETATM   20  C   UNL     1      25.539  50.090  48.201  1.00  0.00     0.009 A 
ENDBRANCH  13  14
ENDBRANCH  12  13
ENDBRANCH   7  12
BRANCH   2  21
HETATM   21  C   UNL     1      17.962  48.443  47.073  1.00  0.00    -0.006 A 
HETATM   22  C   UNL     1      18.451  47.204  46.619  1.00  0.00     0.042 A 
HETATM   23 CL   UNL     1      19.512  47.067  45.262  1.00  0.00    -0.084 Cl
HETATM   24  C   UNL     1      18.083  46.014  47.257  1.00  0.00     0.024 A 
HETATM   25  C   UNL     1      17.231  46.037  48.360  1.00  0.00     0.002 A 
HETATM   26  C   UNL     1      16.745  47.251  48.831  1.00  0.00     0.001 A 
HETATM   27  C   UNL     1      17.106  48.442  48.198  1.00  0.00     0.011 A 
ENDBRANCH   2  21
BRANCH   1  28
HETATM   28  C   UNL     1      16.310  50.308  44.939  1.00  0.00     0.293 C 
HETATM   29  O   UNL     1      16.545  50.620  43.783  1.00  0.00    -0.259 OA
BRANCH  28  30
HETATM   30  O   UNL     1      15.267  49.545  45.342  1.00  0.00    -0.318 OA
BRANCH  30  31
HETATM   31  C   UNL     1      14.760  48.600  44.387  1.00  0.00     0.174 C 
HETATM   32  C   UNL     1      15.443  47.258  44.569  1.00  0.00     0.034 C 
ENDBRANCH  30  31
ENDBRANCH  28  30
ENDBRANCH   1  28
TORSDOF 7
ENDMDL
MODEL 9
REMARK VINA RESULT:      -7.3     11.450     14.173
REMARK  7 active torsions:
REMARK  status: ('A' for Active; 'I' for Inactive)
REMARK    1  A    between atoms: C_2  and  O_3 
REMARK    2  A    between atoms: O_3  and  C_4 
REMARK    3  A    between atoms: C_4  and  C_5 
REMARK    4  A    between atoms: C_6  and  C_7 
REMARK    5  A    between atoms: C_18  and  S_19 
REMARK    6  A    between atoms: S_19  and  C_20 
REMARK    7  A    between atoms: C_20  and  C_21 
ROOT
HETATM    1  C   UNL     1      29.226  51.763  39.839  1.00  0.00     0.070 C 
HETATM    2  C   UNL     1      28.848  50.492  40.604  1.00  0.00     0.204 C 
HETATM    3  N   UNL     1      27.531  49.995  40.184  1.00  0.00    -0.082 N 
HETATM    4  C   UNL     1      26.876  50.423  39.065  1.00  0.00     0.726 A 
HETATM    5  N   UNL     1      27.409  51.419  38.334  1.00  0.00    -0.192 N 
HETATM    6  N   UNL     1      26.830  49.045  40.833  1.00  0.00    -0.128 NA
HETATM    7  C   UNL     1      25.780  48.906  40.014  1.00  0.00     0.226 A 
HETATM    8  N   UNL     1      25.773  49.737  38.919  1.00  0.00    -0.035 NA
HETATM    9  C   UNL     1      28.520  52.153  38.744  1.00  0.00     0.037 C 
HETATM   10  C   UNL     1      28.849  53.357  37.896  1.00  0.00     0.070 C 
HETATM   11  H   UNL     1      26.865  51.787  37.557  1.00  0.00     0.184 HD
ENDROOT
BRANCH   7  12
HETATM   12  S   UNL     1      24.530  47.722  40.273  1.00  0.00    -0.083 SA
BRANCH  12  13
HETATM   13  C   UNL     1      23.277  48.281  39.087  1.00  0.00     0.123 C 
BRANCH  13  14
HETATM   14  C   UNL     1      22.259  49.187  39.741  1.00  0.00    -0.027 A 
HETATM   15  C   UNL     1      21.195  48.705  40.522  1.00  0.00     0.041 A 
HETATM   16 CL   UNL     1      20.943  47.016  40.785  1.00  0.00    -0.084 Cl
HETATM   17  C   UNL     1      20.294  49.593  41.119  1.00  0.00     0.024 A 
HETATM   18  C   UNL     1      20.441  50.969  40.947  1.00  0.00     0.002 A 
HETATM   19  C   UNL     1      21.492  51.462  40.181  1.00  0.00     0.001 A 
HETATM   20  C   UNL     1      22.396  50.580  39.586  1.00  0.00     0.009 A 
ENDBRANCH  13  14
ENDBRANCH  12  13
ENDBRANCH   7  12
BRANCH   2  21
HETATM   21  C   UNL     1      29.862  49.356  40.443  1.00  0.00    -0.006 A 
HETATM   22  C   UNL     1      30.871  49.110  41.392  1.00  0.00     0.042 A 
HETATM   23 CL   UNL     1      31.071  50.082  42.807  1.00  0.00    -0.084 Cl
HETATM   24  C   UNL     1      31.772  48.053  41.220  1.00  0.00     0.024 A 
HETATM   25  C   UNL     1      31.679  47.219  40.106  1.00  0.00     0.002 A 
HETATM   26  C   UNL     1      30.683  47.439  39.161  1.00  0.00     0.001 A 
HETATM   27  C   UNL     1      29.783  48.493  39.326  1.00  0.00     0.011 A 
ENDBRANCH   2  21
BRANCH   1  28
HETATM   28  C   UNL     1      30.309  52.606  40.411  1.00  0.00     0.293 C 
HETATM   29  O   UNL     1      30.314  53.053  41.547  1.00  0.00    -0.259 OA
BRANCH  28  30
HETATM   30  O   UNL     1      31.303  52.767  39.507  1.00  0.00    -0.318 OA
BRANCH  30  31
HETATM   31  C   UNL     1      32.376  51.814  39.560  1.00  0.00     0.174 C 
HETATM   32  C   UNL     1      32.446  51.036  38.260  1.00  0.00     0.034 C 
ENDBRANCH  30  31
ENDBRANCH  28  30
ENDBRANCH   1  28
TORSDOF 7
ENDMDL
MODEL 10
REMARK VINA RESULT:      -7.3     10.573     12.219
REMARK  7 active torsions:
REMARK  status: ('A' for Active; 'I' for Inactive)
REMARK    1  A    between atoms: C_2  and  O_3 
REMARK    2  A    between atoms: O_3  and  C_4 
REMARK    3  A    between atoms: C_4  and  C_5 
REMARK    4  A    between atoms: C_6  and  C_7 
REMARK    5  A    between atoms: C_18  and  S_19 
REMARK    6  A    between atoms: S_19  and  C_20 
REMARK    7  A    between atoms: C_20  and  C_21 
ROOT
HETATM    1  C   UNL     1      28.386  44.897  39.210  1.00  0.00     0.070 C 
HETATM    2  C   UNL     1      28.099  45.947  40.287  1.00  0.00     0.204 C 
HETATM    3  N   UNL     1      28.991  47.105  40.145  1.00  0.00    -0.082 N 
HETATM    4  C   UNL     1      29.752  47.350  39.038  1.00  0.00     0.726 A 
HETATM    5  N   UNL     1      29.769  46.448  38.041  1.00  0.00    -0.192 N 
HETATM    6  N   UNL     1      29.142  48.072  41.072  1.00  0.00    -0.128 NA
HETATM    7  C   UNL     1      29.972  48.905  40.431  1.00  0.00     0.226 A 
HETATM    8  N   UNL     1      30.369  48.494  39.180  1.00  0.00    -0.035 NA
HETATM    9  C   UNL     1      29.174  45.192  38.142  1.00  0.00     0.037 C 
HETATM   10  C   UNL     1      29.468  44.243  37.006  1.00  0.00     0.070 C 
HETATM   11  H   UNL     1      30.410  46.601  37.266  1.00  0.00     0.184 HD
ENDROOT
BRANCH   7  12
HETATM   12  S   UNL     1      30.477  50.433  41.096  1.00  0.00    -0.083 SA
BRANCH  12  13
HETATM   13  C   UNL     1      31.376  49.883  42.573  1.00  0.00     0.123 C 
BRANCH  13  14
HETATM   14  C   UNL     1      32.801  50.385  42.573  1.00  0.00    -0.027 A 
HETATM   15  C   UNL     1      33.275  51.346  43.481  1.00  0.00     0.041 A 
HETATM   16 CL   UNL     1      32.250  52.061  44.675  1.00  0.00    -0.084 Cl
HETATM   17  C   UNL     1      34.610  51.760  43.446  1.00  0.00     0.024 A 
HETATM   18  C   UNL     1      35.490  51.221  42.507  1.00  0.00     0.002 A 
HETATM   19  C   UNL     1      35.039  50.265  41.604  1.00  0.00     0.001 A 
HETATM   20  C   UNL     1      33.707  49.847  41.638  1.00  0.00     0.009 A 
ENDBRANCH  13  14
ENDBRANCH  12  13
ENDBRANCH   7  12
BRANCH   2  21
HETATM   21  C   UNL     1      26.653  46.452  40.280  1.00  0.00    -0.006 A 
HETATM   22  C   UNL     1      25.730  46.097  41.280  1.00  0.00     0.042 A 
HETATM   23 CL   UNL     1      26.137  45.042  42.587  1.00  0.00    -0.084 Cl
HETATM   24  C   UNL     1      24.420  46.590  41.250  1.00  0.00     0.024 A 
HETATM   25  C   UNL     1      24.011  47.448  40.231  1.00  0.00     0.002 A 
HETATM   26  C   UNL     1      24.910  47.820  39.239  1.00  0.00     0.001 A 
HETATM   27  C   UNL     1      26.218  47.329  39.262  1.00  0.00     0.011 A 
ENDBRANCH   2  21
BRANCH   1  28
HETATM   28  C   UNL     1      27.871  43.522  39.445  1.00  0.00     0.293 C 
HETATM   29  O   UNL     1      26.828  43.083  38.989  1.00  0.00    -0.259 OA
BRANCH  28  30
HETATM   30  O   UNL     1      28.746  42.818  40.200  1.00  0.00    -0.318 OA
BRANCH  30  31
HETATM   31  C   UNL     1      28.250  41.605  40.789  1.00  0.00     0.174 C 
HETATM   32  C   UNL     1      27.909  41.836  42.248  1.00  0.00     0.034 C 
ENDBRANCH  30  31
ENDBRANCH  28  30
ENDBRANCH   1  28
TORSDOF 7
ENDMDL
