MODEL 1
REMARK VINA RESULT:      -8.7      0.000      0.000
REMARK  5 active torsions:
REMARK  status: ('A' for Active; 'I' for Inactive)
REMARK    1  A    between atoms: C_2  and  C_3 
REMARK    2  A    between atoms: C_3  and  N_4 
REMARK    3  A    between atoms: N_4  and  C_7 
REMARK    4  A    between atoms: C_10  and  O_11 
REMARK    5  A    between atoms: O_11  and  C_12 
ROOT
HETATM    1  C   UNL     1      28.543  44.142  53.201  1.00  0.00     0.164 A 
HETATM    2  N   UNL     1      28.433  44.898  54.312  1.00  0.00    -0.236 NA
HETATM    3  C   UNL     1      29.318  44.640  55.308  1.00  0.00     0.142 A 
HETATM    4  C   UNL     1      30.297  43.656  55.243  1.00  0.00     0.062 A 
HETATM    5  C   UNL     1      31.192  43.449  56.336  1.00  0.00     0.101 C 
HETATM    6  N   UNL     1      31.916  43.282  57.226  1.00  0.00    -0.191 NA
HETATM    7  C   UNL     1      30.372  42.886  54.084  1.00  0.00     0.028 A 
HETATM    8  C   UNL     1      29.475  43.128  53.045  1.00  0.00     0.059 A 
ENDROOT
BRANCH   1   9
HETATM    9  O   UNL     1      27.663  44.331  52.157  1.00  0.00    -0.329 OA
BRANCH   9  10
HETATM   10  C   UNL     1      26.496  45.098  52.480  1.00  0.00     0.130 C 
HETATM   11  C   UNL     1      26.327  46.121  51.348  1.00  0.00     0.034 C 
HETATM   12  C   UNL     1      26.094  45.440  49.995  1.00  0.00     0.035 C 
HETATM   13  C   UNL     1      24.919  44.456  50.007  1.00  0.00     0.186 C 
HETATM   14  C   UNL     1      24.992  43.492  51.198  1.00  0.00     0.035 C 
HETATM   15  C   UNL     1      25.259  44.190  52.535  1.00  0.00     0.034 C 
BRANCH  13  16
HETATM   16  N   UNL     1      23.610  45.198  50.057  1.00  0.00    -0.067 N 
HETATM   17  H   UNL     1      23.633  45.962  50.743  1.00  0.00     0.277 HD
HETATM   18  H   UNL     1      22.871  44.564  50.393  1.00  0.00     0.277 HD
BRANCH  16  19
HETATM   19  C   UNL     1      23.135  45.740  48.745  1.00  0.00     0.271 C 
BRANCH  19  20
HETATM   20  C   UNL     1      22.712  47.175  48.857  1.00  0.00    -0.030 A 
HETATM   21  C   UNL     1      23.663  48.186  49.067  1.00  0.00     0.012 A 
HETATM   22  C   UNL     1      23.270  49.525  49.137  1.00  0.00     0.040 A 
HETATM   23  C   UNL     1      21.928  49.865  48.991  1.00  0.00     0.102 A 
HETATM   24  C   UNL     1      20.969  48.865  48.823  1.00  0.00     0.102 A 
HETATM   25  O   UNL     1      21.622  51.199  49.019  1.00  0.00    -0.346 OA
HETATM   26  C   UNL     1      21.357  47.527  48.750  1.00  0.00     0.048 A 
HETATM   27  O   UNL     1      19.629  49.120  48.698  1.00  0.00    -0.346 OA
HETATM   28  C   UNL     1      19.306  50.474  49.049  1.00  0.00     0.202 C 
HETATM   29  C   UNL     1      20.322  51.444  48.466  1.00  0.00     0.202 C 
ENDBRANCH  19  20
ENDBRANCH  16  19
ENDBRANCH  13  16
ENDBRANCH   9  10
ENDBRANCH   1   9
TORSDOF 5
ENDMDL
MODEL 2
REMARK VINA RESULT:      -8.6      1.112      1.669
REMARK  5 active torsions:
REMARK  status: ('A' for Active; 'I' for Inactive)
REMARK    1  A    between atoms: C_2  and  C_3 
REMARK    2  A    between atoms: C_3  and  N_4 
REMARK    3  A    between atoms: N_4  and  C_7 
REMARK    4  A    between atoms: C_10  and  O_11 
REMARK    5  A    between atoms: O_11  and  C_12 
ROOT
HETATM    1  C   UNL     1      28.690  44.499  53.926  1.00  0.00     0.164 A 
HETATM    2  N   UNL     1      28.743  45.501  54.826  1.00  0.00    -0.236 NA
HETATM    3  C   UNL     1      29.597  45.332  55.867  1.00  0.00     0.142 A 
HETATM    4  C   UNL     1      30.390  44.206  56.049  1.00  0.00     0.062 A 
HETATM    5  C   UNL     1      31.265  44.107  57.173  1.00  0.00     0.101 C 
HETATM    6  N   UNL     1      31.974  44.029  58.087  1.00  0.00    -0.191 NA
HETATM    7  C   UNL     1      30.299  43.185  55.104  1.00  0.00     0.028 A 
HETATM    8  C   UNL     1      29.429  43.330  54.025  1.00  0.00     0.059 A 
ENDROOT
BRANCH   1   9
HETATM    9  O   UNL     1      27.827  44.589  52.854  1.00  0.00    -0.329 OA
BRANCH   9  10
HETATM   10  C   UNL     1      26.511  45.056  53.175  1.00  0.00     0.130 C 
HETATM   11  C   UNL     1      26.224  46.224  52.220  1.00  0.00     0.034 C 
HETATM   12  C   UNL     1      26.231  45.775  50.755  1.00  0.00     0.035 C 
HETATM   13  C   UNL     1      25.277  44.608  50.475  1.00  0.00     0.186 C 
HETATM   14  C   UNL     1      25.454  43.470  51.488  1.00  0.00     0.035 C 
HETATM   15  C   UNL     1      25.478  43.944  52.944  1.00  0.00     0.034 C 
BRANCH  13  16
HETATM   16  N   UNL     1      23.846  45.077  50.509  1.00  0.00    -0.067 N 
HETATM   17  H   UNL     1      23.767  46.030  50.882  1.00  0.00     0.277 HD
HETATM   18  H   UNL     1      23.312  44.491  51.167  1.00  0.00     0.277 HD
BRANCH  16  19
HETATM   19  C   UNL     1      23.123  45.007  49.201  1.00  0.00     0.271 C 
BRANCH  19  20
HETATM   20  C   UNL     1      22.648  46.359  48.755  1.00  0.00    -0.030 A 
HETATM   21  C   UNL     1      21.633  46.479  47.791  1.00  0.00     0.012 A 
HETATM   22  C   UNL     1      21.170  47.739  47.404  1.00  0.00     0.040 A 
HETATM   23  C   UNL     1      21.711  48.886  47.977  1.00  0.00     0.102 A 
HETATM   24  C   UNL     1      22.748  48.781  48.905  1.00  0.00     0.102 A 
HETATM   25  O   UNL     1      21.173  50.084  47.587  1.00  0.00    -0.346 OA
HETATM   26  C   UNL     1      23.212  47.525  49.297  1.00  0.00     0.048 A 
HETATM   27  O   UNL     1      23.346  49.864  49.492  1.00  0.00    -0.346 OA
HETATM   28  C   UNL     1      22.992  51.091  48.838  1.00  0.00     0.202 C 
HETATM   29  C   UNL     1      21.507  51.127  48.512  1.00  0.00     0.202 C 
ENDBRANCH  19  20
ENDBRANCH  16  19
ENDBRANCH  13  16
ENDBRANCH   9  10
ENDBRANCH   1   9
TORSDOF 5
ENDMDL
MODEL 3
REMARK VINA RESULT:      -8.4      2.627     10.037
REMARK  5 active torsions:
REMARK  status: ('A' for Active; 'I' for Inactive)
REMARK    1  A    between atoms: C_2  and  C_3 
REMARK    2  A    between atoms: C_3  and  N_4 
REMARK    3  A    between atoms: N_4  and  C_7 
REMARK    4  A    between atoms: C_10  and  O_11 
REMARK    5  A    between atoms: O_11  and  C_12 
ROOT
HETATM    1  C   UNL     1      23.627  46.575  49.192  1.00  0.00     0.164 A 
HETATM    2  N   UNL     1      22.490  46.278  48.530  1.00  0.00    -0.236 NA
HETATM    3  C   UNL     1      21.693  47.325  48.198  1.00  0.00     0.142 A 
HETATM    4  C   UNL     1      21.980  48.649  48.505  1.00  0.00     0.062 A 
HETATM    5  C   UNL     1      21.088  49.694  48.116  1.00  0.00     0.101 C 
HETATM    6  N   UNL     1      20.361  50.541  47.800  1.00  0.00    -0.191 NA
HETATM    7  C   UNL     1      23.157  48.917  49.201  1.00  0.00     0.028 A 
HETATM    8  C   UNL     1      23.994  47.861  49.557  1.00  0.00     0.059 A 
ENDROOT
BRANCH   1   9
HETATM    9  O   UNL     1      24.474  45.562  49.585  1.00  0.00    -0.329 OA
BRANCH   9  10
HETATM   10  C   UNL     1      25.051  45.725  50.887  1.00  0.00     0.130 C 
HETATM   11  C   UNL     1      24.391  44.671  51.786  1.00  0.00     0.034 C 
HETATM   12  C   UNL     1      24.687  43.247  51.305  1.00  0.00     0.035 C 
HETATM   13  C   UNL     1      26.185  42.958  51.154  1.00  0.00     0.186 C 
HETATM   14  C   UNL     1      26.901  44.057  50.360  1.00  0.00     0.035 C 
HETATM   15  C   UNL     1      26.565  45.474  50.834  1.00  0.00     0.034 C 
BRANCH  13  16
HETATM   16  N   UNL     1      26.837  42.826  52.505  1.00  0.00    -0.067 N 
HETATM   17  H   UNL     1      26.521  41.983  52.998  1.00  0.00     0.277 HD
HETATM   18  H   UNL     1      26.538  43.609  53.104  1.00  0.00     0.277 HD
BRANCH  16  19
HETATM   19  C   UNL     1      28.333  42.851  52.494  1.00  0.00     0.271 C 
BRANCH  19  20
HETATM   20  C   UNL     1      28.886  43.583  53.682  1.00  0.00    -0.030 A 
HETATM   21  C   UNL     1      28.418  44.866  54.011  1.00  0.00     0.012 A 
HETATM   22  C   UNL     1      28.911  45.531  55.137  1.00  0.00     0.040 A 
HETATM   23  C   UNL     1      29.868  44.920  55.943  1.00  0.00     0.102 A 
HETATM   24  C   UNL     1      30.370  43.664  55.601  1.00  0.00     0.102 A 
HETATM   25  O   UNL     1      30.268  45.609  57.057  1.00  0.00    -0.346 OA
HETATM   26  C   UNL     1      29.879  42.995  54.480  1.00  0.00     0.048 A 
HETATM   27  O   UNL     1      31.329  43.012  56.330  1.00  0.00    -0.346 OA
HETATM   28  C   UNL     1      31.952  43.878  57.291  1.00  0.00     0.202 C 
HETATM   29  C   UNL     1      30.918  44.743  57.996  1.00  0.00     0.202 C 
ENDBRANCH  19  20
ENDBRANCH  16  19
ENDBRANCH  13  16
ENDBRANCH   9  10
ENDBRANCH   1   9
TORSDOF 5
ENDMDL
MODEL 4
REMARK VINA RESULT:      -8.4      1.196      1.971
REMARK  5 active torsions:
REMARK  status: ('A' for Active; 'I' for Inactive)
REMARK    1  A    between atoms: C_2  and  C_3 
REMARK    2  A    between atoms: C_3  and  N_4 
REMARK    3  A    between atoms: N_4  and  C_7 
REMARK    4  A    between atoms: C_10  and  O_11 
REMARK    5  A    between atoms: O_11  and  C_12 
ROOT
HETATM    1  C   UNL     1      28.035  44.499  53.214  1.00  0.00     0.164 A 
HETATM    2  N   UNL     1      28.048  45.200  54.366  1.00  0.00    -0.236 NA
HETATM    3  C   UNL     1      29.003  44.862  55.268  1.00  0.00     0.142 A 
HETATM    4  C   UNL     1      29.937  43.852  55.071  1.00  0.00     0.062 A 
HETATM    5  C   UNL     1      30.913  43.560  56.072  1.00  0.00     0.101 C 
HETATM    6  N   UNL     1      31.703  43.324  56.887  1.00  0.00    -0.191 NA
HETATM    7  C   UNL     1      29.886  43.140  53.874  1.00  0.00     0.028 A 
HETATM    8  C   UNL     1      28.913  43.465  52.929  1.00  0.00     0.059 A 
ENDROOT
BRANCH   1   9
HETATM    9  O   UNL     1      27.078  44.770  52.260  1.00  0.00    -0.329 OA
BRANCH   9  10
HETATM   10  C   UNL     1      25.935  45.491  52.737  1.00  0.00     0.130 C 
HETATM   11  C   UNL     1      26.166  46.962  52.361  1.00  0.00     0.034 C 
HETATM   12  C   UNL     1      26.255  47.153  50.843  1.00  0.00     0.035 C 
HETATM   13  C   UNL     1      25.044  46.592  50.090  1.00  0.00     0.186 C 
HETATM   14  C   UNL     1      24.709  45.161  50.530  1.00  0.00     0.035 C 
HETATM   15  C   UNL     1      24.658  44.984  52.051  1.00  0.00     0.034 C 
BRANCH  13  16
HETATM   16  N   UNL     1      23.836  47.466  50.307  1.00  0.00    -0.067 N 
HETATM   17  H   UNL     1      23.830  47.878  51.247  1.00  0.00     0.277 HD
HETATM   18  H   UNL     1      22.986  46.887  50.267  1.00  0.00     0.277 HD
BRANCH  16  19
HETATM   19  C   UNL     1      23.652  48.557  49.299  1.00  0.00     0.271 C 
BRANCH  19  20
HETATM   20  C   UNL     1      22.205  48.917  49.128  1.00  0.00    -0.030 A 
HETATM   21  C   UNL     1      21.324  48.043  48.471  1.00  0.00     0.012 A 
HETATM   22  C   UNL     1      19.970  48.367  48.344  1.00  0.00     0.040 A 
HETATM   23  C   UNL     1      19.487  49.560  48.874  1.00  0.00     0.102 A 
HETATM   24  C   UNL     1      20.361  50.454  49.492  1.00  0.00     0.102 A 
HETATM   25  O   UNL     1      18.141  49.788  48.757  1.00  0.00    -0.346 OA
HETATM   26  C   UNL     1      21.713  50.134  49.624  1.00  0.00     0.048 A 
HETATM   27  O   UNL     1      19.965  51.657  50.015  1.00  0.00    -0.346 OA
HETATM   28  C   UNL     1      18.636  52.009  49.599  1.00  0.00     0.202 C 
HETATM   29  C   UNL     1      17.707  50.807  49.668  1.00  0.00     0.202 C 
ENDBRANCH  19  20
ENDBRANCH  16  19
ENDBRANCH  13  16
ENDBRANCH   9  10
ENDBRANCH   1   9
TORSDOF 5
ENDMDL
MODEL 5
REMARK VINA RESULT:      -8.3      2.661     10.110
REMARK  5 active torsions:
REMARK  status: ('A' for Active; 'I' for Inactive)
REMARK    1  A    between atoms: C_2  and  C_3 
REMARK    2  A    between atoms: C_3  and  N_4 
REMARK    3  A    between atoms: N_4  and  C_7 
REMARK    4  A    between atoms: C_10  and  O_11 
REMARK    5  A    between atoms: O_11  and  C_12 
ROOT
HETATM    1  C   UNL     1      22.784  48.882  49.405  1.00  0.00     0.164 A 
HETATM    2  N   UNL     1      21.862  48.068  48.851  1.00  0.00    -0.236 NA
HETATM    3  C   UNL     1      20.867  48.669  48.153  1.00  0.00     0.142 A 
HETATM    4  C   UNL     1      20.750  50.044  47.991  1.00  0.00     0.062 A 
HETATM    5  C   UNL     1      19.671  50.599  47.237  1.00  0.00     0.101 C 
HETATM    6  N   UNL     1      18.794  51.045  46.626  1.00  0.00    -0.191 NA
HETATM    7  C   UNL     1      21.714  50.856  48.588  1.00  0.00     0.028 A 
HETATM    8  C   UNL     1      22.747  50.265  49.314  1.00  0.00     0.059 A 
ENDROOT
BRANCH   1   9
HETATM    9  O   UNL     1      23.811  48.345  50.151  1.00  0.00    -0.329 OA
BRANCH   9  10
HETATM   10  C   UNL     1      24.776  47.596  49.400  1.00  0.00     0.130 C 
HETATM   11  C   UNL     1      26.137  47.873  50.054  1.00  0.00     0.034 C 
HETATM   12  C   UNL     1      26.179  47.390  51.507  1.00  0.00     0.035 C 
HETATM   13  C   UNL     1      25.800  45.913  51.666  1.00  0.00     0.186 C 
HETATM   14  C   UNL     1      24.503  45.573  50.922  1.00  0.00     0.035 C 
HETATM   15  C   UNL     1      24.467  46.095  49.482  1.00  0.00     0.034 C 
BRANCH  13  16
HETATM   16  N   UNL     1      26.905  45.027  51.154  1.00  0.00    -0.067 N 
HETATM   17  H   UNL     1      27.802  45.524  51.111  1.00  0.00     0.277 HD
HETATM   18  H   UNL     1      26.704  44.761  50.179  1.00  0.00     0.277 HD
BRANCH  16  19
HETATM   19  C   UNL     1      27.095  43.748  51.908  1.00  0.00     0.271 C 
BRANCH  19  20
HETATM   20  C   UNL     1      28.000  43.931  53.092  1.00  0.00    -0.030 A 
HETATM   21  C   UNL     1      29.149  43.138  53.242  1.00  0.00     0.012 A 
HETATM   22  C   UNL     1      30.007  43.333  54.327  1.00  0.00     0.040 A 
HETATM   23  C   UNL     1      29.728  44.322  55.266  1.00  0.00     0.102 A 
HETATM   24  C   UNL     1      28.567  45.087  55.150  1.00  0.00     0.102 A 
HETATM   25  O   UNL     1      30.639  44.491  56.275  1.00  0.00    -0.346 OA
HETATM   26  C   UNL     1      27.709  44.898  54.066  1.00  0.00     0.048 A 
HETATM   27  O   UNL     1      28.213  46.061  56.046  1.00  0.00    -0.346 OA
HETATM   28  C   UNL     1      29.002  45.997  57.244  1.00  0.00     0.202 C 
HETATM   29  C   UNL     1      30.469  45.760  56.919  1.00  0.00     0.202 C 
ENDBRANCH  19  20
ENDBRANCH  16  19
ENDBRANCH  13  16
ENDBRANCH   9  10
ENDBRANCH   1   9
TORSDOF 5
ENDMDL
MODEL 6
REMARK VINA RESULT:      -7.9      5.592      9.373
REMARK  5 active torsions:
REMARK  status: ('A' for Active; 'I' for Inactive)
REMARK    1  A    between atoms: C_2  and  C_3 
REMARK    2  A    between atoms: C_3  and  N_4 
REMARK    3  A    between atoms: N_4  and  C_7 
REMARK    4  A    between atoms: C_10  and  O_11 
REMARK    5  A    between atoms: O_11  and  C_12 
ROOT
HETATM    1  C   UNL     1      22.734  49.468  48.658  1.00  0.00     0.164 A 
HETATM    2  N   UNL     1      23.252  48.471  49.405  1.00  0.00    -0.236 NA
HETATM    3  C   UNL     1      24.605  48.394  49.455  1.00  0.00     0.142 A 
HETATM    4  C   UNL     1      25.459  49.263  48.786  1.00  0.00     0.062 A 
HETATM    5  C   UNL     1      26.876  49.114  48.892  1.00  0.00     0.101 C 
HETATM    6  N   UNL     1      28.025  48.991  48.980  1.00  0.00    -0.191 NA
HETATM    7  C   UNL     1      24.889  50.273  48.013  1.00  0.00     0.028 A 
HETATM    8  C   UNL     1      23.500  50.375  47.942  1.00  0.00     0.059 A 
ENDROOT
BRANCH   1   9
HETATM    9  O   UNL     1      21.367  49.593  48.541  1.00  0.00    -0.329 OA
BRANCH   9  10
HETATM   10  C   UNL     1      20.849  50.892  48.858  1.00  0.00     0.130 C 
HETATM   11  C   UNL     1      19.728  51.167  47.845  1.00  0.00     0.034 C 
HETATM   12  C   UNL     1      18.587  50.152  47.969  1.00  0.00     0.035 C 
HETATM   13  C   UNL     1      18.014  50.054  49.388  1.00  0.00     0.186 C 
HETATM   14  C   UNL     1      19.119  49.899  50.441  1.00  0.00     0.035 C 
HETATM   15  C   UNL     1      20.266  50.901  50.278  1.00  0.00     0.034 C 
BRANCH  13  16
HETATM   16  N   UNL     1      17.197  51.277  49.712  1.00  0.00    -0.067 N 
HETATM   17  H   UNL     1      17.757  52.136  49.647  1.00  0.00     0.277 HD
HETATM   18  H   UNL     1      16.895  51.233  50.696  1.00  0.00     0.277 HD
BRANCH  16  19
HETATM   19  C   UNL     1      15.954  51.445  48.897  1.00  0.00     0.271 C 
BRANCH  19  20
HETATM   20  C   UNL     1      15.224  52.708  49.249  1.00  0.00    -0.030 A 
HETATM   21  C   UNL     1      14.994  53.050  50.592  1.00  0.00     0.012 A 
HETATM   22  C   UNL     1      14.344  54.243  50.918  1.00  0.00     0.040 A 
HETATM   23  C   UNL     1      13.924  55.105  49.909  1.00  0.00     0.102 A 
HETATM   24  C   UNL     1      14.110  54.756  48.571  1.00  0.00     0.102 A 
HETATM   25  O   UNL     1      13.340  56.279  50.303  1.00  0.00    -0.346 OA
HETATM   26  C   UNL     1      14.762  53.567  48.241  1.00  0.00     0.048 A 
HETATM   27  O   UNL     1      13.702  55.540  47.524  1.00  0.00    -0.346 OA
HETATM   28  C   UNL     1      12.822  56.590  47.953  1.00  0.00     0.202 C 
HETATM   29  C   UNL     1      13.327  57.235  49.234  1.00  0.00     0.202 C 
ENDBRANCH  19  20
ENDBRANCH  16  19
ENDBRANCH  13  16
ENDBRANCH   9  10
ENDBRANCH   1   9
TORSDOF 5
ENDMDL
MODEL 7
REMARK VINA RESULT:      -7.8      3.810     11.110
REMARK  5 active torsions:
REMARK  status: ('A' for Active; 'I' for Inactive)
REMARK    1  A    between atoms: C_2  and  C_3 
REMARK    2  A    between atoms: C_3  and  N_4 
REMARK    3  A    between atoms: N_4  and  C_7 
REMARK    4  A    between atoms: C_10  and  O_11 
REMARK    5  A    between atoms: O_11  and  C_12 
ROOT
HETATM    1  C   UNL     1      18.016  51.166  48.797  1.00  0.00     0.164 A 
HETATM    2  N   UNL     1      16.837  50.611  48.448  1.00  0.00    -0.236 NA
HETATM    3  C   UNL     1      15.719  51.251  48.875  1.00  0.00     0.142 A 
HETATM    4  C   UNL     1      15.730  52.412  49.638  1.00  0.00     0.062 A 
HETATM    5  C   UNL     1      14.507  53.025  50.046  1.00  0.00     0.101 C 
HETATM    6  N   UNL     1      13.512  53.520  50.376  1.00  0.00    -0.191 NA
HETATM    7  C   UNL     1      16.967  52.949  49.991  1.00  0.00     0.028 A 
HETATM    8  C   UNL     1      18.133  52.312  49.568  1.00  0.00     0.059 A 
ENDROOT
BRANCH   1   9
HETATM    9  O   UNL     1      19.194  50.559  48.420  1.00  0.00    -0.329 OA
BRANCH   9  10
HETATM   10  C   UNL     1      20.030  50.134  49.505  1.00  0.00     0.130 C 
HETATM   11  C   UNL     1      20.222  48.621  49.332  1.00  0.00     0.034 C 
HETATM   12  C   UNL     1      20.934  48.284  48.018  1.00  0.00     0.035 C 
HETATM   13  C   UNL     1      22.270  49.015  47.847  1.00  0.00     0.186 C 
HETATM   14  C   UNL     1      22.139  50.517  48.131  1.00  0.00     0.035 C 
HETATM   15  C   UNL     1      21.395  50.833  49.433  1.00  0.00     0.034 C 
BRANCH  13  16
HETATM   16  N   UNL     1      23.312  48.433  48.766  1.00  0.00    -0.067 N 
HETATM   17  H   UNL     1      23.142  48.691  49.745  1.00  0.00     0.277 HD
HETATM   18  H   UNL     1      24.230  48.841  48.541  1.00  0.00     0.277 HD
BRANCH  16  19
HETATM   19  C   UNL     1      23.478  46.948  48.677  1.00  0.00     0.271 C 
BRANCH  19  20
HETATM   20  C   UNL     1      24.071  46.379  49.933  1.00  0.00    -0.030 A 
HETATM   21  C   UNL     1      23.974  45.006  50.211  1.00  0.00     0.012 A 
HETATM   22  C   UNL     1      24.556  44.474  51.364  1.00  0.00     0.040 A 
HETATM   23  C   UNL     1      25.242  45.306  52.245  1.00  0.00     0.102 A 
HETATM   24  C   UNL     1      25.307  46.678  52.001  1.00  0.00     0.102 A 
HETATM   25  O   UNL     1      25.830  44.709  53.328  1.00  0.00    -0.346 OA
HETATM   26  C   UNL     1      24.730  47.213  50.849  1.00  0.00     0.048 A 
HETATM   27  O   UNL     1      25.942  47.562  52.834  1.00  0.00    -0.346 OA
HETATM   28  C   UNL     1      26.264  46.968  54.100  1.00  0.00     0.202 C 
HETATM   29  C   UNL     1      26.818  45.564  53.918  1.00  0.00     0.202 C 
ENDBRANCH  19  20
ENDBRANCH  16  19
ENDBRANCH  13  16
ENDBRANCH   9  10
ENDBRANCH   1   9
TORSDOF 5
ENDMDL
MODEL 8
REMARK VINA RESULT:      -7.6      5.930     10.321
REMARK  5 active torsions:
REMARK  status: ('A' for Active; 'I' for Inactive)
REMARK    1  A    between atoms: C_2  and  C_3 
REMARK    2  A    between atoms: C_3  and  N_4 
REMARK    3  A    between atoms: N_4  and  C_7 
REMARK    4  A    between atoms: C_10  and  O_11 
REMARK    5  A    between atoms: O_11  and  C_12 
ROOT
HETATM    1  C   UNL     1      21.402  49.670  48.318  1.00  0.00     0.164 A 
HETATM    2  N   UNL     1      21.770  48.516  48.910  1.00  0.00    -0.236 NA
HETATM    3  C   UNL     1      23.103  48.322  49.078  1.00  0.00     0.142 A 
HETATM    4  C   UNL     1      24.078  49.225  48.674  1.00  0.00     0.062 A 
HETATM    5  C   UNL     1      25.461  48.946  48.890  1.00  0.00     0.101 C 
HETATM    6  N   UNL     1      26.584  48.716  49.066  1.00  0.00    -0.191 NA
HETATM    7  C   UNL     1      23.660  50.402  48.054  1.00  0.00     0.028 A 
HETATM    8  C   UNL     1      22.298  50.627  47.866  1.00  0.00     0.059 A 
ENDROOT
BRANCH   1   9
HETATM    9  O   UNL     1      20.067  49.925  48.091  1.00  0.00    -0.329 OA
BRANCH   9  10
HETATM   10  C   UNL     1      19.215  49.750  49.231  1.00  0.00     0.130 C 
HETATM   11  C   UNL     1      19.368  51.018  50.082  1.00  0.00     0.034 C 
HETATM   12  C   UNL     1      18.908  52.269  49.327  1.00  0.00     0.035 C 
HETATM   13  C   UNL     1      17.478  52.158  48.785  1.00  0.00     0.186 C 
HETATM   14  C   UNL     1      17.254  50.843  48.029  1.00  0.00     0.035 C 
HETATM   15  C   UNL     1      17.752  49.608  48.787  1.00  0.00     0.034 C 
BRANCH  13  16
HETATM   16  N   UNL     1      16.479  52.254  49.908  1.00  0.00    -0.067 N 
HETATM   17  H   UNL     1      16.730  52.990  50.577  1.00  0.00     0.277 HD
HETATM   18  H   UNL     1      16.499  51.382  50.456  1.00  0.00     0.277 HD
BRANCH  16  19
HETATM   19  C   UNL     1      15.059  52.450  49.480  1.00  0.00     0.271 C 
BRANCH  19  20
HETATM   20  C   UNL     1      14.718  53.904  49.333  1.00  0.00    -0.030 A 
HETATM   21  C   UNL     1      13.987  54.358  48.223  1.00  0.00     0.012 A 
HETATM   22  C   UNL     1      13.643  55.707  48.107  1.00  0.00     0.040 A 
HETATM   23  C   UNL     1      14.020  56.611  49.097  1.00  0.00     0.102 A 
HETATM   24  C   UNL     1      14.782  56.178  50.183  1.00  0.00     0.102 A 
HETATM   25  O   UNL     1      13.605  57.906  48.942  1.00  0.00    -0.346 OA
HETATM   26  C   UNL     1      15.126  54.831  50.305  1.00  0.00     0.048 A 
HETATM   27  O   UNL     1      15.211  57.011  51.182  1.00  0.00    -0.346 OA
HETATM   28  C   UNL     1      15.041  58.394  50.836  1.00  0.00     0.202 C 
HETATM   29  C   UNL     1      13.691  58.629  50.177  1.00  0.00     0.202 C 
ENDBRANCH  19  20
ENDBRANCH  16  19
ENDBRANCH  13  16
ENDBRANCH   9  10
ENDBRANCH   1   9
TORSDOF 5
ENDMDL
MODEL 9
REMARK VINA RESULT:      -7.6     18.416     21.390
REMARK  5 active torsions:
REMARK  status: ('A' for Active; 'I' for Inactive)
REMARK    1  A    between atoms: C_2  and  C_3 
REMARK    2  A    between atoms: C_3  and  N_4 
REMARK    3  A    between atoms: N_4  and  C_7 
REMARK    4  A    between atoms: C_10  and  O_11 
REMARK    5  A    between atoms: O_11  and  C_12 
ROOT
HETATM    1  C   UNL     1      37.404  50.393  66.957  1.00  0.00     0.164 A 
HETATM    2  N   UNL     1      37.071  50.594  68.248  1.00  0.00    -0.236 NA
HETATM    3  C   UNL     1      37.090  51.879  68.684  1.00  0.00     0.142 A 
HETATM    4  C   UNL     1      37.434  52.965  67.889  1.00  0.00     0.062 A 
HETATM    5  C   UNL     1      37.427  54.289  68.424  1.00  0.00     0.101 C 
HETATM    6  N   UNL     1      37.422  55.362  68.862  1.00  0.00    -0.191 NA
HETATM    7  C   UNL     1      37.786  52.717  66.563  1.00  0.00     0.028 A 
HETATM    8  C   UNL     1      37.777  51.407  66.088  1.00  0.00     0.059 A 
ENDROOT
BRANCH   1   9
HETATM    9  O   UNL     1      37.431  49.111  66.450  1.00  0.00    -0.329 OA
BRANCH   9  10
HETATM   10  C   UNL     1      37.956  48.997  65.121  1.00  0.00     0.130 C 
HETATM   11  C   UNL     1      39.262  48.199  65.241  1.00  0.00     0.034 C 
HETATM   12  C   UNL     1      39.017  46.787  65.784  1.00  0.00     0.035 C 
HETATM   13  C   UNL     1      37.981  45.998  64.976  1.00  0.00     0.186 C 
HETATM   14  C   UNL     1      36.705  46.814  64.733  1.00  0.00     0.035 C 
HETATM   15  C   UNL     1      36.972  48.233  64.223  1.00  0.00     0.034 C 
BRANCH  13  16
HETATM   16  N   UNL     1      38.554  45.579  63.648  1.00  0.00    -0.067 N 
HETATM   17  H   UNL     1      38.595  46.364  62.987  1.00  0.00     0.277 HD
HETATM   18  H   UNL     1      37.924  44.895  63.205  1.00  0.00     0.277 HD
BRANCH  16  19
HETATM   19  C   UNL     1      39.901  44.930  63.713  1.00  0.00     0.271 C 
BRANCH  19  20
HETATM   20  C   UNL     1      39.799  43.433  63.670  1.00  0.00    -0.030 A 
HETATM   21  C   UNL     1      38.906  42.803  62.789  1.00  0.00     0.012 A 
HETATM   22  C   UNL     1      38.838  41.409  62.728  1.00  0.00     0.040 A 
HETATM   23  C   UNL     1      39.663  40.635  63.538  1.00  0.00     0.102 A 
HETATM   24  C   UNL     1      40.524  41.250  64.447  1.00  0.00     0.102 A 
HETATM   25  O   UNL     1      39.579  39.276  63.388  1.00  0.00    -0.346 OA
HETATM   26  C   UNL     1      40.598  42.642  64.510  1.00  0.00     0.048 A 
HETATM   27  O   UNL     1      41.347  40.556  65.294  1.00  0.00    -0.346 OA
HETATM   28  C   UNL     1      41.011  39.161  65.343  1.00  0.00     0.202 C 
HETATM   29  C   UNL     1      40.723  38.621  63.951  1.00  0.00     0.202 C 
ENDBRANCH  19  20
ENDBRANCH  16  19
ENDBRANCH  13  16
ENDBRANCH   9  10
ENDBRANCH   1   9
TORSDOF 5
ENDMDL
MODEL 10
REMARK VINA RESULT:      -7.6      3.692     10.252
REMARK  5 active torsions:
REMARK  status: ('A' for Active; 'I' for Inactive)
REMARK    1  A    between atoms: C_2  and  C_3 
REMARK    2  A    between atoms: C_3  and  N_4 
REMARK    3  A    between atoms: N_4  and  C_7 
REMARK    4  A    between atoms: C_10  and  O_11 
REMARK    5  A    between atoms: O_11  and  C_12 
ROOT
HETATM    1  C   UNL     1      23.683  44.049  48.393  1.00  0.00     0.164 A 
HETATM    2  N   UNL     1      23.358  43.149  47.443  1.00  0.00    -0.236 NA
HETATM    3  C   UNL     1      22.118  43.261  46.905  1.00  0.00     0.142 A 
HETATM    4  C   UNL     1      21.190  44.225  47.280  1.00  0.00     0.062 A 
HETATM    5  C   UNL     1      19.904  44.276  46.662  1.00  0.00     0.101 C 
HETATM    6  N   UNL     1      18.860  44.315  46.159  1.00  0.00    -0.191 NA
HETATM    7  C   UNL     1      21.557  45.130  48.275  1.00  0.00     0.028 A 
HETATM    8  C   UNL     1      22.825  45.038  48.847  1.00  0.00     0.059 A 
ENDROOT
BRANCH   1   9
HETATM    9  O   UNL     1      24.918  43.982  49.003  1.00  0.00    -0.329 OA
BRANCH   9  10
HETATM   10  C   UNL     1      24.891  44.069  50.434  1.00  0.00     0.130 C 
HETATM   11  C   UNL     1      24.926  42.625  50.953  1.00  0.00     0.034 C 
HETATM   12  C   UNL     1      26.212  41.902  50.540  1.00  0.00     0.035 C 
HETATM   13  C   UNL     1      27.486  42.649  50.951  1.00  0.00     0.186 C 
HETATM   14  C   UNL     1      27.434  44.130  50.553  1.00  0.00     0.035 C 
HETATM   15  C   UNL     1      26.126  44.824  50.945  1.00  0.00     0.034 C 
BRANCH  13  16
HETATM   16  N   UNL     1      27.699  42.550  52.439  1.00  0.00    -0.067 N 
HETATM   17  H   UNL     1      27.224  41.731  52.837  1.00  0.00     0.277 HD
HETATM   18  H   UNL     1      27.260  43.360  52.901  1.00  0.00     0.277 HD
BRANCH  16  19
HETATM   19  C   UNL     1      29.130  42.540  52.877  1.00  0.00     0.271 C 
BRANCH  19  20
HETATM   20  C   UNL     1      29.365  43.473  54.029  1.00  0.00    -0.030 A 
HETATM   21  C   UNL     1      28.687  44.701  54.105  1.00  0.00     0.012 A 
HETATM   22  C   UNL     1      28.884  45.551  55.195  1.00  0.00     0.040 A 
HETATM   23  C   UNL     1      29.752  45.182  56.219  1.00  0.00     0.102 A 
HETATM   24  C   UNL     1      30.462  43.985  56.134  1.00  0.00     0.102 A 
HETATM   25  O   UNL     1      29.856  46.041  57.281  1.00  0.00    -0.346 OA
HETATM   26  C   UNL     1      30.267  43.130  55.048  1.00  0.00     0.048 A 
HETATM   27  O   UNL     1      31.351  43.566  57.088  1.00  0.00    -0.346 OA
HETATM   28  C   UNL     1      31.678  44.616  58.012  1.00  0.00     0.202 C 
HETATM   29  C   UNL     1      30.434  45.390  58.419  1.00  0.00     0.202 C 
ENDBRANCH  19  20
ENDBRANCH  16  19
ENDBRANCH  13  16
ENDBRANCH   9  10
ENDBRANCH   1   9
TORSDOF 5
ENDMDL
