MODEL 1
REMARK VINA RESULT:      -7.5      0.000      0.000
REMARK  4 active torsions:
REMARK  status: ('A' for Active; 'I' for Inactive)
REMARK    1  A    between atoms: C_2  and  C_3 
REMARK    2  A    between atoms: C_3  and  C_4 
REMARK    3  A    between atoms: C_4  and  C_5 
REMARK    4  A    between atoms: C_25  and  N_26 
ROOT
HETATM    1  C   UNL     1      28.781  51.982  39.927  1.00  0.00     0.067 A 
HETATM    2  N   UNL     1      28.000  52.846  40.599  1.00  0.00    -0.177 NA
HETATM    3  N   UNL     1      28.607  52.990  41.792  1.00  0.00    -0.256 N 
HETATM    4  H   UNL     1      28.206  53.625  42.473  1.00  0.00     0.191 HD
HETATM    5  C   UNL     1      29.735  52.245  41.898  1.00  0.00     0.176 A 
HETATM    6  C   UNL     1      29.868  51.544  40.725  1.00  0.00     0.049 A 
HETATM    7  C   UNL     1      31.036  50.634  40.552  1.00  0.00     0.144 A 
HETATM    8  C   UNL     1      31.810  50.946  39.243  1.00  0.00     0.246 A 
HETATM    9  O   UNL     1      32.426  51.962  38.962  1.00  0.00    -0.271 OA
HETATM   10  N   UNL     1      31.694  49.830  38.421  1.00  0.00    -0.325 N 
HETATM   11  C   UNL     1      30.933  48.835  39.018  1.00  0.00     0.043 A 
HETATM   12  C   UNL     1      30.498  49.237  40.290  1.00  0.00     0.003 A 
HETATM   13  C   UNL     1      30.624  47.609  38.466  1.00  0.00     0.030 A 
HETATM   14  C   UNL     1      29.842  46.746  39.229  1.00  0.00     0.003 A 
HETATM   15  C   UNL     1      29.400  47.121  40.510  1.00  0.00     0.007 A 
HETATM   16  C   UNL     1      29.727  48.370  41.067  1.00  0.00    -0.051 A 
HETATM   17  C   UNL     1      29.218  48.726  42.433  1.00  0.00     0.049 C 
HETATM   18  C   UNL     1      31.987  50.734  41.738  1.00  0.00     0.081 A 
HETATM   19  C   UNL     1      33.314  50.002  41.620  1.00  0.00     0.021 C 
HETATM   20  N   UNL     1      34.415  49.394  41.521  1.00  0.00    -0.096 N 
HETATM   21  C   UNL     1      31.730  51.497  42.834  1.00  0.00     0.140 A 
HETATM   22  O   UNL     1      30.544  52.246  42.952  1.00  0.00    -0.279 OA
HETATM   23  H   UNL     1      32.125  49.775  37.509  1.00  0.00     0.169 HD
ENDROOT
BRANCH  21  24
HETATM   24  N   UNL     1      32.560  51.640  43.922  1.00  0.00    -0.282 NA
HETATM   25  H   UNL     1      32.971  50.779  44.276  1.00  0.00     0.126 HD
HETATM   26  H   UNL     1      33.253  52.370  43.775  1.00  0.00     0.126 HD
ENDBRANCH  21  24
BRANCH   1  27
HETATM   27  C   UNL     1      28.445  51.645  38.510  1.00  0.00     0.062 C 
BRANCH  27  28
HETATM   28  C   UNL     1      27.095  50.942  38.369  1.00  0.00     0.006 C 
BRANCH  28  29
HETATM   29  C   UNL     1      27.250  49.426  38.481  1.00  0.00    -0.004 C 
HETATM   30  C   UNL     1      26.330  48.846  39.542  1.00  0.00     0.005 C 
ENDBRANCH  28  29
ENDBRANCH  27  28
ENDBRANCH   1  27
TORSDOF 4
ENDMDL
MODEL 2
REMARK VINA RESULT:      -7.4      1.927      2.717
REMARK  4 active torsions:
REMARK  status: ('A' for Active; 'I' for Inactive)
REMARK    1  A    between atoms: C_2  and  C_3 
REMARK    2  A    between atoms: C_3  and  C_4 
REMARK    3  A    between atoms: C_4  and  C_5 
REMARK    4  A    between atoms: C_25  and  N_26 
ROOT
HETATM    1  C   UNL     1      28.063  50.750  40.469  1.00  0.00     0.067 A 
HETATM    2  N   UNL     1      27.036  51.463  40.962  1.00  0.00    -0.177 NA
HETATM    3  N   UNL     1      27.563  52.674  41.227  1.00  0.00    -0.256 N 
HETATM    4  H   UNL     1      26.960  53.402  41.592  1.00  0.00     0.191 HD
HETATM    5  C   UNL     1      28.883  52.746  40.926  1.00  0.00     0.176 A 
HETATM    6  C   UNL     1      29.262  51.509  40.466  1.00  0.00     0.049 A 
HETATM    7  C   UNL     1      30.676  51.291  40.050  1.00  0.00     0.144 A 
HETATM    8  C   UNL     1      30.762  50.703  38.616  1.00  0.00     0.246 A 
HETATM    9  O   UNL     1      30.425  51.232  37.569  1.00  0.00    -0.271 OA
HETATM   10  N   UNL     1      31.321  49.434  38.725  1.00  0.00    -0.325 N 
HETATM   11  C   UNL     1      31.600  49.112  40.045  1.00  0.00     0.043 A 
HETATM   12  C   UNL     1      31.239  50.165  40.901  1.00  0.00     0.003 A 
HETATM   13  C   UNL     1      32.150  47.930  40.493  1.00  0.00     0.030 A 
HETATM   14  C   UNL     1      32.350  47.799  41.865  1.00  0.00     0.003 A 
HETATM   15  C   UNL     1      32.006  48.842  42.743  1.00  0.00     0.007 A 
HETATM   16  C   UNL     1      31.453  50.047  42.276  1.00  0.00    -0.051 A 
HETATM   17  C   UNL     1      31.091  51.123  43.257  1.00  0.00     0.049 C 
HETATM   18  C   UNL     1      31.470  52.590  40.112  1.00  0.00     0.081 A 
HETATM   19  C   UNL     1      32.880  52.563  39.542  1.00  0.00     0.021 C 
HETATM   20  N   UNL     1      34.049  52.540  39.070  1.00  0.00    -0.096 N 
HETATM   21  C   UNL     1      30.949  53.757  40.575  1.00  0.00     0.140 A 
HETATM   22  O   UNL     1      29.626  53.841  41.047  1.00  0.00    -0.279 OA
HETATM   23  H   UNL     1      31.498  48.843  37.925  1.00  0.00     0.169 HD
ENDROOT
BRANCH  21  24
HETATM   24  N   UNL     1      31.613  54.962  40.635  1.00  0.00    -0.282 NA
HETATM   25  H   UNL     1      31.837  55.293  41.570  1.00  0.00     0.126 HD
HETATM   26  H   UNL     1      32.417  54.981  40.012  1.00  0.00     0.126 HD
ENDBRANCH  21  24
BRANCH   1  27
HETATM   27  C   UNL     1      27.821  49.356  39.988  1.00  0.00     0.062 C 
BRANCH  27  28
HETATM   28  C   UNL     1      28.078  48.301  41.064  1.00  0.00     0.006 C 
BRANCH  28  29
HETATM   29  C   UNL     1      28.528  46.980  40.441  1.00  0.00    -0.004 C 
HETATM   30  C   UNL     1      28.634  47.083  38.929  1.00  0.00     0.005 C 
ENDBRANCH  28  29
ENDBRANCH  27  28
ENDBRANCH   1  27
TORSDOF 4
ENDMDL
MODEL 3
REMARK VINA RESULT:      -7.4     11.912     14.451
REMARK  4 active torsions:
REMARK  status: ('A' for Active; 'I' for Inactive)
REMARK    1  A    between atoms: C_2  and  C_3 
REMARK    2  A    between atoms: C_3  and  C_4 
REMARK    3  A    between atoms: C_4  and  C_5 
REMARK    4  A    between atoms: C_25  and  N_26 
ROOT
HETATM    1  C   UNL     1      21.531  48.611  47.911  1.00  0.00     0.067 A 
HETATM    2  N   UNL     1      22.386  47.720  48.443  1.00  0.00    -0.177 NA
HETATM    3  N   UNL     1      21.607  46.685  48.812  1.00  0.00    -0.256 N 
HETATM    4  H   UNL     1      22.042  45.867  49.224  1.00  0.00     0.191 HD
HETATM    5  C   UNL     1      20.296  46.894  48.538  1.00  0.00     0.176 A 
HETATM    6  C   UNL     1      20.192  48.147  47.987  1.00  0.00     0.049 A 
HETATM    7  C   UNL     1      18.851  48.651  47.577  1.00  0.00     0.144 A 
HETATM    8  C   UNL     1      18.853  49.136  46.103  1.00  0.00     0.246 A 
HETATM    9  O   UNL     1      19.027  48.468  45.095  1.00  0.00    -0.271 OA
HETATM   10  N   UNL     1      18.600  50.503  46.119  1.00  0.00    -0.325 N 
HETATM   11  C   UNL     1      18.445  50.977  47.414  1.00  0.00     0.043 A 
HETATM   12  C   UNL     1      18.586  49.935  48.344  1.00  0.00     0.003 A 
HETATM   13  C   UNL     1      18.192  52.283  47.775  1.00  0.00     0.030 A 
HETATM   14  C   UNL     1      18.073  52.557  49.135  1.00  0.00     0.003 A 
HETATM   15  C   UNL     1      18.200  51.531  50.087  1.00  0.00     0.007 A 
HETATM   16  C   UNL     1      18.450  50.200  49.709  1.00  0.00    -0.051 A 
HETATM   17  C   UNL     1      18.592  49.145  50.766  1.00  0.00     0.049 C 
HETATM   18  C   UNL     1      17.786  47.575  47.754  1.00  0.00     0.081 A 
HETATM   19  C   UNL     1      16.401  47.882  47.206  1.00  0.00     0.021 C 
HETATM   20  N   UNL     1      15.253  48.136  46.751  1.00  0.00    -0.096 N 
HETATM   21  C   UNL     1      18.045  46.358  48.301  1.00  0.00     0.140 A 
HETATM   22  O   UNL     1      19.329  46.009  48.757  1.00  0.00    -0.279 OA
HETATM   23  H   UNL     1      18.535  51.058  45.277  1.00  0.00     0.169 HD
ENDROOT
BRANCH  21  24
HETATM   24  N   UNL     1      17.128  45.344  48.466  1.00  0.00    -0.282 NA
HETATM   25  H   UNL     1      16.709  45.278  49.390  1.00  0.00     0.126 HD
HETATM   26  H   UNL     1      16.433  45.339  47.723  1.00  0.00     0.126 HD
ENDBRANCH  21  24
BRANCH   1  27
HETATM   27  C   UNL     1      22.067  49.873  47.317  1.00  0.00     0.062 C 
BRANCH  27  28
HETATM   28  C   UNL     1      21.891  51.084  48.233  1.00  0.00     0.006 C 
BRANCH  28  29
HETATM   29  C   UNL     1      22.670  50.905  49.536  1.00  0.00    -0.004 C 
HETATM   30  C   UNL     1      21.774  51.080  50.751  1.00  0.00     0.005 C 
ENDBRANCH  28  29
ENDBRANCH  27  28
ENDBRANCH   1  27
TORSDOF 4
ENDMDL
MODEL 4
REMARK VINA RESULT:      -7.3      2.431      5.050
REMARK  4 active torsions:
REMARK  status: ('A' for Active; 'I' for Inactive)
REMARK    1  A    between atoms: C_2  and  C_3 
REMARK    2  A    between atoms: C_3  and  C_4 
REMARK    3  A    between atoms: C_4  and  C_5 
REMARK    4  A    between atoms: C_25  and  N_26 
ROOT
HETATM    1  C   UNL     1      29.628  52.701  41.080  1.00  0.00     0.067 A 
HETATM    2  N   UNL     1      29.508  53.879  40.445  1.00  0.00    -0.177 NA
HETATM    3  N   UNL     1      28.877  53.579  39.294  1.00  0.00    -0.256 N 
HETATM    4  H   UNL     1      28.652  54.327  38.648  1.00  0.00     0.191 HD
HETATM    5  C   UNL     1      28.601  52.256  39.179  1.00  0.00     0.176 A 
HETATM    6  C   UNL     1      29.103  51.640  40.298  1.00  0.00     0.049 A 
HETATM    7  C   UNL     1      28.940  50.166  40.450  1.00  0.00     0.144 A 
HETATM    8  C   UNL     1      28.289  49.804  41.811  1.00  0.00     0.246 A 
HETATM    9  O   UNL     1      27.162  50.075  42.197  1.00  0.00    -0.271 OA
HETATM   10  N   UNL     1      29.228  49.081  42.537  1.00  0.00    -0.325 N 
HETATM   11  C   UNL     1      30.414  48.935  41.832  1.00  0.00     0.043 A 
HETATM   12  C   UNL     1      30.327  49.559  40.578  1.00  0.00     0.003 A 
HETATM   13  C   UNL     1      31.544  48.278  42.272  1.00  0.00     0.030 A 
HETATM   14  C   UNL     1      32.637  48.244  41.411  1.00  0.00     0.003 A 
HETATM   15  C   UNL     1      32.574  48.853  40.145  1.00  0.00     0.007 A 
HETATM   16  C   UNL     1      31.414  49.514  39.702  1.00  0.00    -0.051 A 
HETATM   17  C   UNL     1      31.403  50.159  38.348  1.00  0.00     0.049 C 
HETATM   18  C   UNL     1      28.098  49.590  39.317  1.00  0.00     0.081 A 
HETATM   19  C   UNL     1      27.693  48.130  39.435  1.00  0.00     0.021 C 
HETATM   20  N   UNL     1      27.356  46.918  39.533  1.00  0.00    -0.096 N 
HETATM   21  C   UNL     1      27.647  50.337  38.275  1.00  0.00     0.140 A 
HETATM   22  O   UNL     1      27.941  51.709  38.164  1.00  0.00    -0.279 OA
HETATM   23  H   UNL     1      29.043  48.713  43.460  1.00  0.00     0.169 HD
ENDROOT
BRANCH  21  24
HETATM   24  N   UNL     1      26.868  49.874  37.238  1.00  0.00    -0.282 NA
HETATM   25  H   UNL     1      26.186  49.162  37.486  1.00  0.00     0.126 HD
HETATM   26  H   UNL     1      26.457  50.638  36.704  1.00  0.00     0.126 HD
ENDBRANCH  21  24
BRANCH   1  27
HETATM   27  C   UNL     1      30.224  52.666  42.450  1.00  0.00     0.062 C 
BRANCH  27  28
HETATM   28  C   UNL     1      31.699  52.265  42.448  1.00  0.00     0.006 C 
BRANCH  28  29
HETATM   29  C   UNL     1      32.097  51.628  43.779  1.00  0.00    -0.004 C 
HETATM   30  C   UNL     1      33.563  51.867  44.097  1.00  0.00     0.005 C 
ENDBRANCH  28  29
ENDBRANCH  27  28
ENDBRANCH   1  27
TORSDOF 4
ENDMDL
MODEL 5
REMARK VINA RESULT:      -7.0      2.211      4.596
REMARK  4 active torsions:
REMARK  status: ('A' for Active; 'I' for Inactive)
REMARK    1  A    between atoms: C_2  and  C_3 
REMARK    2  A    between atoms: C_3  and  C_4 
REMARK    3  A    between atoms: C_4  and  C_5 
REMARK    4  A    between atoms: C_25  and  N_26 
ROOT
HETATM    1  C   UNL     1      28.485  48.028  38.802  1.00  0.00     0.067 A 
HETATM    2  N   UNL     1      28.739  47.006  37.966  1.00  0.00    -0.177 NA
HETATM    3  N   UNL     1      30.001  46.639  38.256  1.00  0.00    -0.256 N 
HETATM    4  H   UNL     1      30.411  45.856  37.759  1.00  0.00     0.191 HD
HETATM    5  C   UNL     1      30.552  47.393  39.239  1.00  0.00     0.176 A 
HETATM    6  C   UNL     1      29.619  48.334  39.598  1.00  0.00     0.049 A 
HETATM    7  C   UNL     1      29.950  49.311  40.674  1.00  0.00     0.144 A 
HETATM    8  C   UNL     1      28.868  49.321  41.786  1.00  0.00     0.246 A 
HETATM    9  O   UNL     1      28.575  48.416  42.552  1.00  0.00    -0.271 OA
HETATM   10  N   UNL     1      28.277  50.579  41.774  1.00  0.00    -0.325 N 
HETATM   11  C   UNL     1      28.824  51.390  40.790  1.00  0.00     0.043 A 
HETATM   12  C   UNL     1      29.827  50.706  40.084  1.00  0.00     0.003 A 
HETATM   13  C   UNL     1      28.458  52.689  40.512  1.00  0.00     0.030 A 
HETATM   14  C   UNL     1      29.130  53.334  39.477  1.00  0.00     0.003 A 
HETATM   15  C   UNL     1      30.144  52.676  38.760  1.00  0.00     0.007 A 
HETATM   16  C   UNL     1      30.517  51.353  39.056  1.00  0.00    -0.051 A 
HETATM   17  C   UNL     1      31.596  50.691  38.251  1.00  0.00     0.049 C 
HETATM   18  C   UNL     1      31.308  49.003  41.293  1.00  0.00     0.081 A 
HETATM   19  C   UNL     1      31.701  49.802  42.525  1.00  0.00     0.021 C 
HETATM   20  N   UNL     1      32.026  50.466  43.547  1.00  0.00    -0.096 N 
HETATM   21  C   UNL     1      32.123  48.014  40.839  1.00  0.00     0.140 A 
HETATM   22  O   UNL     1      31.767  47.204  39.744  1.00  0.00    -0.279 OA
HETATM   23  H   UNL     1      27.546  50.847  42.418  1.00  0.00     0.169 HD
ENDROOT
BRANCH  21  24
HETATM   24  N   UNL     1      33.348  47.679  41.371  1.00  0.00    -0.282 NA
HETATM   25  H   UNL     1      34.015  47.276  40.717  1.00  0.00     0.126 HD
HETATM   26  H   UNL     1      33.747  48.444  41.911  1.00  0.00     0.126 HD
ENDBRANCH  21  24
BRANCH   1  27
HETATM   27  C   UNL     1      27.124  48.644  38.811  1.00  0.00     0.062 C 
BRANCH  27  28
HETATM   28  C   UNL     1      26.015  47.636  39.115  1.00  0.00     0.006 C 
BRANCH  28  29
HETATM   29  C   UNL     1      25.780  47.515  40.620  1.00  0.00    -0.004 C 
HETATM   30  C   UNL     1      26.232  46.164  41.149  1.00  0.00     0.005 C 
ENDBRANCH  28  29
ENDBRANCH  27  28
ENDBRANCH   1  27
TORSDOF 4
ENDMDL
MODEL 6
REMARK VINA RESULT:      -6.8     12.652     15.109
REMARK  4 active torsions:
REMARK  status: ('A' for Active; 'I' for Inactive)
REMARK    1  A    between atoms: C_2  and  C_3 
REMARK    2  A    between atoms: C_3  and  C_4 
REMARK    3  A    between atoms: C_4  and  C_5 
REMARK    4  A    between atoms: C_25  and  N_26 
ROOT
HETATM    1  C   UNL     1      18.824  49.982  49.921  1.00  0.00     0.067 A 
HETATM    2  N   UNL     1      18.664  49.493  51.163  1.00  0.00    -0.177 NA
HETATM    3  N   UNL     1      18.202  48.242  50.976  1.00  0.00    -0.256 N 
HETATM    4  H   UNL     1      18.026  47.658  51.785  1.00  0.00     0.191 HD
HETATM    5  C   UNL     1      18.059  47.929  49.664  1.00  0.00     0.176 A 
HETATM    6  C   UNL     1      18.415  49.040  48.942  1.00  0.00     0.049 A 
HETATM    7  C   UNL     1      18.361  48.987  47.453  1.00  0.00     0.144 A 
HETATM    8  C   UNL     1      19.709  49.420  46.820  1.00  0.00     0.246 A 
HETATM    9  O   UNL     1      20.791  48.860  46.906  1.00  0.00    -0.271 OA
HETATM   10  N   UNL     1      19.470  50.585  46.100  1.00  0.00    -0.325 N 
HETATM   11  C   UNL     1      18.142  50.977  46.191  1.00  0.00     0.043 A 
HETATM   12  C   UNL     1      17.413  50.078  46.986  1.00  0.00     0.003 A 
HETATM   13  C   UNL     1      17.581  52.089  45.600  1.00  0.00     0.030 A 
HETATM   14  C   UNL     1      16.224  52.310  45.816  1.00  0.00     0.003 A 
HETATM   15  C   UNL     1      15.468  51.421  46.601  1.00  0.00     0.007 A 
HETATM   16  C   UNL     1      16.047  50.284  47.193  1.00  0.00    -0.051 A 
HETATM   17  C   UNL     1      15.199  49.376  48.032  1.00  0.00     0.049 C 
HETATM   18  C   UNL     1      18.002  47.586  46.970  1.00  0.00     0.081 A 
HETATM   19  C   UNL     1      18.088  47.332  45.474  1.00  0.00     0.021 C 
HETATM   20  N   UNL     1      18.159  47.121  44.232  1.00  0.00    -0.096 N 
HETATM   21  C   UNL     1      17.691  46.567  47.814  1.00  0.00     0.140 A 
HETATM   22  O   UNL     1      17.668  46.743  49.210  1.00  0.00    -0.279 OA
HETATM   23  H   UNL     1      20.190  51.065  45.578  1.00  0.00     0.169 HD
ENDROOT
BRANCH  21  24
HETATM   24  N   UNL     1      17.380  45.281  47.434  1.00  0.00    -0.282 NA
HETATM   25  H   UNL     1      16.797  44.761  48.086  1.00  0.00     0.126 HD
HETATM   26  H   UNL     1      17.027  45.243  46.481  1.00  0.00     0.126 HD
ENDBRANCH  21  24
BRANCH   1  27
HETATM   27  C   UNL     1      19.405  51.347  49.742  1.00  0.00     0.062 C 
BRANCH  27  28
HETATM   28  C   UNL     1      18.369  52.383  49.305  1.00  0.00     0.006 C 
BRANCH  28  29
HETATM   29  C   UNL     1      17.042  52.174  50.035  1.00  0.00    -0.004 C 
HETATM   30  C   UNL     1      16.083  53.327  49.791  1.00  0.00     0.005 C 
ENDBRANCH  28  29
ENDBRANCH  27  28
ENDBRANCH   1  27
TORSDOF 4
ENDMDL
MODEL 7
REMARK VINA RESULT:      -6.2     12.349     14.786
REMARK  4 active torsions:
REMARK  status: ('A' for Active; 'I' for Inactive)
REMARK    1  A    between atoms: C_2  and  C_3 
REMARK    2  A    between atoms: C_3  and  C_4 
REMARK    3  A    between atoms: C_4  and  C_5 
REMARK    4  A    between atoms: C_25  and  N_26 
ROOT
HETATM    1  C   UNL     1      20.265  48.997  47.746  1.00  0.00     0.067 A 
HETATM    2  N   UNL     1      21.061  48.351  48.616  1.00  0.00    -0.177 NA
HETATM    3  N   UNL     1      20.535  47.115  48.700  1.00  0.00    -0.256 N 
HETATM    4  H   UNL     1      20.989  46.427  49.291  1.00  0.00     0.191 HD
HETATM    5  C   UNL     1      19.436  46.960  47.922  1.00  0.00     0.176 A 
HETATM    6  C   UNL     1      19.199  48.167  47.312  1.00  0.00     0.049 A 
HETATM    7  C   UNL     1      18.042  48.295  46.382  1.00  0.00     0.144 A 
HETATM    8  C   UNL     1      18.480  48.862  45.005  1.00  0.00     0.246 A 
HETATM    9  O   UNL     1      19.219  48.342  44.183  1.00  0.00    -0.271 OA
HETATM   10  N   UNL     1      17.858  50.095  44.851  1.00  0.00    -0.325 N 
HETATM   11  C   UNL     1      17.080  50.415  45.954  1.00  0.00     0.043 A 
HETATM   12  C   UNL     1      17.139  49.395  46.916  1.00  0.00     0.003 A 
HETATM   13  C   UNL     1      16.340  51.567  46.120  1.00  0.00     0.030 A 
HETATM   14  C   UNL     1      15.625  51.700  47.306  1.00  0.00     0.003 A 
HETATM   15  C   UNL     1      15.660  50.689  48.283  1.00  0.00     0.007 A 
HETATM   16  C   UNL     1      16.411  49.514  48.102  1.00  0.00    -0.051 A 
HETATM   17  C   UNL     1      16.425  48.473  49.182  1.00  0.00     0.049 C 
HETATM   18  C   UNL     1      17.352  46.951  46.179  1.00  0.00     0.081 A 
HETATM   19  C   UNL     1      16.268  46.888  45.116  1.00  0.00     0.021 C 
HETATM   20  N   UNL     1      15.368  46.836  44.233  1.00  0.00    -0.096 N 
HETATM   21  C   UNL     1      17.715  45.823  46.844  1.00  0.00     0.140 A 
HETATM   22  O   UNL     1      18.761  45.823  47.787  1.00  0.00    -0.279 OA
HETATM   23  H   UNL     1      17.970  50.667  44.025  1.00  0.00     0.169 HD
ENDROOT
BRANCH  21  24
HETATM   24  N   UNL     1      17.142  44.581  46.686  1.00  0.00    -0.282 NA
HETATM   25  H   UNL     1      16.169  44.508  46.974  1.00  0.00     0.126 HD
HETATM   26  H   UNL     1      17.301  44.208  45.753  1.00  0.00     0.126 HD
ENDBRANCH  21  24
BRANCH   1  27
HETATM   27  C   UNL     1      20.601  50.397  47.348  1.00  0.00     0.062 C 
BRANCH  27  28
HETATM   28  C   UNL     1      20.550  51.378  48.520  1.00  0.00     0.006 C 
BRANCH  28  29
HETATM   29  C   UNL     1      19.264  52.204  48.489  1.00  0.00    -0.004 C 
HETATM   30  C   UNL     1      18.518  52.126  49.810  1.00  0.00     0.005 C 
ENDBRANCH  28  29
ENDBRANCH  27  28
ENDBRANCH   1  27
TORSDOF 4
ENDMDL
MODEL 8
REMARK VINA RESULT:      -6.2      3.229      5.872
REMARK  4 active torsions:
REMARK  status: ('A' for Active; 'I' for Inactive)
REMARK    1  A    between atoms: C_2  and  C_3 
REMARK    2  A    between atoms: C_3  and  C_4 
REMARK    3  A    between atoms: C_4  and  C_5 
REMARK    4  A    between atoms: C_25  and  N_26 
ROOT
HETATM    1  C   UNL     1      27.788  49.950  41.295  1.00  0.00     0.067 A 
HETATM    2  N   UNL     1      28.606  49.648  42.317  1.00  0.00    -0.177 NA
HETATM    3  N   UNL     1      29.042  48.403  42.043  1.00  0.00    -0.256 N 
HETATM    4  H   UNL     1      29.703  47.964  42.675  1.00  0.00     0.191 HD
HETATM    5  C   UNL     1      28.525  47.910  40.891  1.00  0.00     0.176 A 
HETATM    6  C   UNL     1      27.675  48.864  40.389  1.00  0.00     0.049 A 
HETATM    7  C   UNL     1      26.958  48.596  39.110  1.00  0.00     0.144 A 
HETATM    8  C   UNL     1      27.178  49.741  38.085  1.00  0.00     0.246 A 
HETATM    9  O   UNL     1      28.224  50.076  37.551  1.00  0.00    -0.271 OA
HETATM   10  N   UNL     1      25.941  50.332  37.855  1.00  0.00    -0.325 N 
HETATM   11  C   UNL     1      24.942  49.730  38.608  1.00  0.00     0.043 A 
HETATM   12  C   UNL     1      25.467  48.688  39.388  1.00  0.00     0.003 A 
HETATM   13  C   UNL     1      23.609  50.083  38.617  1.00  0.00     0.030 A 
HETATM   14  C   UNL     1      22.762  49.354  39.446  1.00  0.00     0.003 A 
HETATM   15  C   UNL     1      23.260  48.299  40.232  1.00  0.00     0.007 A 
HETATM   16  C   UNL     1      24.620  47.941  40.210  1.00  0.00    -0.051 A 
HETATM   17  C   UNL     1      25.102  46.817  41.078  1.00  0.00     0.049 C 
HETATM   18  C   UNL     1      27.408  47.276  38.497  1.00  0.00     0.081 A 
HETATM   19  C   UNL     1      26.900  46.956  37.101  1.00  0.00     0.021 C 
HETATM   20  N   UNL     1      26.478  46.691  35.942  1.00  0.00    -0.096 N 
HETATM   21  C   UNL     1      28.284  46.435  39.109  1.00  0.00     0.140 A 
HETATM   22  O   UNL     1      28.832  46.727  40.371  1.00  0.00    -0.279 OA
HETATM   23  H   UNL     1      25.811  51.099  37.211  1.00  0.00     0.169 HD
ENDROOT
BRANCH  21  24
HETATM   24  N   UNL     1      28.740  45.242  38.594  1.00  0.00    -0.282 NA
HETATM   25  H   UNL     1      29.141  44.598  39.270  1.00  0.00     0.126 HD
HETATM   26  H   UNL     1      28.044  44.797  37.999  1.00  0.00     0.126 HD
ENDBRANCH  21  24
BRANCH   1  27
HETATM   27  C   UNL     1      27.173  51.311  41.229  1.00  0.00     0.062 C 
BRANCH  27  28
HETATM   28  C   UNL     1      28.210  52.434  41.239  1.00  0.00     0.006 C 
BRANCH  28  29
HETATM   29  C   UNL     1      28.732  52.712  39.829  1.00  0.00    -0.004 C 
HETATM   30  C   UNL     1      30.179  52.274  39.673  1.00  0.00     0.005 C 
ENDBRANCH  28  29
ENDBRANCH  27  28
ENDBRANCH   1  27
TORSDOF 4
ENDMDL
MODEL 9
REMARK VINA RESULT:      -6.0      4.312      6.556
REMARK  4 active torsions:
REMARK  status: ('A' for Active; 'I' for Inactive)
REMARK    1  A    between atoms: C_2  and  C_3 
REMARK    2  A    between atoms: C_3  and  C_4 
REMARK    3  A    between atoms: C_4  and  C_5 
REMARK    4  A    between atoms: C_25  and  N_26 
ROOT
HETATM    1  C   UNL     1      26.354  48.772  37.505  1.00  0.00     0.067 A 
HETATM    2  N   UNL     1      26.098  48.614  36.195  1.00  0.00    -0.177 NA
HETATM    3  N   UNL     1      25.926  47.287  36.043  1.00  0.00    -0.256 N 
HETATM    4  H   UNL     1      25.695  46.924  35.125  1.00  0.00     0.191 HD
HETATM    5  C   UNL     1      26.071  46.604  37.206  1.00  0.00     0.176 A 
HETATM    6  C   UNL     1      26.387  47.522  38.177  1.00  0.00     0.049 A 
HETATM    7  C   UNL     1      26.602  47.055  39.576  1.00  0.00     0.144 A 
HETATM    8  C   UNL     1      25.720  47.843  40.580  1.00  0.00     0.246 A 
HETATM    9  O   UNL     1      24.501  47.852  40.658  1.00  0.00    -0.271 OA
HETATM   10  N   UNL     1      26.578  48.549  41.415  1.00  0.00    -0.325 N 
HETATM   11  C   UNL     1      27.907  48.335  41.078  1.00  0.00     0.043 A 
HETATM   12  C   UNL     1      28.008  47.459  39.986  1.00  0.00     0.003 A 
HETATM   13  C   UNL     1      29.003  48.892  41.703  1.00  0.00     0.030 A 
HETATM   14  C   UNL     1      30.259  48.552  41.211  1.00  0.00     0.003 A 
HETATM   15  C   UNL     1      30.389  47.669  40.124  1.00  0.00     0.007 A 
HETATM   16  C   UNL     1      29.267  47.099  39.498  1.00  0.00    -0.051 A 
HETATM   17  C   UNL     1      29.460  46.174  38.333  1.00  0.00     0.049 C 
HETATM   18  C   UNL     1      26.308  45.565  39.705  1.00  0.00     0.081 A 
HETATM   19  C   UNL     1      26.307  44.983  41.109  1.00  0.00     0.021 C 
HETATM   20  N   UNL     1      26.305  44.501  42.275  1.00  0.00    -0.096 N 
HETATM   21  C   UNL     1      25.981  44.778  38.645  1.00  0.00     0.140 A 
HETATM   22  O   UNL     1      25.903  45.293  37.337  1.00  0.00    -0.279 OA
HETATM   23  H   UNL     1      26.250  49.135  42.170  1.00  0.00     0.169 HD
ENDROOT
BRANCH  21  24
HETATM   24  N   UNL     1      25.686  43.435  38.707  1.00  0.00    -0.282 NA
HETATM   25  H   UNL     1      26.461  42.828  38.966  1.00  0.00     0.126 HD
HETATM   26  H   UNL     1      24.851  43.256  39.259  1.00  0.00     0.126 HD
ENDBRANCH  21  24
BRANCH   1  27
HETATM   27  C   UNL     1      26.525  50.151  38.055  1.00  0.00     0.062 C 
BRANCH  27  28
HETATM   28  C   UNL     1      27.992  50.546  38.228  1.00  0.00     0.006 C 
BRANCH  28  29
HETATM   29  C   UNL     1      28.135  51.712  39.206  1.00  0.00    -0.004 C 
HETATM   30  C   UNL     1      28.796  52.913  38.551  1.00  0.00     0.005 C 
ENDBRANCH  28  29
ENDBRANCH  27  28
ENDBRANCH   1  27
TORSDOF 4
ENDMDL
MODEL 10
REMARK VINA RESULT:      -5.8     12.072     14.518
REMARK  4 active torsions:
REMARK  status: ('A' for Active; 'I' for Inactive)
REMARK    1  A    between atoms: C_2  and  C_3 
REMARK    2  A    between atoms: C_3  and  C_4 
REMARK    3  A    between atoms: C_4  and  C_5 
REMARK    4  A    between atoms: C_25  and  N_26 
ROOT
HETATM    1  C   UNL     1      18.586  46.487  45.040  1.00  0.00     0.067 A 
HETATM    2  N   UNL     1      19.613  46.138  44.246  1.00  0.00    -0.177 NA
HETATM    3  N   UNL     1      20.711  46.402  44.980  1.00  0.00    -0.256 N 
HETATM    4  H   UNL     1      21.623  46.193  44.591  1.00  0.00     0.191 HD
HETATM    5  C   UNL     1      20.413  46.909  46.202  1.00  0.00     0.176 A 
HETATM    6  C   UNL     1      19.046  47.019  46.272  1.00  0.00     0.049 A 
HETATM    7  C   UNL     1      18.424  47.550  47.518  1.00  0.00     0.144 A 
HETATM    8  C   UNL     1      17.336  46.586  48.064  1.00  0.00     0.246 A 
HETATM    9  O   UNL     1      17.488  45.454  48.497  1.00  0.00    -0.271 OA
HETATM   10  N   UNL     1      16.120  47.256  47.992  1.00  0.00    -0.325 N 
HETATM   11  C   UNL     1      16.270  48.527  47.457  1.00  0.00     0.043 A 
HETATM   12  C   UNL     1      17.614  48.779  47.142  1.00  0.00     0.003 A 
HETATM   13  C   UNL     1      15.260  49.443  47.244  1.00  0.00     0.030 A 
HETATM   14  C   UNL     1      15.618  50.669  46.692  1.00  0.00     0.003 A 
HETATM   15  C   UNL     1      16.959  50.951  46.376  1.00  0.00     0.007 A 
HETATM   16  C   UNL     1      17.983  50.014  46.603  1.00  0.00    -0.051 A 
HETATM   17  C   UNL     1      19.395  50.359  46.235  1.00  0.00     0.049 C 
HETATM   18  C   UNL     1      19.475  47.788  48.595  1.00  0.00     0.081 A 
HETATM   19  C   UNL     1      18.970  48.155  49.981  1.00  0.00     0.021 C 
HETATM   20  N   UNL     1      18.550  48.460  51.131  1.00  0.00    -0.096 N 
HETATM   21  C   UNL     1      20.807  47.614  48.384  1.00  0.00     0.140 A 
HETATM   22  O   UNL     1      21.311  47.207  47.135  1.00  0.00    -0.279 OA
HETATM   23  H   UNL     1      15.250  46.847  48.303  1.00  0.00     0.169 HD
ENDROOT
BRANCH  21  24
HETATM   24  N   UNL     1      21.797  47.795  49.324  1.00  0.00    -0.282 NA
HETATM   25  H   UNL     1      22.029  48.762  49.535  1.00  0.00     0.126 HD
HETATM   26  H   UNL     1      21.627  47.244  50.162  1.00  0.00     0.126 HD
ENDBRANCH  21  24
BRANCH   1  27
HETATM   27  C   UNL     1      17.187  46.254  44.570  1.00  0.00     0.062 C 
BRANCH  27  28
HETATM   28  C   UNL     1      16.586  47.469  43.862  1.00  0.00     0.006 C 
BRANCH  28  29
HETATM   29  C   UNL     1      15.072  47.531  44.067  1.00  0.00    -0.004 C 
HETATM   30  C   UNL     1      14.497  48.853  43.589  1.00  0.00     0.005 C 
ENDBRANCH  28  29
ENDBRANCH  27  28
ENDBRANCH   1  27
TORSDOF 4
ENDMDL
