MODEL 1
REMARK VINA RESULT:      -8.0      0.000      0.000
REMARK  5 active torsions:
REMARK  status: ('A' for Active; 'I' for Inactive)
REMARK    1  A    between atoms: C_2  and  C_3 
REMARK    2  A    between atoms: C_3  and  N_4 
REMARK    3  A    between atoms: C_3  and  C_19 
REMARK       I    between atoms: N_4  and  C_5 
REMARK    4  A    between atoms: C_5  and  C_6 
REMARK    5  A    between atoms: C_7  and  C_8 
ROOT
HETATM    1  N   UNL     1      22.494  47.868  49.452  1.00  0.00    -0.345 N 
HETATM    2  C   UNL     1      21.623  48.036  48.409  1.00  0.00     0.255 C 
HETATM    3  O   UNL     1      21.985  48.252  47.259  1.00  0.00    -0.268 OA
HETATM    4  H   UNL     1      22.143  47.717  50.393  1.00  0.00     0.163 HD
ENDROOT
BRANCH   2   5
HETATM    5  C   UNL     1      20.234  47.880  48.794  1.00  0.00     0.075 A 
HETATM    6  C   UNL     1      19.339  48.737  49.513  1.00  0.00     0.076 A 
HETATM    7  N   UNL     1      18.136  48.148  49.648  1.00  0.00    -0.178 NA
HETATM    8  N   UNL     1      18.242  46.984  49.005  1.00  0.00    -0.288 N 
HETATM    9  H   UNL     1      17.426  46.382  48.964  1.00  0.00     0.188 HD
HETATM   10  C   UNL     1      19.479  46.758  48.499  1.00  0.00     0.128 A 
BRANCH   6  11
HETATM   11  C   UNL     1      19.577  50.061  50.226  1.00  0.00     0.040 C 
HETATM   12  C   UNL     1      20.788  50.877  49.749  1.00  0.00     0.011 C 
HETATM   13  C   UNL     1      20.583  51.468  48.356  1.00  0.00     0.001 C 
HETATM   14  C   UNL     1      19.337  52.350  48.309  1.00  0.00     0.000 C 
HETATM   15  C   UNL     1      18.102  51.619  48.827  1.00  0.00     0.001 C 
HETATM   16  C   UNL     1      18.344  50.999  50.205  1.00  0.00     0.011 C 
ENDBRANCH   6  11
ENDBRANCH   2   5
BRANCH   1  17
HETATM   17  C   UNL     1      23.931  47.929  49.300  1.00  0.00     0.154 C 
BRANCH  17  18
HETATM   18  C   UNL     1      24.462  49.368  49.202  1.00  0.00     0.028 C 
HETATM   19  C   UNL     1      25.639  49.552  48.249  1.00  0.00     0.007 C 
ENDBRANCH  17  18
BRANCH  17  20
HETATM   20  C   UNL     1      24.525  47.184  50.461  1.00  0.00     0.127 A 
HETATM   21  N   UNL     1      25.301  47.683  51.406  1.00  0.00    -0.237 NA
HETATM   22  C   UNL     1      25.600  46.636  52.243  1.00  0.00     0.048 A 
HETATM   23  C   UNL     1      26.478  46.827  53.417  1.00  0.00     0.072 C 
HETATM   24  C   UNL     1      24.979  45.487  51.807  1.00  0.00     0.116 A 
HETATM   25  N   UNL     1      24.295  45.848  50.680  1.00  0.00    -0.351 N 
HETATM   26  H   UNL     1      23.723  45.243  50.105  1.00  0.00     0.166 HD
ENDBRANCH  17  20
ENDBRANCH   1  17
TORSDOF 5
ENDMDL
MODEL 2
REMARK VINA RESULT:      -8.0      4.032      8.938
REMARK  5 active torsions:
REMARK  status: ('A' for Active; 'I' for Inactive)
REMARK    1  A    between atoms: C_2  and  C_3 
REMARK    2  A    between atoms: C_3  and  N_4 
REMARK    3  A    between atoms: C_3  and  C_19 
REMARK       I    between atoms: N_4  and  C_5 
REMARK    4  A    between atoms: C_5  and  C_6 
REMARK    5  A    between atoms: C_7  and  C_8 
ROOT
HETATM    1  N   UNL     1      25.961  45.396  51.459  1.00  0.00    -0.345 N 
HETATM    2  C   UNL     1      25.497  44.116  51.602  1.00  0.00     0.255 C 
HETATM    3  O   UNL     1      24.428  43.845  52.136  1.00  0.00    -0.268 OA
HETATM    4  H   UNL     1      26.866  45.568  51.032  1.00  0.00     0.163 HD
ENDROOT
BRANCH   2   5
HETATM    5  C   UNL     1      26.371  43.122  51.012  1.00  0.00     0.075 A 
HETATM    6  C   UNL     1      27.200  42.111  51.596  1.00  0.00     0.076 A 
HETATM    7  N   UNL     1      27.855  41.431  50.636  1.00  0.00    -0.178 NA
HETATM    8  N   UNL     1      27.429  41.954  49.485  1.00  0.00    -0.288 N 
HETATM    9  H   UNL     1      27.787  41.564  48.619  1.00  0.00     0.188 HD
HETATM   10  C   UNL     1      26.564  42.985  49.648  1.00  0.00     0.128 A 
BRANCH   6  11
HETATM   11  C   UNL     1      27.540  41.810  53.050  1.00  0.00     0.040 C 
HETATM   12  C   UNL     1      28.930  41.210  53.308  1.00  0.00     0.011 C 
HETATM   13  C   UNL     1      30.054  42.216  53.076  1.00  0.00     0.001 C 
HETATM   14  C   UNL     1      29.875  43.454  53.951  1.00  0.00     0.000 C 
HETATM   15  C   UNL     1      28.489  44.071  53.789  1.00  0.00     0.001 C 
HETATM   16  C   UNL     1      27.380  43.036  53.984  1.00  0.00     0.011 C 
ENDBRANCH   6  11
ENDBRANCH   2   5
BRANCH   1  17
HETATM   17  C   UNL     1      25.235  46.558  51.925  1.00  0.00     0.154 C 
BRANCH  17  18
HETATM   18  C   UNL     1      25.943  47.283  53.080  1.00  0.00     0.028 C 
HETATM   19  C   UNL     1      25.961  46.518  54.400  1.00  0.00     0.007 C 
ENDBRANCH  17  18
BRANCH  17  20
HETATM   20  C   UNL     1      25.032  47.451  50.734  1.00  0.00     0.127 A 
HETATM   21  N   UNL     1      25.955  48.169  50.119  1.00  0.00    -0.237 NA
HETATM   22  C   UNL     1      25.308  48.823  49.100  1.00  0.00     0.048 A 
HETATM   23  C   UNL     1      26.039  49.744  48.203  1.00  0.00     0.072 C 
HETATM   24  C   UNL     1      23.974  48.482  49.086  1.00  0.00     0.116 A 
HETATM   25  N   UNL     1      23.812  47.606  50.124  1.00  0.00    -0.351 N 
HETATM   26  H   UNL     1      22.950  47.155  50.399  1.00  0.00     0.166 HD
ENDBRANCH  17  20
ENDBRANCH   1  17
TORSDOF 5
ENDMDL
MODEL 3
REMARK VINA RESULT:      -7.5      5.169      9.310
REMARK  5 active torsions:
REMARK  status: ('A' for Active; 'I' for Inactive)
REMARK    1  A    between atoms: C_2  and  C_3 
REMARK    2  A    between atoms: C_3  and  N_4 
REMARK    3  A    between atoms: C_3  and  C_19 
REMARK       I    between atoms: N_4  and  C_5 
REMARK    4  A    between atoms: C_5  and  C_6 
REMARK    5  A    between atoms: C_7  and  C_8 
ROOT
HETATM    1  N   UNL     1      25.720  45.409  51.910  1.00  0.00    -0.345 N 
HETATM    2  C   UNL     1      25.646  45.165  53.256  1.00  0.00     0.255 C 
HETATM    3  O   UNL     1      24.754  44.503  53.771  1.00  0.00    -0.268 OA
HETATM    4  H   UNL     1      26.466  45.987  51.534  1.00  0.00     0.163 HD
ENDROOT
BRANCH   2   5
HETATM    5  C   UNL     1      26.759  45.724  53.999  1.00  0.00     0.075 A 
HETATM    6  C   UNL     1      27.859  45.109  54.678  1.00  0.00     0.076 A 
HETATM    7  N   UNL     1      28.638  46.047  55.251  1.00  0.00    -0.178 NA
HETATM    8  N   UNL     1      28.083  47.214  54.916  1.00  0.00    -0.288 N 
HETATM    9  H   UNL     1      28.533  48.067  55.231  1.00  0.00     0.188 HD
HETATM   10  C   UNL     1      26.945  47.082  54.193  1.00  0.00     0.128 A 
BRANCH   6  11
HETATM   11  C   UNL     1      28.176  43.645  54.953  1.00  0.00     0.040 C 
HETATM   12  C   UNL     1      27.707  42.643  53.888  1.00  0.00     0.011 C 
HETATM   13  C   UNL     1      28.507  42.749  52.592  1.00  0.00     0.001 C 
HETATM   14  C   UNL     1      29.999  42.546  52.847  1.00  0.00     0.000 C 
HETATM   15  C   UNL     1      30.522  43.473  53.940  1.00  0.00     0.001 C 
HETATM   16  C   UNL     1      29.680  43.381  55.214  1.00  0.00     0.011 C 
ENDBRANCH   6  11
ENDBRANCH   2   5
BRANCH   1  17
HETATM   17  C   UNL     1      24.749  44.908  50.962  1.00  0.00     0.154 C 
BRANCH  17  18
HETATM   18  C   UNL     1      24.368  45.945  49.891  1.00  0.00     0.028 C 
HETATM   19  C   UNL     1      24.630  47.395  50.285  1.00  0.00     0.007 C 
ENDBRANCH  17  18
BRANCH  17  20
HETATM   20  C   UNL     1      25.331  43.660  50.361  1.00  0.00     0.127 A 
HETATM   21  N   UNL     1      25.280  42.442  50.869  1.00  0.00    -0.237 NA
HETATM   22  C   UNL     1      25.945  41.634  49.979  1.00  0.00     0.048 A 
HETATM   23  C   UNL     1      26.104  40.187  50.239  1.00  0.00     0.072 C 
HETATM   24  C   UNL     1      26.390  42.373  48.906  1.00  0.00     0.116 A 
HETATM   25  N   UNL     1      25.989  43.656  49.156  1.00  0.00    -0.351 N 
HETATM   26  H   UNL     1      26.150  44.461  48.565  1.00  0.00     0.166 HD
ENDBRANCH  17  20
ENDBRANCH   1  17
TORSDOF 5
ENDMDL
MODEL 4
REMARK VINA RESULT:      -7.3     12.319     14.202
REMARK  5 active torsions:
REMARK  status: ('A' for Active; 'I' for Inactive)
REMARK    1  A    between atoms: C_2  and  C_3 
REMARK    2  A    between atoms: C_3  and  N_4 
REMARK    3  A    between atoms: C_3  and  C_19 
REMARK       I    between atoms: N_4  and  C_5 
REMARK    4  A    between atoms: C_5  and  C_6 
REMARK    5  A    between atoms: C_7  and  C_8 
ROOT
HETATM    1  N   UNL     1      32.336  51.361  41.139  1.00  0.00    -0.345 N 
HETATM    2  C   UNL     1      31.659  52.364  40.497  1.00  0.00     0.255 C 
HETATM    3  O   UNL     1      31.465  53.467  40.991  1.00  0.00    -0.268 OA
HETATM    4  H   UNL     1      32.448  50.454  40.697  1.00  0.00     0.163 HD
ENDROOT
BRANCH   2   5
HETATM    5  C   UNL     1      31.245  52.004  39.155  1.00  0.00     0.075 A 
HETATM    6  C   UNL     1      29.952  51.919  38.545  1.00  0.00     0.076 A 
HETATM    7  N   UNL     1      30.065  51.517  37.265  1.00  0.00    -0.178 NA
HETATM    8  N   UNL     1      31.376  51.394  37.052  1.00  0.00    -0.288 N 
HETATM    9  H   UNL     1      31.688  51.118  36.126  1.00  0.00     0.188 HD
HETATM   10  C   UNL     1      32.128  51.645  38.151  1.00  0.00     0.128 A 
BRANCH   6  11
HETATM   11  C   UNL     1      28.555  52.064  39.134  1.00  0.00     0.040 C 
HETATM   12  C   UNL     1      27.437  51.295  38.413  1.00  0.00     0.011 C 
HETATM   13  C   UNL     1      27.547  49.785  38.607  1.00  0.00     0.001 C 
HETATM   14  C   UNL     1      27.532  49.416  40.089  1.00  0.00     0.000 C 
HETATM   15  C   UNL     1      28.583  50.190  40.879  1.00  0.00     0.001 C 
HETATM   16  C   UNL     1      28.481  51.697  40.637  1.00  0.00     0.011 C 
ENDBRANCH   6  11
ENDBRANCH   2   5
BRANCH   1  17
HETATM   17  C   UNL     1      32.889  51.506  42.468  1.00  0.00     0.154 C 
BRANCH  17  18
HETATM   18  C   UNL     1      32.306  50.497  43.472  1.00  0.00     0.028 C 
HETATM   19  C   UNL     1      31.507  49.360  42.844  1.00  0.00     0.007 C 
ENDBRANCH  17  18
BRANCH  17  20
HETATM   20  C   UNL     1      34.380  51.377  42.336  1.00  0.00     0.127 A 
HETATM   21  N   UNL     1      35.238  52.353  42.098  1.00  0.00    -0.237 NA
HETATM   22  C   UNL     1      36.478  51.763  42.057  1.00  0.00     0.048 A 
HETATM   23  C   UNL     1      37.692  52.564  41.788  1.00  0.00     0.072 C 
HETATM   24  C   UNL     1      36.370  50.411  42.293  1.00  0.00     0.116 A 
HETATM   25  N   UNL     1      35.035  50.179  42.475  1.00  0.00    -0.351 N 
HETATM   26  H   UNL     1      34.602  49.286  42.672  1.00  0.00     0.166 HD
ENDBRANCH  17  20
ENDBRANCH   1  17
TORSDOF 5
ENDMDL
MODEL 5
REMARK VINA RESULT:      -7.2     10.856     13.166
REMARK  5 active torsions:
REMARK  status: ('A' for Active; 'I' for Inactive)
REMARK    1  A    between atoms: C_2  and  C_3 
REMARK    2  A    between atoms: C_3  and  N_4 
REMARK    3  A    between atoms: C_3  and  C_19 
REMARK       I    between atoms: N_4  and  C_5 
REMARK    4  A    between atoms: C_5  and  C_6 
REMARK    5  A    between atoms: C_7  and  C_8 
ROOT
HETATM    1  N   UNL     1      28.318  50.846  40.024  1.00  0.00    -0.345 N 
HETATM    2  C   UNL     1      28.405  51.937  40.848  1.00  0.00     0.255 C 
HETATM    3  O   UNL     1      27.446  52.402  41.451  1.00  0.00    -0.268 OA
HETATM    4  H   UNL     1      29.137  50.515  39.525  1.00  0.00     0.163 HD
ENDROOT
BRANCH   2   5
HETATM    5  C   UNL     1      29.754  52.451  40.974  1.00  0.00     0.075 A 
HETATM    6  C   UNL     1      30.905  51.955  41.667  1.00  0.00     0.076 A 
HETATM    7  N   UNL     1      31.944  52.797  41.511  1.00  0.00    -0.178 NA
HETATM    8  N   UNL     1      31.490  53.768  40.716  1.00  0.00    -0.288 N 
HETATM    9  H   UNL     1      32.131  54.508  40.448  1.00  0.00     0.188 HD
HETATM   10  C   UNL     1      30.183  53.629  40.386  1.00  0.00     0.128 A 
BRANCH   6  11
HETATM   11  C   UNL     1      31.073  50.772  42.611  1.00  0.00     0.040 C 
HETATM   12  C   UNL     1      30.480  49.438  42.133  1.00  0.00     0.011 C 
HETATM   13  C   UNL     1      31.260  48.836  40.967  1.00  0.00     0.001 C 
HETATM   14  C   UNL     1      32.728  48.628  41.334  1.00  0.00     0.000 C 
HETATM   15  C   UNL     1      33.367  49.904  41.874  1.00  0.00     0.001 C 
HETATM   16  C   UNL     1      32.547  50.512  43.013  1.00  0.00     0.011 C 
ENDBRANCH   6  11
ENDBRANCH   2   5
BRANCH   1  17
HETATM   17  C   UNL     1      27.081  50.134  39.784  1.00  0.00     0.154 C 
BRANCH  17  18
HETATM   18  C   UNL     1      26.531  50.350  38.365  1.00  0.00     0.028 C 
HETATM   19  C   UNL     1      25.250  49.583  38.052  1.00  0.00     0.007 C 
ENDBRANCH  17  18
BRANCH  17  20
HETATM   20  C   UNL     1      27.351  48.684  40.073  1.00  0.00     0.127 A 
HETATM   21  N   UNL     1      28.178  47.890  39.417  1.00  0.00    -0.237 NA
HETATM   22  C   UNL     1      28.090  46.664  40.031  1.00  0.00     0.048 A 
HETATM   23  C   UNL     1      28.877  45.511  39.541  1.00  0.00     0.072 C 
HETATM   24  C   UNL     1      27.208  46.723  41.086  1.00  0.00     0.116 A 
HETATM   25  N   UNL     1      26.750  48.011  41.107  1.00  0.00    -0.351 N 
HETATM   26  H   UNL     1      26.086  48.401  41.761  1.00  0.00     0.166 HD
ENDBRANCH  17  20
ENDBRANCH   1  17
TORSDOF 5
ENDMDL
MODEL 6
REMARK VINA RESULT:      -7.2      5.141      9.292
REMARK  5 active torsions:
REMARK  status: ('A' for Active; 'I' for Inactive)
REMARK    1  A    between atoms: C_2  and  C_3 
REMARK    2  A    between atoms: C_3  and  N_4 
REMARK    3  A    between atoms: C_3  and  C_19 
REMARK       I    between atoms: N_4  and  C_5 
REMARK    4  A    between atoms: C_5  and  C_6 
REMARK    5  A    between atoms: C_7  and  C_8 
ROOT
HETATM    1  N   UNL     1      25.852  42.723  50.219  1.00  0.00    -0.345 N 
HETATM    2  C   UNL     1      27.000  42.188  49.699  1.00  0.00     0.255 C 
HETATM    3  O   UNL     1      27.326  42.307  48.524  1.00  0.00    -0.268 OA
HETATM    4  H   UNL     1      25.613  42.574  51.194  1.00  0.00     0.163 HD
ENDROOT
BRANCH   2   5
HETATM    5  C   UNL     1      27.816  41.514  50.690  1.00  0.00     0.075 A 
HETATM    6  C   UNL     1      28.589  42.010  51.789  1.00  0.00     0.076 A 
HETATM    7  N   UNL     1      29.202  40.994  52.426  1.00  0.00    -0.178 NA
HETATM    8  N   UNL     1      28.802  39.892  51.790  1.00  0.00    -0.288 N 
HETATM    9  H   UNL     1      29.134  38.995  52.129  1.00  0.00     0.188 HD
HETATM   10  C   UNL     1      27.996  40.142  50.729  1.00  0.00     0.128 A 
BRANCH   6  11
HETATM   11  C   UNL     1      28.916  43.433  52.222  1.00  0.00     0.040 C 
HETATM   12  C   UNL     1      27.732  44.409  52.282  1.00  0.00     0.011 C 
HETATM   13  C   UNL     1      26.774  44.098  53.429  1.00  0.00     0.001 C 
HETATM   14  C   UNL     1      27.500  44.111  54.773  1.00  0.00     0.000 C 
HETATM   15  C   UNL     1      28.727  43.205  54.767  1.00  0.00     0.001 C 
HETATM   16  C   UNL     1      29.651  43.506  53.584  1.00  0.00     0.011 C 
ENDBRANCH   6  11
ENDBRANCH   2   5
BRANCH   1  17
HETATM   17  C   UNL     1      24.906  43.482  49.430  1.00  0.00     0.154 C 
BRANCH  17  18
HETATM   18  C   UNL     1      23.453  43.022  49.629  1.00  0.00     0.028 C 
HETATM   19  C   UNL     1      23.025  41.855  48.745  1.00  0.00     0.007 C 
ENDBRANCH  17  18
BRANCH  17  20
HETATM   20  C   UNL     1      25.098  44.927  49.793  1.00  0.00     0.127 A 
HETATM   21  N   UNL     1      26.056  45.729  49.363  1.00  0.00    -0.237 NA
HETATM   22  C   UNL     1      25.829  46.944  49.963  1.00  0.00     0.048 A 
HETATM   23  C   UNL     1      26.731  48.091  49.722  1.00  0.00     0.072 C 
HETATM   24  C   UNL     1      24.705  46.881  50.755  1.00  0.00     0.116 A 
HETATM   25  N   UNL     1      24.246  45.599  50.634  1.00  0.00    -0.351 N 
HETATM   26  H   UNL     1      23.428  45.209  51.085  1.00  0.00     0.166 HD
ENDBRANCH  17  20
ENDBRANCH   1  17
TORSDOF 5
ENDMDL
MODEL 7
REMARK VINA RESULT:      -7.2      7.818     10.821
REMARK  5 active torsions:
REMARK  status: ('A' for Active; 'I' for Inactive)
REMARK    1  A    between atoms: C_2  and  C_3 
REMARK    2  A    between atoms: C_3  and  N_4 
REMARK    3  A    between atoms: C_3  and  C_19 
REMARK       I    between atoms: N_4  and  C_5 
REMARK    4  A    between atoms: C_5  and  C_6 
REMARK    5  A    between atoms: C_7  and  C_8 
ROOT
HETATM    1  N   UNL     1      27.642  40.841  49.120  1.00  0.00    -0.345 N 
HETATM    2  C   UNL     1      26.782  41.188  50.128  1.00  0.00     0.255 C 
HETATM    3  O   UNL     1      25.987  40.405  50.633  1.00  0.00    -0.268 OA
HETATM    4  H   UNL     1      28.264  41.534  48.717  1.00  0.00     0.163 HD
ENDROOT
BRANCH   2   5
HETATM    5  C   UNL     1      26.945  42.558  50.572  1.00  0.00     0.075 A 
HETATM    6  C   UNL     1      27.314  43.114  51.839  1.00  0.00     0.076 A 
HETATM    7  N   UNL     1      27.313  44.460  51.777  1.00  0.00    -0.178 NA
HETATM    8  N   UNL     1      27.001  44.751  50.513  1.00  0.00    -0.288 N 
HETATM    9  H   UNL     1      26.968  45.728  50.240  1.00  0.00     0.188 HD
HETATM   10  C   UNL     1      26.744  43.657  49.755  1.00  0.00     0.128 A 
BRANCH   6  11
HETATM   11  C   UNL     1      27.547  42.457  53.193  1.00  0.00     0.040 C 
HETATM   12  C   UNL     1      28.808  41.588  53.312  1.00  0.00     0.011 C 
HETATM   13  C   UNL     1      30.091  42.415  53.303  1.00  0.00     0.001 C 
HETATM   14  C   UNL     1      30.089  43.449  54.426  1.00  0.00     0.000 C 
HETATM   15  C   UNL     1      28.831  44.313  54.403  1.00  0.00     0.001 C 
HETATM   16  C   UNL     1      27.559  43.463  54.371  1.00  0.00     0.011 C 
ENDBRANCH   6  11
ENDBRANCH   2   5
BRANCH   1  17
HETATM   17  C   UNL     1      27.696  39.513  48.549  1.00  0.00     0.154 C 
BRANCH  17  18
HETATM   18  C   UNL     1      28.018  39.520  47.046  1.00  0.00     0.028 C 
HETATM   19  C   UNL     1      28.022  38.144  46.387  1.00  0.00     0.007 C 
ENDBRANCH  17  18
BRANCH  17  20
HETATM   20  C   UNL     1      28.710  38.739  49.343  1.00  0.00     0.127 A 
HETATM   21  N   UNL     1      28.469  37.732  50.162  1.00  0.00    -0.237 NA
HETATM   22  C   UNL     1      29.691  37.349  50.660  1.00  0.00     0.048 A 
HETATM   23  C   UNL     1      29.802  36.245  51.637  1.00  0.00     0.072 C 
HETATM   24  C   UNL     1      30.689  38.127  50.119  1.00  0.00     0.116 A 
HETATM   25  N   UNL     1      30.056  39.001  49.280  1.00  0.00    -0.351 N 
HETATM   26  H   UNL     1      30.495  39.716  48.715  1.00  0.00     0.166 HD
ENDBRANCH  17  20
ENDBRANCH   1  17
TORSDOF 5
ENDMDL
MODEL 8
REMARK VINA RESULT:      -7.2      3.434      8.476
REMARK  5 active torsions:
REMARK  status: ('A' for Active; 'I' for Inactive)
REMARK    1  A    between atoms: C_2  and  C_3 
REMARK    2  A    between atoms: C_3  and  N_4 
REMARK    3  A    between atoms: C_3  and  C_19 
REMARK       I    between atoms: N_4  and  C_5 
REMARK    4  A    between atoms: C_5  and  C_6 
REMARK    5  A    between atoms: C_7  and  C_8 
ROOT
HETATM    1  N   UNL     1      26.040  46.244  50.141  1.00  0.00    -0.345 N 
HETATM    2  C   UNL     1      26.075  45.595  51.347  1.00  0.00     0.255 C 
HETATM    3  O   UNL     1      26.278  46.166  52.412  1.00  0.00    -0.268 OA
HETATM    4  H   UNL     1      25.894  45.723  49.283  1.00  0.00     0.163 HD
ENDROOT
BRANCH   2   5
HETATM    5  C   UNL     1      25.795  44.177  51.240  1.00  0.00     0.075 A 
HETATM    6  C   UNL     1      26.638  43.025  51.357  1.00  0.00     0.076 A 
HETATM    7  N   UNL     1      25.924  41.901  51.157  1.00  0.00    -0.178 NA
HETATM    8  N   UNL     1      24.670  42.314  50.964  1.00  0.00    -0.288 N 
HETATM    9  H   UNL     1      23.952  41.612  50.815  1.00  0.00     0.188 HD
HETATM   10  C   UNL     1      24.537  43.662  50.976  1.00  0.00     0.128 A 
BRANCH   6  11
HETATM   11  C   UNL     1      28.147  42.900  51.517  1.00  0.00     0.040 C 
HETATM   12  C   UNL     1      28.810  43.907  52.469  1.00  0.00     0.011 C 
HETATM   13  C   UNL     1      28.463  43.645  53.932  1.00  0.00     0.001 C 
HETATM   14  C   UNL     1      28.857  42.229  54.348  1.00  0.00     0.000 C 
HETATM   15  C   UNL     1      28.279  41.177  53.407  1.00  0.00     0.001 C 
HETATM   16  C   UNL     1      28.604  41.482  51.943  1.00  0.00     0.011 C 
ENDBRANCH   6  11
ENDBRANCH   2   5
BRANCH   1  17
HETATM   17  C   UNL     1      26.240  47.671  50.006  1.00  0.00     0.154 C 
BRANCH  17  18
HETATM   18  C   UNL     1      27.398  48.026  49.059  1.00  0.00     0.028 C 
HETATM   19  C   UNL     1      28.005  49.407  49.282  1.00  0.00     0.007 C 
ENDBRANCH  17  18
BRANCH  17  20
HETATM   20  C   UNL     1      24.933  48.252  49.545  1.00  0.00     0.127 A 
HETATM   21  N   UNL     1      24.723  49.487  49.125  1.00  0.00    -0.237 NA
HETATM   22  C   UNL     1      23.386  49.559  48.819  1.00  0.00     0.048 A 
HETATM   23  C   UNL     1      22.785  50.818  48.328  1.00  0.00     0.072 C 
HETATM   24  C   UNL     1      22.781  48.342  49.040  1.00  0.00     0.116 A 
HETATM   25  N   UNL     1      23.773  47.519  49.495  1.00  0.00    -0.351 N 
HETATM   26  H   UNL     1      23.675  46.547  49.754  1.00  0.00     0.166 HD
ENDBRANCH  17  20
ENDBRANCH   1  17
TORSDOF 5
ENDMDL
MODEL 9
REMARK VINA RESULT:      -7.2      1.457      1.999
REMARK  5 active torsions:
REMARK  status: ('A' for Active; 'I' for Inactive)
REMARK    1  A    between atoms: C_2  and  C_3 
REMARK    2  A    between atoms: C_3  and  N_4 
REMARK    3  A    between atoms: C_3  and  C_19 
REMARK       I    between atoms: N_4  and  C_5 
REMARK    4  A    between atoms: C_5  and  C_6 
REMARK    5  A    between atoms: C_7  and  C_8 
ROOT
HETATM    1  N   UNL     1      22.163  47.084  49.180  1.00  0.00    -0.345 N 
HETATM    2  C   UNL     1      21.325  47.578  48.217  1.00  0.00     0.255 C 
HETATM    3  O   UNL     1      21.708  47.931  47.108  1.00  0.00    -0.268 OA
HETATM    4  H   UNL     1      21.801  46.830  50.093  1.00  0.00     0.163 HD
ENDROOT
BRANCH   2   5
HETATM    5  C   UNL     1      19.933  47.591  48.623  1.00  0.00     0.075 A 
HETATM    6  C   UNL     1      19.176  48.516  49.411  1.00  0.00     0.076 A 
HETATM    7  N   UNL     1      17.905  48.091  49.538  1.00  0.00    -0.178 NA
HETATM    8  N   UNL     1      17.840  46.965  48.825  1.00  0.00    -0.288 N 
HETATM    9  H   UNL     1      16.948  46.484  48.768  1.00  0.00     0.188 HD
HETATM   10  C   UNL     1      19.026  46.603  48.279  1.00  0.00     0.128 A 
BRANCH   6  11
HETATM   11  C   UNL     1      19.604  49.749  50.195  1.00  0.00     0.040 C 
HETATM   12  C   UNL     1      20.915  50.412  49.747  1.00  0.00     0.011 C 
HETATM   13  C   UNL     1      20.786  51.108  48.394  1.00  0.00     0.001 C 
HETATM   14  C   UNL     1      19.677  52.158  48.418  1.00  0.00     0.000 C 
HETATM   15  C   UNL     1      18.355  51.580  48.912  1.00  0.00     0.001 C 
HETATM   16  C   UNL     1      18.517  50.852  50.248  1.00  0.00     0.011 C 
ENDBRANCH   6  11
ENDBRANCH   2   5
BRANCH   1  17
HETATM   17  C   UNL     1      23.588  46.930  48.984  1.00  0.00     0.154 C 
BRANCH  17  18
HETATM   18  C   UNL     1      24.409  48.039  49.663  1.00  0.00     0.028 C 
HETATM   19  C   UNL     1      24.620  49.289  48.814  1.00  0.00     0.007 C 
ENDBRANCH  17  18
BRANCH  17  20
HETATM   20  C   UNL     1      23.953  45.564  49.491  1.00  0.00     0.127 A 
HETATM   21  N   UNL     1      24.410  44.553  48.775  1.00  0.00    -0.237 NA
HETATM   22  C   UNL     1      24.594  43.517  49.659  1.00  0.00     0.048 A 
HETATM   23  C   UNL     1      25.087  42.201  49.197  1.00  0.00     0.072 C 
HETATM   24  C   UNL     1      24.259  43.914  50.934  1.00  0.00     0.116 A 
HETATM   25  N   UNL     1      23.859  45.216  50.816  1.00  0.00    -0.351 N 
HETATM   26  H   UNL     1      23.547  45.819  51.566  1.00  0.00     0.166 HD
ENDBRANCH  17  20
ENDBRANCH   1  17
TORSDOF 5
ENDMDL
MODEL 10
REMARK VINA RESULT:      -7.0      5.883      8.259
REMARK  5 active torsions:
REMARK  status: ('A' for Active; 'I' for Inactive)
REMARK    1  A    between atoms: C_2  and  C_3 
REMARK    2  A    between atoms: C_3  and  N_4 
REMARK    3  A    between atoms: C_3  and  C_19 
REMARK       I    between atoms: N_4  and  C_5 
REMARK    4  A    between atoms: C_5  and  C_6 
REMARK    5  A    between atoms: C_7  and  C_8 
ROOT
HETATM    1  N   UNL     1      25.583  43.302  50.335  1.00  0.00    -0.345 N 
HETATM    2  C   UNL     1      25.075  44.068  51.350  1.00  0.00     0.255 C 
HETATM    3  O   UNL     1      24.329  43.627  52.216  1.00  0.00    -0.268 OA
HETATM    4  H   UNL     1      26.176  43.720  49.626  1.00  0.00     0.163 HD
ENDROOT
BRANCH   2   5
HETATM    5  C   UNL     1      25.551  45.437  51.326  1.00  0.00     0.075 A 
HETATM    6  C   UNL     1      25.922  46.338  52.375  1.00  0.00     0.076 A 
HETATM    7  N   UNL     1      26.286  47.528  51.861  1.00  0.00    -0.178 NA
HETATM    8  N   UNL     1      26.194  47.381  50.538  1.00  0.00    -0.288 N 
HETATM    9  H   UNL     1      26.451  48.166  49.949  1.00  0.00     0.188 HD
HETATM   10  C   UNL     1      25.735  46.163  50.162  1.00  0.00     0.128 A 
BRANCH   6  11
HETATM   11  C   UNL     1      25.830  46.205  53.889  1.00  0.00     0.040 C 
HETATM   12  C   UNL     1      26.570  45.010  54.507  1.00  0.00     0.011 C 
HETATM   13  C   UNL     1      28.088  45.164  54.442  1.00  0.00     0.001 C 
HETATM   14  C   UNL     1      28.542  46.446  55.136  1.00  0.00     0.000 C 
HETATM   15  C   UNL     1      27.802  47.672  54.610  1.00  0.00     0.001 C 
HETATM   16  C   UNL     1      26.285  47.479  54.646  1.00  0.00     0.011 C 
ENDBRANCH   6  11
ENDBRANCH   2   5
BRANCH   1  17
HETATM   17  C   UNL     1      25.289  41.893  50.184  1.00  0.00     0.154 C 
BRANCH  17  18
HETATM   18  C   UNL     1      24.606  41.564  48.846  1.00  0.00     0.028 C 
HETATM   19  C   UNL     1      23.163  42.047  48.730  1.00  0.00     0.007 C 
ENDBRANCH  17  18
BRANCH  17  20
HETATM   20  C   UNL     1      26.587  41.156  50.353  1.00  0.00     0.127 A 
HETATM   21  N   UNL     1      27.117  40.287  49.512  1.00  0.00    -0.237 NA
HETATM   22  C   UNL     1      28.294  39.874  50.086  1.00  0.00     0.048 A 
HETATM   23  C   UNL     1      29.154  38.872  49.421  1.00  0.00     0.072 C 
HETATM   24  C   UNL     1      28.488  40.517  51.288  1.00  0.00     0.116 A 
HETATM   25  N   UNL     1      27.402  41.333  51.444  1.00  0.00    -0.351 N 
HETATM   26  H   UNL     1      27.224  41.954  52.222  1.00  0.00     0.166 HD
ENDBRANCH  17  20
ENDBRANCH   1  17
TORSDOF 5
ENDMDL
