MODEL 1
REMARK VINA RESULT:      -7.2      0.000      0.000
REMARK  5 active torsions:
REMARK  status: ('A' for Active; 'I' for Inactive)
REMARK    1  A    between atoms: C_2  and  O_3 
REMARK    2  A    between atoms: C_4  and  C_5 
REMARK    3  A    between atoms: C_5  and  O_6 
REMARK    4  A    between atoms: C_9  and  C_10 
REMARK    5  A    between atoms: C_22  and  O_23 
ROOT
HETATM    1  C   UNL     1      32.076  51.384  43.454  1.00  0.00     0.047 C 
HETATM    2  C   UNL     1      31.640  51.557  41.991  1.00  0.00     0.073 C 
HETATM    3  C   UNL     1      31.681  50.222  41.164  1.00  0.00     0.133 C 
HETATM    4  C   UNL     1      31.027  50.277  39.737  1.00  0.00     0.074 C 
HETATM    5  C   UNL     1      30.202  51.503  39.522  1.00  0.00     0.030 A 
HETATM    6  C   UNL     1      29.847  52.379  40.524  1.00  0.00     0.042 A 
HETATM    7  N   UNL     1      29.120  53.379  39.943  1.00  0.00    -0.279 N 
HETATM    8  H   UNL     1      28.697  54.193  40.379  1.00  0.00     0.189 HD
HETATM    9  N   UNL     1      29.032  53.243  38.603  1.00  0.00    -0.149 NA
HETATM   10  C   UNL     1      29.687  52.112  38.377  1.00  0.00     0.190 A 
HETATM   11  C   UNL     1      30.264  52.282  41.943  1.00  0.00     0.097 C 
ENDROOT
BRANCH   4  12
HETATM   12  C   UNL     1      30.120  49.111  39.350  1.00  0.00    -0.048 A 
HETATM   13  C   UNL     1      28.721  49.155  39.515  1.00  0.00     0.009 A 
HETATM   14  C   UNL     1      27.919  48.062  39.178  1.00  0.00     0.019 A 
HETATM   15  C   UNL     1      28.508  46.909  38.670  1.00  0.00     0.011 A 
HETATM   16 BR   UNL     1      27.426  45.428  38.216  1.00  0.00    -0.051 Br
HETATM   17  C   UNL     1      29.888  46.841  38.497  1.00  0.00     0.019 A 
HETATM   18  C   UNL     1      30.689  47.935  38.837  1.00  0.00     0.009 A 
ENDBRANCH   4  12
BRANCH   3  19
HETATM   19  C   UNL     1      31.182  49.044  41.975  1.00  0.00     0.266 C 
HETATM   20  O   UNL     1      30.084  48.972  42.510  1.00  0.00    -0.265 OA
BRANCH  19  21
HETATM   21  O   UNL     1      32.140  48.072  42.016  1.00  0.00    -0.326 OA
HETATM   22  C   UNL     1      33.394  48.453  41.453  1.00  0.00     0.213 C 
ENDBRANCH  19  21
ENDBRANCH   3  19
BRANCH   2  23
HETATM   23  O   UNL     1      32.648  52.440  41.436  1.00  0.00    -0.389 OA
HETATM   24  H   UNL     1      32.326  52.781  40.582  1.00  0.00     0.210 HD
ENDBRANCH   2  23
BRANCH  10  25
HETATM   25  O   UNL     1      29.790  51.754  37.102  1.00  0.00    -0.343 OA
HETATM   26  H   UNL     1      30.569  52.235  36.775  1.00  0.00     0.219 HD
ENDBRANCH  10  25
TORSDOF 5
ENDMDL
MODEL 2
REMARK VINA RESULT:      -6.8      2.247      4.069
REMARK  5 active torsions:
REMARK  status: ('A' for Active; 'I' for Inactive)
REMARK    1  A    between atoms: C_2  and  O_3 
REMARK    2  A    between atoms: C_4  and  C_5 
REMARK    3  A    between atoms: C_5  and  O_6 
REMARK    4  A    between atoms: C_9  and  C_10 
REMARK    5  A    between atoms: C_22  and  O_23 
ROOT
HETATM    1  C   UNL     1      29.166  53.535  39.466  1.00  0.00     0.047 C 
HETATM    2  C   UNL     1      29.875  52.461  40.305  1.00  0.00     0.073 C 
HETATM    3  C   UNL     1      29.069  51.117  40.411  1.00  0.00     0.133 C 
HETATM    4  C   UNL     1      29.835  49.904  41.050  1.00  0.00     0.074 C 
HETATM    5  C   UNL     1      31.305  50.143  41.171  1.00  0.00     0.030 A 
HETATM    6  C   UNL     1      31.966  51.197  40.581  1.00  0.00     0.042 A 
HETATM    7  N   UNL     1      33.281  51.094  40.933  1.00  0.00    -0.279 N 
HETATM    8  H   UNL     1      34.057  51.697  40.678  1.00  0.00     0.189 HD
HETATM    9  N   UNL     1      33.511  50.065  41.777  1.00  0.00    -0.149 NA
HETATM   10  C   UNL     1      32.312  49.512  41.903  1.00  0.00     0.190 A 
HETATM   11  C   UNL     1      31.332  52.279  39.789  1.00  0.00     0.097 C 
ENDROOT
BRANCH   4  12
HETATM   12  C   UNL     1      29.706  48.558  40.343  1.00  0.00    -0.048 A 
HETATM   13  C   UNL     1      30.479  48.219  39.214  1.00  0.00     0.009 A 
HETATM   14  C   UNL     1      30.318  46.990  38.570  1.00  0.00     0.019 A 
HETATM   15  C   UNL     1      29.380  46.082  39.048  1.00  0.00     0.011 A 
HETATM   16 BR   UNL     1      29.158  44.419  38.178  1.00  0.00    -0.051 Br
HETATM   17  C   UNL     1      28.603  46.392  40.162  1.00  0.00     0.019 A 
HETATM   18  C   UNL     1      28.764  47.623  40.803  1.00  0.00     0.009 A 
ENDBRANCH   4  12
BRANCH   3  19
HETATM   19  C   UNL     1      28.415  50.749  39.095  1.00  0.00     0.266 C 
HETATM   20  O   UNL     1      28.977  50.740  38.009  1.00  0.00    -0.265 OA
BRANCH  19  21
HETATM   21  O   UNL     1      27.106  50.425  39.305  1.00  0.00    -0.326 OA
HETATM   22  C   UNL     1      26.553  49.537  38.335  1.00  0.00     0.213 C 
ENDBRANCH  19  21
ENDBRANCH   3  19
BRANCH   2  23
HETATM   23  O   UNL     1      29.924  53.042  41.633  1.00  0.00    -0.389 OA
HETATM   24  H   UNL     1      29.556  53.943  41.591  1.00  0.00     0.210 HD
ENDBRANCH   2  23
BRANCH  10  25
HETATM   25  O   UNL     1      32.242  48.477  42.731  1.00  0.00    -0.343 OA
HETATM   26  H   UNL     1      31.588  47.882  42.326  1.00  0.00     0.219 HD
ENDBRANCH  10  25
TORSDOF 5
ENDMDL
MODEL 3
REMARK VINA RESULT:      -6.7     25.717     27.065
REMARK  5 active torsions:
REMARK  status: ('A' for Active; 'I' for Inactive)
REMARK    1  A    between atoms: C_2  and  O_3 
REMARK    2  A    between atoms: C_4  and  C_5 
REMARK    3  A    between atoms: C_5  and  O_6 
REMARK    4  A    between atoms: C_9  and  C_10 
REMARK    5  A    between atoms: C_22  and  O_23 
ROOT
HETATM    1  C   UNL     1      37.285  47.470  67.481  1.00  0.00     0.047 C 
HETATM    2  C   UNL     1      36.344  46.410  66.889  1.00  0.00     0.073 C 
HETATM    3  C   UNL     1      36.875  45.778  65.552  1.00  0.00     0.133 C 
HETATM    4  C   UNL     1      36.085  44.529  65.021  1.00  0.00     0.074 C 
HETATM    5  C   UNL     1      35.147  43.959  66.035  1.00  0.00     0.030 A 
HETATM    6  C   UNL     1      35.133  44.323  67.363  1.00  0.00     0.042 A 
HETATM    7  N   UNL     1      34.134  43.612  67.963  1.00  0.00    -0.279 N 
HETATM    8  H   UNL     1      33.839  43.626  68.935  1.00  0.00     0.189 HD
HETATM    9  N   UNL     1      33.445  42.848  67.088  1.00  0.00    -0.149 NA
HETATM   10  C   UNL     1      34.073  43.073  65.941  1.00  0.00     0.190 A 
HETATM   11  C   UNL     1      35.993  45.359  67.982  1.00  0.00     0.097 C 
ENDROOT
BRANCH   4  12
HETATM   12  C   UNL     1      36.917  43.344  64.536  1.00  0.00    -0.048 A 
HETATM   13  C   UNL     1      37.205  42.235  65.356  1.00  0.00     0.009 A 
HETATM   14  C   UNL     1      37.992  41.179  64.894  1.00  0.00     0.019 A 
HETATM   15  C   UNL     1      38.503  41.217  63.601  1.00  0.00     0.011 A 
HETATM   16 BR   UNL     1      39.571  39.791  62.973  1.00  0.00    -0.051 Br
HETATM   17  C   UNL     1      38.233  42.301  62.769  1.00  0.00     0.019 A 
HETATM   18  C   UNL     1      37.446  43.359  63.235  1.00  0.00     0.009 A 
ENDBRANCH   4  12
BRANCH   3  19
HETATM   19  C   UNL     1      38.368  45.529  65.603  1.00  0.00     0.266 C 
HETATM   20  O   UNL     1      38.940  44.849  66.444  1.00  0.00    -0.265 OA
BRANCH  19  21
HETATM   21  O   UNL     1      38.979  46.175  64.568  1.00  0.00    -0.326 OA
HETATM   22  C   UNL     1      40.246  45.634  64.197  1.00  0.00     0.213 C 
ENDBRANCH  19  21
ENDBRANCH   3  19
BRANCH   2  23
HETATM   23  O   UNL     1      35.145  47.159  66.566  1.00  0.00    -0.389 OA
HETATM   24  H   UNL     1      34.468  46.538  66.241  1.00  0.00     0.210 HD
ENDBRANCH   2  23
BRANCH  10  25
HETATM   25  O   UNL     1      33.563  42.461  64.879  1.00  0.00    -0.343 OA
HETATM   26  H   UNL     1      33.808  43.028  64.128  1.00  0.00     0.219 HD
ENDBRANCH  10  25
TORSDOF 5
ENDMDL
MODEL 4
REMARK VINA RESULT:      -6.6     12.965     14.561
REMARK  5 active torsions:
REMARK  status: ('A' for Active; 'I' for Inactive)
REMARK    1  A    between atoms: C_2  and  O_3 
REMARK    2  A    between atoms: C_4  and  C_5 
REMARK    3  A    between atoms: C_5  and  O_6 
REMARK    4  A    between atoms: C_9  and  C_10 
REMARK    5  A    between atoms: C_22  and  O_23 
ROOT
HETATM    1  C   UNL     1      28.099  40.506  50.052  1.00  0.00     0.047 C 
HETATM    2  C   UNL     1      26.772  41.274  50.150  1.00  0.00     0.073 C 
HETATM    3  C   UNL     1      26.517  41.905  51.566  1.00  0.00     0.133 C 
HETATM    4  C   UNL     1      25.304  42.896  51.668  1.00  0.00     0.074 C 
HETATM    5  C   UNL     1      24.779  43.313  50.333  1.00  0.00     0.030 A 
HETATM    6  C   UNL     1      25.417  43.059  49.140  1.00  0.00     0.042 A 
HETATM    7  N   UNL     1      24.629  43.567  48.147  1.00  0.00    -0.279 N 
HETATM    8  H   UNL     1      24.786  43.561  47.144  1.00  0.00     0.189 HD
HETATM    9  N   UNL     1      23.473  44.084  48.617  1.00  0.00    -0.149 NA
HETATM   10  C   UNL     1      23.588  43.919  49.929  1.00  0.00     0.190 A 
HETATM   11  C   UNL     1      26.678  42.297  48.981  1.00  0.00     0.097 C 
ENDROOT
BRANCH   4  12
HETATM   12  C   UNL     1      25.540  44.198  52.429  1.00  0.00    -0.048 A 
HETATM   13  C   UNL     1      25.911  45.395  51.783  1.00  0.00     0.009 A 
HETATM   14  C   UNL     1      26.149  46.564  52.509  1.00  0.00     0.019 A 
HETATM   15  C   UNL     1      26.017  46.552  53.893  1.00  0.00     0.011 A 
HETATM   16 BR   UNL     1      26.340  48.132  54.878  1.00  0.00    -0.051 Br
HETATM   17  C   UNL     1      25.651  45.383  54.556  1.00  0.00     0.019 A 
HETATM   18  C   UNL     1      25.416  44.213  53.827  1.00  0.00     0.009 A 
ENDBRANCH   4  12
BRANCH   3  19
HETATM   19  C   UNL     1      27.784  42.492  52.155  1.00  0.00     0.266 C 
HETATM   20  O   UNL     1      28.468  43.359  51.630  1.00  0.00    -0.265 OA
BRANCH  19  21
HETATM   21  O   UNL     1      28.044  41.909  53.362  1.00  0.00    -0.326 OA
HETATM   22  C   UNL     1      28.842  42.700  54.241  1.00  0.00     0.213 C 
ENDBRANCH  19  21
ENDBRANCH   3  19
BRANCH   2  23
HETATM   23  O   UNL     1      25.768  40.248  49.947  1.00  0.00    -0.389 OA
HETATM   24  H   UNL     1      26.005  39.733  49.154  1.00  0.00     0.210 HD
ENDBRANCH   2  23
BRANCH  10  25
HETATM   25  O   UNL     1      22.546  44.315  50.649  1.00  0.00    -0.343 OA
HETATM   26  H   UNL     1      22.927  44.594  51.500  1.00  0.00     0.219 HD
ENDBRANCH  10  25
TORSDOF 5
ENDMDL
MODEL 5
REMARK VINA RESULT:      -6.4     11.651     13.108
REMARK  5 active torsions:
REMARK  status: ('A' for Active; 'I' for Inactive)
REMARK    1  A    between atoms: C_2  and  O_3 
REMARK    2  A    between atoms: C_4  and  C_5 
REMARK    3  A    between atoms: C_5  and  O_6 
REMARK    4  A    between atoms: C_9  and  C_10 
REMARK    5  A    between atoms: C_22  and  O_23 
ROOT
HETATM    1  C   UNL     1      19.696  51.981  48.823  1.00  0.00     0.047 C 
HETATM    2  C   UNL     1      20.626  50.816  49.198  1.00  0.00     0.073 C 
HETATM    3  C   UNL     1      19.949  49.405  49.063  1.00  0.00     0.133 C 
HETATM    4  C   UNL     1      20.905  48.168  49.201  1.00  0.00     0.074 C 
HETATM    5  C   UNL     1      22.350  48.539  49.131  1.00  0.00     0.030 A 
HETATM    6  C   UNL     1      22.810  49.780  48.753  1.00  0.00     0.042 A 
HETATM    7  N   UNL     1      24.173  49.745  48.833  1.00  0.00    -0.279 N 
HETATM    8  H   UNL     1      24.842  50.481  48.628  1.00  0.00     0.189 HD
HETATM    9  N   UNL     1      24.633  48.567  49.307  1.00  0.00    -0.149 NA
HETATM   10  C   UNL     1      23.522  47.863  49.477  1.00  0.00     0.190 A 
HETATM   11  C   UNL     1      21.963  50.948  48.412  1.00  0.00     0.097 C 
ENDROOT
BRANCH   4  12
HETATM   12  C   UNL     1      20.731  47.046  48.181  1.00  0.00    -0.048 A 
HETATM   13  C   UNL     1      21.414  47.031  46.948  1.00  0.00     0.009 A 
HETATM   14  C   UNL     1      21.212  46.006  46.022  1.00  0.00     0.019 A 
HETATM   15  C   UNL     1      20.323  44.978  46.318  1.00  0.00     0.011 A 
HETATM   16 BR   UNL     1      20.046  43.591  45.065  1.00  0.00    -0.051 Br
HETATM   17  C   UNL     1      19.636  44.969  47.529  1.00  0.00     0.019 A 
HETATM   18  C   UNL     1      19.837  45.998  48.453  1.00  0.00     0.009 A 
ENDBRANCH   4  12
BRANCH   3  19
HETATM   19  C   UNL     1      19.077  49.318  47.828  1.00  0.00     0.266 C 
HETATM   20  O   UNL     1      19.432  49.605  46.694  1.00  0.00    -0.265 OA
BRANCH  19  21
HETATM   21  O   UNL     1      17.835  48.865  48.171  1.00  0.00    -0.326 OA
HETATM   22  C   UNL     1      16.789  49.820  48.002  1.00  0.00     0.213 C 
ENDBRANCH  19  21
ENDBRANCH   3  19
BRANCH   2  23
HETATM   23  O   UNL     1      20.895  51.034  50.607  1.00  0.00    -0.389 OA
HETATM   24  H   UNL     1      21.324  51.903  50.710  1.00  0.00     0.210 HD
ENDBRANCH   2  23
BRANCH  10  25
HETATM   25  O   UNL     1      23.686  46.647  49.985  1.00  0.00    -0.343 OA
HETATM   26  H   UNL     1      23.350  46.047  49.297  1.00  0.00     0.219 HD
ENDBRANCH  10  25
TORSDOF 5
ENDMDL
MODEL 6
REMARK VINA RESULT:      -6.4      2.288      3.242
REMARK  5 active torsions:
REMARK  status: ('A' for Active; 'I' for Inactive)
REMARK    1  A    between atoms: C_2  and  O_3 
REMARK    2  A    between atoms: C_4  and  C_5 
REMARK    3  A    between atoms: C_5  and  O_6 
REMARK    4  A    between atoms: C_9  and  C_10 
REMARK    5  A    between atoms: C_22  and  O_23 
ROOT
HETATM    1  C   UNL     1      33.023  47.872  41.318  1.00  0.00     0.047 C 
HETATM    2  C   UNL     1      32.371  49.239  41.060  1.00  0.00     0.073 C 
HETATM    3  C   UNL     1      31.317  49.221  39.895  1.00  0.00     0.133 C 
HETATM    4  C   UNL     1      30.447  50.518  39.735  1.00  0.00     0.074 C 
HETATM    5  C   UNL     1      30.552  51.437  40.908  1.00  0.00     0.030 A 
HETATM    6  C   UNL     1      31.148  51.099  42.102  1.00  0.00     0.042 A 
HETATM    7  N   UNL     1      31.071  52.194  42.914  1.00  0.00    -0.279 N 
HETATM    8  H   UNL     1      31.406  52.306  43.866  1.00  0.00     0.189 HD
HETATM    9  N   UNL     1      30.515  53.259  42.295  1.00  0.00    -0.149 NA
HETATM   10  C   UNL     1      30.213  52.778  41.096  1.00  0.00     0.190 A 
HETATM   11  C   UNL     1      31.818  49.811  42.398  1.00  0.00     0.097 C 
ENDROOT
BRANCH   4  12
HETATM   12  C   UNL     1      28.950  50.321  39.515  1.00  0.00    -0.048 A 
HETATM   13  C   UNL     1      28.068  49.992  40.564  1.00  0.00     0.009 A 
HETATM   14  C   UNL     1      26.706  49.789  40.328  1.00  0.00     0.019 A 
HETATM   15  C   UNL     1      26.208  49.913  39.035  1.00  0.00     0.011 A 
HETATM   16 BR   UNL     1      24.367  49.636  38.712  1.00  0.00    -0.051 Br
HETATM   17  C   UNL     1      27.058  50.237  37.981  1.00  0.00     0.019 A 
HETATM   18  C   UNL     1      28.421  50.437  38.220  1.00  0.00     0.009 A 
ENDBRANCH   4  12
BRANCH   3  19
HETATM   19  C   UNL     1      30.470  47.966  39.926  1.00  0.00     0.266 C 
HETATM   20  O   UNL     1      29.867  47.548  40.904  1.00  0.00    -0.265 OA
BRANCH  19  21
HETATM   21  O   UNL     1      30.476  47.374  38.696  1.00  0.00    -0.326 OA
HETATM   22  C   UNL     1      29.226  46.810  38.303  1.00  0.00     0.213 C 
ENDBRANCH  19  21
ENDBRANCH   3  19
BRANCH   2  23
HETATM   23  O   UNL     1      33.480  50.069  40.626  1.00  0.00    -0.389 OA
HETATM   24  H   UNL     1      33.593  49.957  39.665  1.00  0.00     0.210 HD
ENDBRANCH   2  23
BRANCH  10  25
HETATM   25  O   UNL     1      29.677  53.649  40.249  1.00  0.00    -0.343 OA
HETATM   26  H   UNL     1      30.178  53.529  39.425  1.00  0.00     0.219 HD
ENDBRANCH  10  25
TORSDOF 5
ENDMDL
MODEL 7
REMARK VINA RESULT:      -6.2     12.615     14.357
REMARK  5 active torsions:
REMARK  status: ('A' for Active; 'I' for Inactive)
REMARK    1  A    between atoms: C_2  and  O_3 
REMARK    2  A    between atoms: C_4  and  C_5 
REMARK    3  A    between atoms: C_5  and  O_6 
REMARK    4  A    between atoms: C_9  and  C_10 
REMARK    5  A    between atoms: C_22  and  O_23 
ROOT
HETATM    1  C   UNL     1      29.226  41.351  53.911  1.00  0.00     0.047 C 
HETATM    2  C   UNL     1      27.975  41.497  53.030  1.00  0.00     0.073 C 
HETATM    3  C   UNL     1      27.290  42.906  53.144  1.00  0.00     0.133 C 
HETATM    4  C   UNL     1      26.153  43.204  52.102  1.00  0.00     0.074 C 
HETATM    5  C   UNL     1      26.120  42.219  50.980  1.00  0.00     0.030 A 
HETATM    6  C   UNL     1      27.108  41.290  50.739  1.00  0.00     0.042 A 
HETATM    7  N   UNL     1      26.717  40.560  49.653  1.00  0.00    -0.279 N 
HETATM    8  H   UNL     1      27.199  39.793  49.195  1.00  0.00     0.189 HD
HETATM    9  N   UNL     1      25.493  40.915  49.205  1.00  0.00    -0.149 NA
HETATM   10  C   UNL     1      25.158  41.910  50.017  1.00  0.00     0.190 A 
HETATM   11  C   UNL     1      28.318  41.082  51.570  1.00  0.00     0.097 C 
ENDROOT
BRANCH   4  12
HETATM   12  C   UNL     1      26.177  44.574  51.431  1.00  0.00    -0.048 A 
HETATM   13  C   UNL     1      25.389  45.652  51.883  1.00  0.00     0.009 A 
HETATM   14  C   UNL     1      25.409  46.887  51.230  1.00  0.00     0.019 A 
HETATM   15  C   UNL     1      26.222  47.060  50.115  1.00  0.00     0.011 A 
HETATM   16 BR   UNL     1      26.250  48.729  49.229  1.00  0.00    -0.051 Br
HETATM   17  C   UNL     1      27.010  46.012  49.648  1.00  0.00     0.019 A 
HETATM   18  C   UNL     1      26.986  44.776  50.301  1.00  0.00     0.009 A 
ENDBRANCH   4  12
BRANCH   3  19
HETATM   19  C   UNL     1      28.311  44.022  53.209  1.00  0.00     0.266 C 
HETATM   20  O   UNL     1      29.284  44.130  52.476  1.00  0.00    -0.265 OA
BRANCH  19  21
HETATM   21  O   UNL     1      27.980  44.894  54.207  1.00  0.00    -0.326 OA
HETATM   22  C   UNL     1      29.004  45.099  55.178  1.00  0.00     0.213 C 
ENDBRANCH  19  21
ENDBRANCH   3  19
BRANCH   2  23
HETATM   23  O   UNL     1      27.053  40.522  53.583  1.00  0.00    -0.389 OA
HETATM   24  H   UNL     1      26.983  39.774  52.962  1.00  0.00     0.210 HD
ENDBRANCH   2  23
BRANCH  10  25
HETATM   25  O   UNL     1      23.953  42.430  49.818  1.00  0.00    -0.343 OA
HETATM   26  H   UNL     1      23.365  41.912  50.395  1.00  0.00     0.219 HD
ENDBRANCH  10  25
TORSDOF 5
ENDMDL
MODEL 8
REMARK VINA RESULT:      -6.2     12.414     14.036
REMARK  5 active torsions:
REMARK  status: ('A' for Active; 'I' for Inactive)
REMARK    1  A    between atoms: C_2  and  O_3 
REMARK    2  A    between atoms: C_4  and  C_5 
REMARK    3  A    between atoms: C_5  and  O_6 
REMARK    4  A    between atoms: C_9  and  C_10 
REMARK    5  A    between atoms: C_22  and  O_23 
ROOT
HETATM    1  C   UNL     1      20.005  45.310  46.813  1.00  0.00     0.047 C 
HETATM    2  C   UNL     1      20.722  46.632  47.129  1.00  0.00     0.073 C 
HETATM    3  C   UNL     1      19.860  47.905  46.806  1.00  0.00     0.133 C 
HETATM    4  C   UNL     1      20.434  49.272  47.321  1.00  0.00     0.074 C 
HETATM    5  C   UNL     1      21.548  49.104  48.301  1.00  0.00     0.030 A 
HETATM    6  C   UNL     1      21.892  47.902  48.879  1.00  0.00     0.042 A 
HETATM    7  N   UNL     1      22.963  48.139  49.692  1.00  0.00    -0.279 N 
HETATM    8  H   UNL     1      23.476  47.485  50.275  1.00  0.00     0.189 HD
HETATM    9  N   UNL     1      23.385  49.421  49.631  1.00  0.00    -0.149 NA
HETATM   10  C   UNL     1      22.521  49.976  48.791  1.00  0.00     0.190 A 
HETATM   11  C   UNL     1      21.259  46.593  48.589  1.00  0.00     0.097 C 
ENDROOT
BRANCH   4  12
HETATM   12  C   UNL     1      19.447  50.222  47.998  1.00  0.00    -0.048 A 
HETATM   13  C   UNL     1      19.191  50.185  49.383  1.00  0.00     0.009 A 
HETATM   14  C   UNL     1      18.262  51.047  49.970  1.00  0.00     0.019 A 
HETATM   15  C   UNL     1      17.576  51.960  49.176  1.00  0.00     0.011 A 
HETATM   16 BR   UNL     1      16.316  53.125  49.967  1.00  0.00    -0.051 Br
HETATM   17  C   UNL     1      17.811  52.017  47.805  1.00  0.00     0.019 A 
HETATM   18  C   UNL     1      18.739  51.151  47.219  1.00  0.00     0.009 A 
ENDBRANCH   4  12
BRANCH   3  19
HETATM   19  C   UNL     1      18.409  47.713  47.193  1.00  0.00     0.266 C 
HETATM   20  O   UNL     1      18.018  47.280  48.269  1.00  0.00    -0.265 OA
BRANCH  19  21
HETATM   21  O   UNL     1      17.601  48.098  46.162  1.00  0.00    -0.326 OA
HETATM   22  C   UNL     1      18.096  47.769  44.866  1.00  0.00     0.213 C 
ENDBRANCH  19  21
ENDBRANCH   3  19
BRANCH   2  23
HETATM   23  O   UNL     1      21.852  46.633  46.221  1.00  0.00    -0.389 OA
HETATM   24  H   UNL     1      22.430  45.880  46.443  1.00  0.00     0.210 HD
ENDBRANCH   2  23
BRANCH  10  25
HETATM   25  O   UNL     1      22.735  51.257  48.514  1.00  0.00    -0.343 OA
HETATM   26  H   UNL     1      22.418  51.366  47.601  1.00  0.00     0.219 HD
ENDBRANCH  10  25
TORSDOF 5
ENDMDL
MODEL 9
REMARK VINA RESULT:      -6.2     26.252     27.361
REMARK  5 active torsions:
REMARK  status: ('A' for Active; 'I' for Inactive)
REMARK    1  A    between atoms: C_2  and  O_3 
REMARK    2  A    between atoms: C_4  and  C_5 
REMARK    3  A    between atoms: C_5  and  O_6 
REMARK    4  A    between atoms: C_9  and  C_10 
REMARK    5  A    between atoms: C_22  and  O_23 
ROOT
HETATM    1  C   UNL     1      36.028  46.456  65.833  1.00  0.00     0.047 C 
HETATM    2  C   UNL     1      36.751  45.358  65.038  1.00  0.00     0.073 C 
HETATM    3  C   UNL     1      38.190  45.772  64.564  1.00  0.00     0.133 C 
HETATM    4  C   UNL     1      39.070  44.623  63.955  1.00  0.00     0.074 C 
HETATM    5  C   UNL     1      38.508  43.262  64.209  1.00  0.00     0.030 A 
HETATM    6  C   UNL     1      37.469  43.007  65.076  1.00  0.00     0.042 A 
HETATM    7  N   UNL     1      37.223  41.664  65.024  1.00  0.00    -0.279 N 
HETATM    8  H   UNL     1      36.529  41.124  65.531  1.00  0.00     0.189 HD
HETATM    9  N   UNL     1      38.002  41.031  64.120  1.00  0.00    -0.149 NA
HETATM   10  C   UNL     1      38.762  42.010  63.647  1.00  0.00     0.190 A 
HETATM   11  C   UNL     1      36.715  44.026  65.843  1.00  0.00     0.097 C 
ENDROOT
BRANCH   4  12
HETATM   12  C   UNL     1      40.522  44.548  64.420  1.00  0.00    -0.048 A 
HETATM   13  C   UNL     1      40.926  43.760  65.516  1.00  0.00     0.009 A 
HETATM   14  C   UNL     1      42.258  43.734  65.937  1.00  0.00     0.019 A 
HETATM   15  C   UNL     1      43.206  44.498  65.263  1.00  0.00     0.011 A 
HETATM   16 BR   UNL     1      45.007  44.467  65.831  1.00  0.00    -0.051 Br
HETATM   17  C   UNL     1      42.833  45.285  64.177  1.00  0.00     0.019 A 
HETATM   18  C   UNL     1      41.499  45.312  63.760  1.00  0.00     0.009 A 
ENDBRANCH   4  12
BRANCH   3  19
HETATM   19  C   UNL     1      38.929  46.552  65.631  1.00  0.00     0.266 C 
HETATM   20  O   UNL     1      39.134  46.164  66.772  1.00  0.00    -0.265 OA
BRANCH  19  21
HETATM   21  O   UNL     1      39.335  47.754  65.126  1.00  0.00    -0.326 OA
HETATM   22  C   UNL     1      40.505  48.290  65.740  1.00  0.00     0.213 C 
ENDBRANCH  19  21
ENDBRANCH   3  19
BRANCH   2  23
HETATM   23  O   UNL     1      35.932  45.201  63.851  1.00  0.00    -0.389 OA
HETATM   24  H   UNL     1      36.044  45.991  63.291  1.00  0.00     0.210 HD
ENDBRANCH   2  23
BRANCH  10  25
HETATM   25  O   UNL     1      39.614  41.663  62.690  1.00  0.00    -0.343 OA
HETATM   26  H   UNL     1      39.596  42.408  62.065  1.00  0.00     0.219 HD
ENDBRANCH  10  25
TORSDOF 5
ENDMDL
MODEL 10
REMARK VINA RESULT:      -6.1     14.548     16.135
REMARK  5 active torsions:
REMARK  status: ('A' for Active; 'I' for Inactive)
REMARK    1  A    between atoms: C_2  and  O_3 
REMARK    2  A    between atoms: C_4  and  C_5 
REMARK    3  A    between atoms: C_5  and  O_6 
REMARK    4  A    between atoms: C_9  and  C_10 
REMARK    5  A    between atoms: C_22  and  O_23 
ROOT
HETATM    1  C   UNL     1      17.379  46.040  48.115  1.00  0.00     0.047 C 
HETATM    2  C   UNL     1      18.077  47.408  48.171  1.00  0.00     0.073 C 
HETATM    3  C   UNL     1      17.398  48.494  47.262  1.00  0.00     0.133 C 
HETATM    4  C   UNL     1      17.911  49.966  47.451  1.00  0.00     0.074 C 
HETATM    5  C   UNL     1      18.744  50.139  48.679  1.00  0.00     0.030 A 
HETATM    6  C   UNL     1      18.863  49.191  49.670  1.00  0.00     0.042 A 
HETATM    7  N   UNL     1      19.717  49.695  50.608  1.00  0.00    -0.279 N 
HETATM    8  H   UNL     1      20.034  49.270  51.474  1.00  0.00     0.189 HD
HETATM    9  N   UNL     1      20.219  50.899  50.257  1.00  0.00    -0.149 NA
HETATM   10  C   UNL     1      19.619  51.142  49.098  1.00  0.00     0.190 A 
HETATM   11  C   UNL     1      18.242  47.845  49.655  1.00  0.00     0.097 C 
ENDROOT
BRANCH   4  12
HETATM   12  C   UNL     1      16.850  51.061  47.529  1.00  0.00    -0.048 A 
HETATM   13  C   UNL     1      16.346  51.709  46.384  1.00  0.00     0.009 A 
HETATM   14  C   UNL     1      15.396  52.727  46.489  1.00  0.00     0.019 A 
HETATM   15  C   UNL     1      14.936  53.111  47.745  1.00  0.00     0.011 A 
HETATM   16 BR   UNL     1      13.653  54.490  47.890  1.00  0.00    -0.051 Br
HETATM   17  C   UNL     1      15.418  52.487  48.892  1.00  0.00     0.019 A 
HETATM   18  C   UNL     1      16.371  51.470  48.785  1.00  0.00     0.009 A 
ENDBRANCH   4  12
BRANCH   3  19
HETATM   19  C   UNL     1      15.887  48.406  47.316  1.00  0.00     0.266 C 
HETATM   20  O   UNL     1      15.216  48.440  48.338  1.00  0.00    -0.265 OA
BRANCH  19  21
HETATM   21  O   UNL     1      15.386  48.286  46.052  1.00  0.00    -0.326 OA
HETATM   22  C   UNL     1      14.057  48.780  45.892  1.00  0.00     0.213 C 
ENDBRANCH  19  21
ENDBRANCH   3  19
BRANCH   2  23
HETATM   23  O   UNL     1      19.392  47.143  47.619  1.00  0.00    -0.389 OA
HETATM   24  H   UNL     1      19.356  46.307  47.119  1.00  0.00     0.210 HD
ENDBRANCH   2  23
BRANCH  10  25
HETATM   25  O   UNL     1      19.971  52.273  48.498  1.00  0.00    -0.343 OA
HETATM   26  H   UNL     1      19.887  52.082  47.548  1.00  0.00     0.219 HD
ENDBRANCH  10  25
TORSDOF 5
ENDMDL
