MODEL 1
REMARK VINA RESULT:      -9.3      0.000      0.000
REMARK  6 active torsions:
REMARK  status: ('A' for Active; 'I' for Inactive)
REMARK    1  A    between atoms: C_7  and  C_8 
REMARK    2  A    between atoms: N_9  and  N_10 
REMARK       I    between atoms: N_10  and  C_11 
REMARK    3  A    between atoms: C_11  and  C_12 
REMARK    4  A    between atoms: C_12  and  N_13 
REMARK       I    between atoms: N_13  and  C_14 
REMARK    5  A    between atoms: C_14  and  C_15 
REMARK    6  A    between atoms: C_16  and  O_17 
ROOT
HETATM    1  N   UNL     1      25.159  46.906  51.653  1.00  0.00    -0.246 N 
HETATM    2  C   UNL     1      25.275  47.537  50.425  1.00  0.00     0.255 C 
HETATM    3  O   UNL     1      26.296  48.093  50.017  1.00  0.00    -0.270 OA
HETATM    4  H   UNL     1      24.275  46.502  51.952  1.00  0.00     0.192 HD
ENDROOT
BRANCH   1   5
HETATM    5  N   UNL     1      26.227  46.913  52.500  1.00  0.00    -0.184 NA
HETATM    6  C   UNL     1      26.261  45.981  53.396  1.00  0.00     0.153 C 
BRANCH   6   7
HETATM    7  C   UNL     1      27.352  45.952  54.355  1.00  0.00     0.018 A 
HETATM    8  C   UNL     1      27.588  46.865  55.378  1.00  0.00     0.018 A 
HETATM    9  C   UNL     1      26.853  48.095  55.783  1.00  0.00     0.069 C 
HETATM   10  N   UNL     1      28.707  46.454  56.058  1.00  0.00    -0.358 N 
HETATM   11  H   UNL     1      29.106  46.927  56.855  1.00  0.00     0.166 HD
HETATM   12  C   UNL     1      29.205  45.294  55.515  1.00  0.00     0.043 A 
HETATM   13  C   UNL     1      28.382  44.957  54.440  1.00  0.00     0.004 A 
HETATM   14  C   UNL     1      30.309  44.526  55.901  1.00  0.00     0.030 A 
HETATM   15  C   UNL     1      28.683  43.783  53.715  1.00  0.00     0.014 A 
HETATM   16  C   UNL     1      29.782  43.000  54.088  1.00  0.00     0.001 A 
HETATM   17  C   UNL     1      30.583  43.369  55.166  1.00  0.00     0.002 A 
ENDBRANCH   6   7
ENDBRANCH   1   5
BRANCH   2  18
HETATM   18  C   UNL     1      23.961  47.687  49.660  1.00  0.00     0.227 C 
BRANCH  18  19
HETATM   19  N   UNL     1      23.975  48.575  48.504  1.00  0.00    -0.348 N 
HETATM   20  C   UNL     1      23.102  49.561  48.131  1.00  0.00     0.254 C 
HETATM   21  O   UNL     1      23.348  50.263  47.155  1.00  0.00    -0.268 OA
HETATM   22  H   UNL     1      24.781  48.512  47.889  1.00  0.00     0.163 HD
BRANCH  20  23
HETATM   23  C   UNL     1      21.838  49.745  48.866  1.00  0.00     0.065 A 
HETATM   24  C   UNL     1      20.791  48.836  48.674  1.00  0.00     0.084 A 
HETATM   25  C   UNL     1      19.591  48.986  49.369  1.00  0.00     0.038 A 
HETATM   26  C   UNL     1      19.424  50.074  50.228  1.00  0.00     0.003 A 
HETATM   27  C   UNL     1      20.453  51.005  50.392  1.00  0.00     0.001 A 
HETATM   28  C   UNL     1      21.659  50.848  49.706  1.00  0.00     0.020 A 
BRANCH  24  29
HETATM   29  O   UNL     1      20.956  47.734  47.874  1.00  0.00    -0.355 OA
HETATM   30  C   UNL     1      20.362  46.590  48.502  1.00  0.00     0.210 C 
ENDBRANCH  24  29
ENDBRANCH  20  23
ENDBRANCH  18  19
ENDBRANCH   2  18
TORSDOF 6
ENDMDL
MODEL 2
REMARK VINA RESULT:      -9.2      6.419      9.032
REMARK  6 active torsions:
REMARK  status: ('A' for Active; 'I' for Inactive)
REMARK    1  A    between atoms: C_7  and  C_8 
REMARK    2  A    between atoms: N_9  and  N_10 
REMARK       I    between atoms: N_10  and  C_11 
REMARK    3  A    between atoms: C_11  and  C_12 
REMARK    4  A    between atoms: C_12  and  N_13 
REMARK       I    between atoms: N_13  and  C_14 
REMARK    5  A    between atoms: C_14  and  C_15 
REMARK    6  A    between atoms: C_16  and  O_17 
ROOT
HETATM    1  N   UNL     1      27.633  42.488  52.380  1.00  0.00    -0.246 N 
HETATM    2  C   UNL     1      28.055  41.172  52.470  1.00  0.00     0.255 C 
HETATM    3  O   UNL     1      28.486  40.643  53.495  1.00  0.00    -0.270 OA
HETATM    4  H   UNL     1      27.328  42.880  51.493  1.00  0.00     0.192 HD
ENDROOT
BRANCH   1   5
HETATM    5  N   UNL     1      27.718  43.283  53.484  1.00  0.00    -0.184 NA
HETATM    6  C   UNL     1      28.776  44.021  53.586  1.00  0.00     0.153 C 
BRANCH   6   7
HETATM    7  C   UNL     1      28.948  44.864  54.756  1.00  0.00     0.018 A 
HETATM    8  C   UNL     1      28.234  46.017  55.066  1.00  0.00     0.018 A 
HETATM    9  C   UNL     1      27.144  46.721  54.336  1.00  0.00     0.069 C 
HETATM   10  N   UNL     1      28.700  46.489  56.267  1.00  0.00    -0.358 N 
HETATM   11  H   UNL     1      28.356  47.313  56.738  1.00  0.00     0.166 HD
HETATM   12  C   UNL     1      29.691  45.674  56.757  1.00  0.00     0.043 A 
HETATM   13  C   UNL     1      29.876  44.649  55.829  1.00  0.00     0.004 A 
HETATM   14  C   UNL     1      30.423  45.767  57.946  1.00  0.00     0.030 A 
HETATM   15  C   UNL     1      30.848  43.663  56.111  1.00  0.00     0.014 A 
HETATM   16  C   UNL     1      31.587  43.739  57.297  1.00  0.00     0.001 A 
HETATM   17  C   UNL     1      31.377  44.778  58.200  1.00  0.00     0.002 A 
ENDBRANCH   6   7
ENDBRANCH   1   5
BRANCH   2  18
HETATM   18  C   UNL     1      28.149  40.441  51.130  1.00  0.00     0.227 C 
BRANCH  18  19
HETATM   19  N   UNL     1      29.199  39.436  51.007  1.00  0.00    -0.348 N 
HETATM   20  C   UNL     1      29.321  38.381  50.143  1.00  0.00     0.254 C 
HETATM   21  O   UNL     1      30.340  37.699  50.146  1.00  0.00    -0.268 OA
HETATM   22  H   UNL     1      30.008  39.545  51.609  1.00  0.00     0.163 HD
BRANCH  20  23
HETATM   23  C   UNL     1      28.205  38.029  49.246  1.00  0.00     0.065 A 
HETATM   24  C   UNL     1      27.951  38.821  48.121  1.00  0.00     0.084 A 
HETATM   25  C   UNL     1      26.907  38.499  47.254  1.00  0.00     0.038 A 
HETATM   26  C   UNL     1      26.090  37.403  47.537  1.00  0.00     0.003 A 
HETATM   27  C   UNL     1      26.317  36.633  48.681  1.00  0.00     0.001 A 
HETATM   28  C   UNL     1      27.370  36.949  49.542  1.00  0.00     0.020 A 
BRANCH  24  29
HETATM   29  O   UNL     1      28.775  39.870  47.799  1.00  0.00    -0.355 OA
HETATM   30  C   UNL     1      28.002  40.926  47.213  1.00  0.00     0.210 C 
ENDBRANCH  24  29
ENDBRANCH  20  23
ENDBRANCH  18  19
ENDBRANCH   2  18
TORSDOF 6
ENDMDL
MODEL 3
REMARK VINA RESULT:      -9.1      1.576      2.419
REMARK  6 active torsions:
REMARK  status: ('A' for Active; 'I' for Inactive)
REMARK    1  A    between atoms: C_7  and  C_8 
REMARK    2  A    between atoms: N_9  and  N_10 
REMARK       I    between atoms: N_10  and  C_11 
REMARK    3  A    between atoms: C_11  and  C_12 
REMARK    4  A    between atoms: C_12  and  N_13 
REMARK       I    between atoms: N_13  and  C_14 
REMARK    5  A    between atoms: C_14  and  C_15 
REMARK    6  A    between atoms: C_16  and  O_17 
ROOT
HETATM    1  N   UNL     1      25.795  46.096  51.369  1.00  0.00    -0.246 N 
HETATM    2  C   UNL     1      25.917  46.768  50.164  1.00  0.00     0.255 C 
HETATM    3  O   UNL     1      26.874  46.660  49.395  1.00  0.00    -0.270 OA
HETATM    4  H   UNL     1      25.000  46.260  51.982  1.00  0.00     0.192 HD
ENDROOT
BRANCH   1   5
HETATM    5  N   UNL     1      26.805  45.272  51.769  1.00  0.00    -0.184 NA
HETATM    6  C   UNL     1      26.745  44.828  52.982  1.00  0.00     0.153 C 
BRANCH   6   7
HETATM    7  C   UNL     1      27.810  43.976  53.484  1.00  0.00     0.018 A 
HETATM    8  C   UNL     1      28.106  42.681  53.070  1.00  0.00     0.018 A 
HETATM    9  C   UNL     1      27.460  41.804  52.056  1.00  0.00     0.069 C 
HETATM   10  N   UNL     1      29.197  42.253  53.785  1.00  0.00    -0.358 N 
HETATM   11  H   UNL     1      29.634  41.349  53.686  1.00  0.00     0.166 HD
HETATM   12  C   UNL     1      29.626  43.231  54.648  1.00  0.00     0.043 A 
HETATM   13  C   UNL     1      28.773  44.324  54.488  1.00  0.00     0.004 A 
HETATM   14  C   UNL     1      30.703  43.229  55.542  1.00  0.00     0.030 A 
HETATM   15  C   UNL     1      29.015  45.477  55.268  1.00  0.00     0.014 A 
HETATM   16  C   UNL     1      30.089  45.493  56.165  1.00  0.00     0.001 A 
HETATM   17  C   UNL     1      30.920  44.383  56.299  1.00  0.00     0.002 A 
ENDBRANCH   6   7
ENDBRANCH   1   5
BRANCH   2  18
HETATM   18  C   UNL     1      24.858  47.844  49.926  1.00  0.00     0.227 C 
BRANCH  18  19
HETATM   19  N   UNL     1      25.072  48.732  48.789  1.00  0.00    -0.348 N 
HETATM   20  C   UNL     1      24.242  49.658  48.216  1.00  0.00     0.254 C 
HETATM   21  O   UNL     1      24.654  50.375  47.310  1.00  0.00    -0.268 OA
HETATM   22  H   UNL     1      25.997  48.722  48.371  1.00  0.00     0.163 HD
BRANCH  20  23
HETATM   23  C   UNL     1      22.837  49.757  48.649  1.00  0.00     0.065 A 
HETATM   24  C   UNL     1      21.901  48.834  48.166  1.00  0.00     0.084 A 
HETATM   25  C   UNL     1      20.569  48.905  48.572  1.00  0.00     0.038 A 
HETATM   26  C   UNL     1      20.164  49.927  49.432  1.00  0.00     0.003 A 
HETATM   27  C   UNL     1      21.087  50.872  49.885  1.00  0.00     0.001 A 
HETATM   28  C   UNL     1      22.424  50.795  49.489  1.00  0.00     0.020 A 
BRANCH  24  29
HETATM   29  O   UNL     1      22.291  47.794  47.361  1.00  0.00    -0.355 OA
HETATM   30  C   UNL     1      21.953  46.549  47.987  1.00  0.00     0.210 C 
ENDBRANCH  24  29
ENDBRANCH  20  23
ENDBRANCH  18  19
ENDBRANCH   2  18
TORSDOF 6
ENDMDL
MODEL 4
REMARK VINA RESULT:      -8.8      2.554      9.885
REMARK  6 active torsions:
REMARK  status: ('A' for Active; 'I' for Inactive)
REMARK    1  A    between atoms: C_7  and  C_8 
REMARK    2  A    between atoms: N_9  and  N_10 
REMARK       I    between atoms: N_10  and  C_11 
REMARK    3  A    between atoms: C_11  and  C_12 
REMARK    4  A    between atoms: C_12  and  N_13 
REMARK       I    between atoms: N_13  and  C_14 
REMARK    5  A    between atoms: C_14  and  C_15 
REMARK    6  A    between atoms: C_16  and  O_17 
ROOT
HETATM    1  N   UNL     1      24.917  46.672  50.836  1.00  0.00    -0.246 N 
HETATM    2  C   UNL     1      25.498  46.560  52.089  1.00  0.00     0.255 C 
HETATM    3  O   UNL     1      25.638  47.493  52.881  1.00  0.00    -0.270 OA
HETATM    4  H   UNL     1      24.870  45.873  50.208  1.00  0.00     0.192 HD
ENDROOT
BRANCH   1   5
HETATM    5  N   UNL     1      24.489  47.896  50.416  1.00  0.00    -0.184 NA
HETATM    6  C   UNL     1      23.521  47.908  49.558  1.00  0.00     0.153 C 
BRANCH   6   7
HETATM    7  C   UNL     1      23.042  49.178  49.040  1.00  0.00     0.018 A 
HETATM    8  C   UNL     1      23.776  50.116  48.322  1.00  0.00     0.018 A 
HETATM    9  C   UNL     1      25.203  50.126  47.894  1.00  0.00     0.069 C 
HETATM   10  N   UNL     1      22.937  51.156  48.009  1.00  0.00    -0.358 N 
HETATM   11  H   UNL     1      23.203  51.976  47.485  1.00  0.00     0.166 HD
HETATM   12  C   UNL     1      21.673  50.922  48.495  1.00  0.00     0.043 A 
HETATM   13  C   UNL     1      21.707  49.692  49.152  1.00  0.00     0.004 A 
HETATM   14  C   UNL     1      20.515  51.699  48.391  1.00  0.00     0.030 A 
HETATM   15  C   UNL     1      20.512  49.216  49.737  1.00  0.00     0.014 A 
HETATM   16  C   UNL     1      19.343  49.980  49.641  1.00  0.00     0.001 A 
HETATM   17  C   UNL     1      19.347  51.205  48.977  1.00  0.00     0.002 A 
ENDBRANCH   6   7
ENDBRANCH   1   5
BRANCH   2  18
HETATM   18  C   UNL     1      26.162  45.212  52.365  1.00  0.00     0.227 C 
BRANCH  18  19
HETATM   19  N   UNL     1      25.597  44.414  53.447  1.00  0.00    -0.348 N 
HETATM   20  C   UNL     1      26.188  43.887  54.564  1.00  0.00     0.254 C 
HETATM   21  O   UNL     1      25.506  43.314  55.408  1.00  0.00    -0.268 OA
HETATM   22  H   UNL     1      24.594  44.256  53.422  1.00  0.00     0.163 HD
BRANCH  20  23
HETATM   23  C   UNL     1      27.651  43.957  54.727  1.00  0.00     0.065 A 
HETATM   24  C   UNL     1      28.450  42.926  54.218  1.00  0.00     0.084 A 
HETATM   25  C   UNL     1      29.837  42.979  54.352  1.00  0.00     0.038 A 
HETATM   26  C   UNL     1      30.423  44.047  55.035  1.00  0.00     0.003 A 
HETATM   27  C   UNL     1      29.625  45.057  55.579  1.00  0.00     0.001 A 
HETATM   28  C   UNL     1      28.237  45.010  55.433  1.00  0.00     0.020 A 
BRANCH  24  29
HETATM   29  O   UNL     1      27.896  41.897  53.500  1.00  0.00    -0.355 OA
HETATM   30  C   UNL     1      28.662  41.676  52.307  1.00  0.00     0.210 C 
ENDBRANCH  24  29
ENDBRANCH  20  23
ENDBRANCH  18  19
ENDBRANCH   2  18
TORSDOF 6
ENDMDL
MODEL 5
REMARK VINA RESULT:      -8.8      6.135      8.479
REMARK  6 active torsions:
REMARK  status: ('A' for Active; 'I' for Inactive)
REMARK    1  A    between atoms: C_7  and  C_8 
REMARK    2  A    between atoms: N_9  and  N_10 
REMARK       I    between atoms: N_10  and  C_11 
REMARK    3  A    between atoms: C_11  and  C_12 
REMARK    4  A    between atoms: C_12  and  N_13 
REMARK       I    between atoms: N_13  and  C_14 
REMARK    5  A    between atoms: C_14  and  C_15 
REMARK    6  A    between atoms: C_16  and  O_17 
ROOT
HETATM    1  N   UNL     1      26.499  42.828  52.396  1.00  0.00    -0.246 N 
HETATM    2  C   UNL     1      27.205  41.815  51.770  1.00  0.00     0.255 C 
HETATM    3  O   UNL     1      28.267  41.343  52.180  1.00  0.00    -0.270 OA
HETATM    4  H   UNL     1      25.650  43.206  51.985  1.00  0.00     0.192 HD
ENDROOT
BRANCH   1   5
HETATM    5  N   UNL     1      27.010  43.379  53.534  1.00  0.00    -0.184 NA
HETATM    6  C   UNL     1      27.708  44.458  53.392  1.00  0.00     0.153 C 
BRANCH   6   7
HETATM    7  C   UNL     1      28.313  45.076  54.560  1.00  0.00     0.018 A 
HETATM    8  C   UNL     1      27.933  46.272  55.161  1.00  0.00     0.018 A 
HETATM    9  C   UNL     1      26.862  47.246  54.815  1.00  0.00     0.069 C 
HETATM   10  N   UNL     1      28.751  46.475  56.244  1.00  0.00    -0.358 N 
HETATM   11  H   UNL     1      28.696  47.264  56.870  1.00  0.00     0.166 HD
HETATM   12  C   UNL     1      29.649  45.444  56.373  1.00  0.00     0.043 A 
HETATM   13  C   UNL     1      29.406  44.553  55.328  1.00  0.00     0.004 A 
HETATM   14  C   UNL     1      30.644  45.236  57.336  1.00  0.00     0.030 A 
HETATM   15  C   UNL     1      30.203  43.390  55.245  1.00  0.00     0.014 A 
HETATM   16  C   UNL     1      31.200  43.164  56.201  1.00  0.00     0.001 A 
HETATM   17  C   UNL     1      31.416  44.077  57.231  1.00  0.00     0.002 A 
ENDBRANCH   6   7
ENDBRANCH   1   5
BRANCH   2  18
HETATM   18  C   UNL     1      26.682  41.437  50.384  1.00  0.00     0.227 C 
BRANCH  18  19
HETATM   19  N   UNL     1      27.602  41.614  49.267  1.00  0.00    -0.348 N 
HETATM   20  C   UNL     1      27.969  40.748  48.272  1.00  0.00     0.254 C 
HETATM   21  O   UNL     1      28.699  41.129  47.364  1.00  0.00    -0.268 OA
HETATM   22  H   UNL     1      28.009  42.537  49.153  1.00  0.00     0.163 HD
BRANCH  20  23
HETATM   23  C   UNL     1      27.531  39.341  48.320  1.00  0.00     0.065 A 
HETATM   24  C   UNL     1      28.172  38.451  49.190  1.00  0.00     0.084 A 
HETATM   25  C   UNL     1      27.766  37.119  49.258  1.00  0.00     0.038 A 
HETATM   26  C   UNL     1      26.743  36.666  48.423  1.00  0.00     0.003 A 
HETATM   27  C   UNL     1      26.129  37.543  47.525  1.00  0.00     0.001 A 
HETATM   28  C   UNL     1      26.526  38.881  47.466  1.00  0.00     0.020 A 
BRANCH  24  29
HETATM   29  O   UNL     1      29.143  38.890  50.054  1.00  0.00    -0.355 OA
HETATM   30  C   UNL     1      29.749  37.766  50.707  1.00  0.00     0.210 C 
ENDBRANCH  24  29
ENDBRANCH  20  23
ENDBRANCH  18  19
ENDBRANCH   2  18
TORSDOF 6
ENDMDL
MODEL 6
REMARK VINA RESULT:      -8.7      5.796      8.009
REMARK  6 active torsions:
REMARK  status: ('A' for Active; 'I' for Inactive)
REMARK    1  A    between atoms: C_7  and  C_8 
REMARK    2  A    between atoms: N_9  and  N_10 
REMARK       I    between atoms: N_10  and  C_11 
REMARK    3  A    between atoms: C_11  and  C_12 
REMARK    4  A    between atoms: C_12  and  N_13 
REMARK       I    between atoms: N_13  and  C_14 
REMARK    5  A    between atoms: C_14  and  C_15 
REMARK    6  A    between atoms: C_16  and  O_17 
ROOT
HETATM    1  N   UNL     1      25.965  43.165  52.053  1.00  0.00    -0.246 N 
HETATM    2  C   UNL     1      26.616  42.146  51.378  1.00  0.00     0.255 C 
HETATM    3  O   UNL     1      27.664  41.616  51.751  1.00  0.00    -0.270 OA
HETATM    4  H   UNL     1      25.125  43.592  51.671  1.00  0.00     0.192 HD
ENDROOT
BRANCH   1   5
HETATM    5  N   UNL     1      26.519  43.655  53.199  1.00  0.00    -0.184 NA
HETATM    6  C   UNL     1      27.237  44.725  53.083  1.00  0.00     0.153 C 
BRANCH   6   7
HETATM    7  C   UNL     1      27.888  45.278  54.258  1.00  0.00     0.018 A 
HETATM    8  C   UNL     1      27.526  46.432  54.946  1.00  0.00     0.018 A 
HETATM    9  C   UNL     1      26.434  47.415  54.705  1.00  0.00     0.069 C 
HETATM   10  N   UNL     1      28.389  46.578  56.003  1.00  0.00    -0.358 N 
HETATM   11  H   UNL     1      28.356  47.329  56.676  1.00  0.00     0.166 HD
HETATM   12  C   UNL     1      29.300  45.550  56.031  1.00  0.00     0.043 A 
HETATM   13  C   UNL     1      29.017  44.720  54.946  1.00  0.00     0.004 A 
HETATM   14  C   UNL     1      30.336  45.295  56.936  1.00  0.00     0.030 A 
HETATM   15  C   UNL     1      29.817  43.572  54.759  1.00  0.00     0.014 A 
HETATM   16  C   UNL     1      30.858  43.300  55.657  1.00  0.00     0.001 A 
HETATM   17  C   UNL     1      31.112  44.151  56.729  1.00  0.00     0.002 A 
ENDBRANCH   6   7
ENDBRANCH   1   5
BRANCH   2  18
HETATM   18  C   UNL     1      26.052  41.838  49.991  1.00  0.00     0.227 C 
BRANCH  18  19
HETATM   19  N   UNL     1      26.971  41.970  48.868  1.00  0.00    -0.348 N 
HETATM   20  C   UNL     1      27.696  41.022  48.197  1.00  0.00     0.254 C 
HETATM   21  O   UNL     1      28.350  41.334  47.208  1.00  0.00    -0.268 OA
HETATM   22  H   UNL     1      27.065  42.895  48.461  1.00  0.00     0.163 HD
BRANCH  20  23
HETATM   23  C   UNL     1      27.736  39.635  48.695  1.00  0.00     0.065 A 
HETATM   24  C   UNL     1      26.655  38.782  48.443  1.00  0.00     0.084 A 
HETATM   25  C   UNL     1      26.678  37.463  48.896  1.00  0.00     0.038 A 
HETATM   26  C   UNL     1      27.769  37.009  49.639  1.00  0.00     0.003 A 
HETATM   27  C   UNL     1      28.832  37.870  49.926  1.00  0.00     0.001 A 
HETATM   28  C   UNL     1      28.814  39.187  49.462  1.00  0.00     0.020 A 
BRANCH  24  29
HETATM   29  O   UNL     1      25.599  39.195  47.670  1.00  0.00    -0.355 OA
HETATM   30  C   UNL     1      25.424  38.291  46.572  1.00  0.00     0.210 C 
ENDBRANCH  24  29
ENDBRANCH  20  23
ENDBRANCH  18  19
ENDBRANCH   2  18
TORSDOF 6
ENDMDL
MODEL 7
REMARK VINA RESULT:      -8.6      2.001      3.287
REMARK  6 active torsions:
REMARK  status: ('A' for Active; 'I' for Inactive)
REMARK    1  A    between atoms: C_7  and  C_8 
REMARK    2  A    between atoms: N_9  and  N_10 
REMARK       I    between atoms: N_10  and  C_11 
REMARK    3  A    between atoms: C_11  and  C_12 
REMARK    4  A    between atoms: C_12  and  N_13 
REMARK       I    between atoms: N_13  and  C_14 
REMARK    5  A    between atoms: C_14  and  C_15 
REMARK    6  A    between atoms: C_16  and  O_17 
ROOT
HETATM    1  N   UNL     1      23.849  47.070  50.193  1.00  0.00    -0.246 N 
HETATM    2  C   UNL     1      23.918  48.297  49.553  1.00  0.00     0.255 C 
HETATM    3  O   UNL     1      24.937  48.985  49.466  1.00  0.00    -0.270 OA
HETATM    4  H   UNL     1      22.967  46.569  50.269  1.00  0.00     0.192 HD
ENDROOT
BRANCH   1   5
HETATM    5  N   UNL     1      24.966  46.582  50.803  1.00  0.00    -0.184 NA
HETATM    6  C   UNL     1      24.780  45.707  51.737  1.00  0.00     0.153 C 
BRANCH   6   7
HETATM    7  C   UNL     1      25.925  45.174  52.454  1.00  0.00     0.018 A 
HETATM    8  C   UNL     1      26.509  43.924  52.281  1.00  0.00     0.018 A 
HETATM    9  C   UNL     1      26.161  42.796  51.373  1.00  0.00     0.069 C 
HETATM   10  N   UNL     1      27.575  43.836  53.141  1.00  0.00    -0.358 N 
HETATM   11  H   UNL     1      28.186  43.037  53.225  1.00  0.00     0.166 HD
HETATM   12  C   UNL     1      27.710  44.995  53.866  1.00  0.00     0.043 A 
HETATM   13  C   UNL     1      26.686  45.853  53.464  1.00  0.00     0.004 A 
HETATM   14  C   UNL     1      28.660  45.342  54.833  1.00  0.00     0.030 A 
HETATM   15  C   UNL     1      26.613  47.129  54.064  1.00  0.00     0.014 A 
HETATM   16  C   UNL     1      27.558  47.495  55.031  1.00  0.00     0.001 A 
HETATM   17  C   UNL     1      28.566  46.612  55.409  1.00  0.00     0.002 A 
ENDBRANCH   6   7
ENDBRANCH   1   5
BRANCH   2  18
HETATM   18  C   UNL     1      22.568  48.866  49.118  1.00  0.00     0.227 C 
BRANCH  18  19
HETATM   19  N   UNL     1      21.400  48.024  49.346  1.00  0.00    -0.348 N 
HETATM   20  C   UNL     1      20.065  48.317  49.263  1.00  0.00     0.254 C 
HETATM   21  O   UNL     1      19.231  47.429  49.410  1.00  0.00    -0.268 OA
HETATM   22  H   UNL     1      21.575  47.045  49.548  1.00  0.00     0.163 HD
BRANCH  20  23
HETATM   23  C   UNL     1      19.625  49.707  49.052  1.00  0.00     0.065 A 
HETATM   24  C   UNL     1      19.435  50.178  47.747  1.00  0.00     0.084 A 
HETATM   25  C   UNL     1      19.009  51.488  47.526  1.00  0.00     0.038 A 
HETATM   26  C   UNL     1      18.814  52.341  48.614  1.00  0.00     0.003 A 
HETATM   27  C   UNL     1      19.041  51.886  49.915  1.00  0.00     0.001 A 
HETATM   28  C   UNL     1      19.455  50.571  50.137  1.00  0.00     0.020 A 
BRANCH  24  29
HETATM   29  O   UNL     1      19.573  49.339  46.670  1.00  0.00    -0.355 OA
HETATM   30  C   UNL     1      18.285  49.075  46.099  1.00  0.00     0.210 C 
ENDBRANCH  24  29
ENDBRANCH  20  23
ENDBRANCH  18  19
ENDBRANCH   2  18
TORSDOF 6
ENDMDL
MODEL 8
REMARK VINA RESULT:      -8.6      3.002      4.073
REMARK  6 active torsions:
REMARK  status: ('A' for Active; 'I' for Inactive)
REMARK    1  A    between atoms: C_7  and  C_8 
REMARK    2  A    between atoms: N_9  and  N_10 
REMARK       I    between atoms: N_10  and  C_11 
REMARK    3  A    between atoms: C_11  and  C_12 
REMARK    4  A    between atoms: C_12  and  N_13 
REMARK       I    between atoms: N_13  and  C_14 
REMARK    5  A    between atoms: C_14  and  C_15 
REMARK    6  A    between atoms: C_16  and  O_17 
ROOT
HETATM    1  N   UNL     1      26.999  43.397  51.222  1.00  0.00    -0.246 N 
HETATM    2  C   UNL     1      26.884  43.972  49.967  1.00  0.00     0.255 C 
HETATM    3  O   UNL     1      27.458  45.004  49.614  1.00  0.00    -0.270 OA
HETATM    4  H   UNL     1      26.464  42.568  51.468  1.00  0.00     0.192 HD
ENDROOT
BRANCH   1   5
HETATM    5  N   UNL     1      27.774  44.012  52.160  1.00  0.00    -0.184 NA
HETATM    6  C   UNL     1      27.182  44.382  53.248  1.00  0.00     0.153 C 
BRANCH   6   7
HETATM    7  C   UNL     1      27.942  45.077  54.273  1.00  0.00     0.018 A 
HETATM    8  C   UNL     1      27.688  46.347  54.782  1.00  0.00     0.018 A 
HETATM    9  C   UNL     1      26.632  47.343  54.451  1.00  0.00     0.069 C 
HETATM   10  N   UNL     1      28.630  46.609  55.745  1.00  0.00    -0.358 N 
HETATM   11  H   UNL     1      28.683  47.459  56.286  1.00  0.00     0.166 HD
HETATM   12  C   UNL     1      29.488  45.545  55.885  1.00  0.00     0.043 A 
HETATM   13  C   UNL     1      29.088  44.570  54.971  1.00  0.00     0.004 A 
HETATM   14  C   UNL     1      30.573  45.377  56.753  1.00  0.00     0.030 A 
HETATM   15  C   UNL     1      29.815  43.360  54.927  1.00  0.00     0.014 A 
HETATM   16  C   UNL     1      30.902  43.174  55.791  1.00  0.00     0.001 A 
HETATM   17  C   UNL     1      31.274  44.170  56.690  1.00  0.00     0.002 A 
ENDBRANCH   6   7
ENDBRANCH   1   5
BRANCH   2  18
HETATM   18  C   UNL     1      25.809  43.349  49.076  1.00  0.00     0.227 C 
BRANCH  18  19
HETATM   19  N   UNL     1      24.587  42.908  49.737  1.00  0.00    -0.348 N 
HETATM   20  C   UNL     1      23.339  43.471  49.763  1.00  0.00     0.254 C 
HETATM   21  O   UNL     1      22.412  42.884  50.313  1.00  0.00    -0.268 OA
HETATM   22  H   UNL     1      24.624  42.014  50.217  1.00  0.00     0.163 HD
BRANCH  20  23
HETATM   23  C   UNL     1      23.119  44.806  49.180  1.00  0.00     0.065 A 
HETATM   24  C   UNL     1      23.626  45.935  49.835  1.00  0.00     0.084 A 
HETATM   25  C   UNL     1      23.438  47.206  49.294  1.00  0.00     0.038 A 
HETATM   26  C   UNL     1      22.704  47.352  48.115  1.00  0.00     0.003 A 
HETATM   27  C   UNL     1      22.163  46.231  47.481  1.00  0.00     0.001 A 
HETATM   28  C   UNL     1      22.362  44.956  48.015  1.00  0.00     0.020 A 
BRANCH  24  29
HETATM   29  O   UNL     1      24.393  45.806  50.965  1.00  0.00    -0.355 OA
HETATM   30  C   UNL     1      25.124  47.019  51.191  1.00  0.00     0.210 C 
ENDBRANCH  24  29
ENDBRANCH  20  23
ENDBRANCH  18  19
ENDBRANCH   2  18
TORSDOF 6
ENDMDL
MODEL 9
REMARK VINA RESULT:      -8.2      1.681      2.313
REMARK  6 active torsions:
REMARK  status: ('A' for Active; 'I' for Inactive)
REMARK    1  A    between atoms: C_7  and  C_8 
REMARK    2  A    between atoms: N_9  and  N_10 
REMARK       I    between atoms: N_10  and  C_11 
REMARK    3  A    between atoms: C_11  and  C_12 
REMARK    4  A    between atoms: C_12  and  N_13 
REMARK       I    between atoms: N_13  and  C_14 
REMARK    5  A    between atoms: C_14  and  C_15 
REMARK    6  A    between atoms: C_16  and  O_17 
ROOT
HETATM    1  N   UNL     1      24.275  47.159  50.437  1.00  0.00    -0.246 N 
HETATM    2  C   UNL     1      24.349  48.252  49.590  1.00  0.00     0.255 C 
HETATM    3  O   UNL     1      25.373  48.901  49.371  1.00  0.00    -0.270 OA
HETATM    4  H   UNL     1      23.389  46.690  50.611  1.00  0.00     0.192 HD
ENDROOT
BRANCH   1   5
HETATM    5  N   UNL     1      25.395  46.771  51.111  1.00  0.00    -0.184 NA
HETATM    6  C   UNL     1      25.223  46.321  52.311  1.00  0.00     0.153 C 
BRANCH   6   7
HETATM    7  C   UNL     1      26.378  45.927  53.099  1.00  0.00     0.018 A 
HETATM    8  C   UNL     1      26.871  46.565  54.232  1.00  0.00     0.018 A 
HETATM    9  C   UNL     1      26.411  47.787  54.948  1.00  0.00     0.069 C 
HETATM   10  N   UNL     1      27.958  45.853  54.675  1.00  0.00    -0.358 N 
HETATM   11  H   UNL     1      28.510  46.086  55.487  1.00  0.00     0.166 HD
HETATM   12  C   UNL     1      28.186  44.764  53.868  1.00  0.00     0.043 A 
HETATM   13  C   UNL     1      27.216  44.786  52.866  1.00  0.00     0.004 A 
HETATM   14  C   UNL     1      29.166  43.770  53.961  1.00  0.00     0.030 A 
HETATM   15  C   UNL     1      27.229  43.751  51.904  1.00  0.00     0.014 A 
HETATM   16  C   UNL     1      28.201  42.746  51.983  1.00  0.00     0.001 A 
HETATM   17  C   UNL     1      29.155  42.758  52.997  1.00  0.00     0.002 A 
ENDBRANCH   6   7
ENDBRANCH   1   5
BRANCH   2  18
HETATM   18  C   UNL     1      22.998  48.752  49.077  1.00  0.00     0.227 C 
BRANCH  18  19
HETATM   19  N   UNL     1      21.851  47.881  49.300  1.00  0.00    -0.348 N 
HETATM   20  C   UNL     1      20.509  48.140  49.214  1.00  0.00     0.254 C 
HETATM   21  O   UNL     1      19.698  47.231  49.355  1.00  0.00    -0.268 OA
HETATM   22  H   UNL     1      22.050  46.906  49.500  1.00  0.00     0.163 HD
BRANCH  20  23
HETATM   23  C   UNL     1      20.036  49.520  49.005  1.00  0.00     0.065 A 
HETATM   24  C   UNL     1      19.688  49.940  47.715  1.00  0.00     0.084 A 
HETATM   25  C   UNL     1      19.228  51.239  47.499  1.00  0.00     0.038 A 
HETATM   26  C   UNL     1      19.155  52.132  48.569  1.00  0.00     0.003 A 
HETATM   27  C   UNL     1      19.539  51.727  49.850  1.00  0.00     0.001 A 
HETATM   28  C   UNL     1      19.988  50.423  50.070  1.00  0.00     0.020 A 
BRANCH  24  29
HETATM   29  O   UNL     1      19.704  49.062  46.662  1.00  0.00    -0.355 OA
HETATM   30  C   UNL     1      18.367  48.857  46.186  1.00  0.00     0.210 C 
ENDBRANCH  24  29
ENDBRANCH  20  23
ENDBRANCH  18  19
ENDBRANCH   2  18
TORSDOF 6
ENDMDL
MODEL 10
REMARK VINA RESULT:      -8.1      3.581      5.495
REMARK  6 active torsions:
REMARK  status: ('A' for Active; 'I' for Inactive)
REMARK    1  A    between atoms: C_7  and  C_8 
REMARK    2  A    between atoms: N_9  and  N_10 
REMARK       I    between atoms: N_10  and  C_11 
REMARK    3  A    between atoms: C_11  and  C_12 
REMARK    4  A    between atoms: C_12  and  N_13 
REMARK       I    between atoms: N_13  and  C_14 
REMARK    5  A    between atoms: C_14  and  C_15 
REMARK    6  A    between atoms: C_16  and  O_17 
ROOT
HETATM    1  N   UNL     1      21.009  45.398  48.795  1.00  0.00    -0.246 N 
HETATM    2  C   UNL     1      21.041  46.781  48.735  1.00  0.00     0.255 C 
HETATM    3  O   UNL     1      22.071  47.457  48.696  1.00  0.00    -0.270 OA
HETATM    4  H   UNL     1      20.127  44.898  48.870  1.00  0.00     0.192 HD
ENDROOT
BRANCH   1   5
HETATM    5  N   UNL     1      22.187  44.713  48.845  1.00  0.00    -0.184 NA
HETATM    6  C   UNL     1      22.382  43.970  49.886  1.00  0.00     0.153 C 
BRANCH   6   7
HETATM    7  C   UNL     1      23.632  43.243  50.020  1.00  0.00     0.018 A 
HETATM    8  C   UNL     1      24.031  42.128  49.291  1.00  0.00     0.018 A 
HETATM    9  C   UNL     1      23.341  41.360  48.218  1.00  0.00     0.069 C 
HETATM   10  N   UNL     1      25.285  41.773  49.720  1.00  0.00    -0.358 N 
HETATM   11  H   UNL     1      25.822  40.999  49.359  1.00  0.00     0.166 HD
HETATM   12  C   UNL     1      25.722  42.628  50.703  1.00  0.00     0.043 A 
HETATM   13  C   UNL     1      24.705  43.558  50.920  1.00  0.00     0.004 A 
HETATM   14  C   UNL     1      26.934  42.647  51.401  1.00  0.00     0.030 A 
HETATM   15  C   UNL     1      24.918  44.564  51.888  1.00  0.00     0.014 A 
HETATM   16  C   UNL     1      26.127  44.600  52.595  1.00  0.00     0.001 A 
HETATM   17  C   UNL     1      27.119  43.653  52.353  1.00  0.00     0.002 A 
ENDBRANCH   6   7
ENDBRANCH   1   5
BRANCH   2  18
HETATM   18  C   UNL     1      19.685  47.459  48.930  1.00  0.00     0.227 C 
BRANCH  18  19
HETATM   19  N   UNL     1      19.322  47.814  50.296  1.00  0.00    -0.348 N 
HETATM   20  C   UNL     1      18.844  48.989  50.811  1.00  0.00     0.254 C 
HETATM   21  O   UNL     1      18.512  49.053  51.990  1.00  0.00    -0.268 OA
HETATM   22  H   UNL     1      19.370  47.074  50.989  1.00  0.00     0.163 HD
BRANCH  20  23
HETATM   23  C   UNL     1      18.779  50.194  49.964  1.00  0.00     0.065 A 
HETATM   24  C   UNL     1      19.953  50.902  49.683  1.00  0.00     0.084 A 
HETATM   25  C   UNL     1      19.914  52.037  48.875  1.00  0.00     0.038 A 
HETATM   26  C   UNL     1      18.689  52.490  48.381  1.00  0.00     0.003 A 
HETATM   27  C   UNL     1      17.510  51.808  48.692  1.00  0.00     0.001 A 
HETATM   28  C   UNL     1      17.551  50.663  49.491  1.00  0.00     0.020 A 
BRANCH  24  29
HETATM   29  O   UNL     1      21.171  50.443  50.117  1.00  0.00    -0.355 OA
HETATM   30  C   UNL     1      22.189  50.823  49.182  1.00  0.00     0.210 C 
ENDBRANCH  24  29
ENDBRANCH  20  23
ENDBRANCH  18  19
ENDBRANCH   2  18
TORSDOF 6
ENDMDL
