MODEL 1
REMARK VINA RESULT:      -8.6      0.000      0.000
REMARK  8 active torsions:
REMARK  status: ('A' for Active; 'I' for Inactive)
REMARK    1  A    between atoms: C_2  and  C_3 
REMARK    2  A    between atoms: C_3  and  O_4 
REMARK    3  A    between atoms: O_4  and  C_5 
REMARK    4  A    between atoms: C_8  and  C_9 
REMARK    5  A    between atoms: C_13  and  C_14 
REMARK       I    between atoms: C_14  and  N_15 
REMARK    6  A    between atoms: N_15  and  N_16 
REMARK    7  A    between atoms: C_17  and  C_18 
REMARK    8  A    between atoms: C_21  and  O_22 
ROOT
HETATM    1  C   UNL     1      25.960  45.854  52.076  1.00  0.00     0.089 A 
HETATM    2  N   UNL     1      24.987  45.059  51.604  1.00  0.00    -0.174 NA
HETATM    3  N   UNL     1      24.272  45.846  50.787  1.00  0.00    -0.272 N 
HETATM    4  H   UNL     1      23.466  45.457  50.306  1.00  0.00     0.189 HD
HETATM    5  C   UNL     1      24.749  47.122  50.676  1.00  0.00     0.121 A 
HETATM    6  C   UNL     1      25.840  47.161  51.522  1.00  0.00     0.071 A 
ENDROOT
BRANCH   5   7
HETATM    7  C   UNL     1      24.122  48.080  49.799  1.00  0.00     0.289 C 
HETATM    8  N   UNL     1      22.764  47.879  49.603  1.00  0.00    -0.242 N 
HETATM    9  H   UNL     1      22.289  47.111  50.056  1.00  0.00     0.192 HD
HETATM   10  O   UNL     1      24.769  48.993  49.294  1.00  0.00    -0.264 OA
BRANCH   8  11
HETATM   11  N   UNL     1      22.041  48.750  48.840  1.00  0.00    -0.184 NA
HETATM   12  C   UNL     1      20.842  48.999  49.259  1.00  0.00     0.150 C 
BRANCH  12  13
HETATM   13  C   UNL     1      19.947  49.931  48.545  1.00  0.00    -0.017 A 
HETATM   14  C   UNL     1      19.064  49.469  47.568  1.00  0.00     0.016 A 
HETATM   15  C   UNL     1      18.228  50.373  46.910  1.00  0.00     0.037 A 
HETATM   16  C   UNL     1      18.261  51.735  47.225  1.00  0.00     0.068 A 
HETATM   17  C   UNL     1      19.151  52.192  48.199  1.00  0.00     0.037 A 
HETATM   18  C   UNL     1      19.996  51.291  48.859  1.00  0.00     0.016 A 
BRANCH  16  19
HETATM   19  O   UNL     1      17.386  52.507  46.511  1.00  0.00    -0.356 OA
HETATM   20  C   UNL     1      17.312  52.270  45.111  1.00  0.00     0.210 C 
ENDBRANCH  16  19
ENDBRANCH  12  13
ENDBRANCH   8  11
ENDBRANCH   5   7
BRANCH   1  21
HETATM   21  C   UNL     1      26.983  45.357  52.999  1.00  0.00    -0.005 A 
HETATM   22  C   UNL     1      27.744  44.226  52.672  1.00  0.00     0.016 A 
HETATM   23  C   UNL     1      28.757  43.766  53.525  1.00  0.00     0.037 A 
HETATM   24  C   UNL     1      29.019  44.431  54.721  1.00  0.00     0.068 A 
HETATM   25  C   UNL     1      28.246  45.540  55.067  1.00  0.00     0.037 A 
HETATM   26  C   UNL     1      27.238  46.005  54.214  1.00  0.00     0.016 A 
BRANCH  24  27
HETATM   27  O   UNL     1      29.982  44.098  55.632  1.00  0.00    -0.351 OA
BRANCH  27  28
HETATM   28  C   UNL     1      30.344  45.100  56.582  1.00  0.00     0.175 C 
BRANCH  28  29
HETATM   29  C   UNL     1      31.201  44.436  57.656  1.00  0.00     0.022 C 
HETATM   30  C   UNL     1      31.771  43.110  57.185  1.00  0.00     0.007 C 
ENDBRANCH  28  29
ENDBRANCH  27  28
ENDBRANCH  24  27
ENDBRANCH   1  21
TORSDOF 8
ENDMDL
MODEL 2
REMARK VINA RESULT:      -8.3      1.954      2.603
REMARK  8 active torsions:
REMARK  status: ('A' for Active; 'I' for Inactive)
REMARK    1  A    between atoms: C_2  and  C_3 
REMARK    2  A    between atoms: C_3  and  O_4 
REMARK    3  A    between atoms: O_4  and  C_5 
REMARK    4  A    between atoms: C_8  and  C_9 
REMARK    5  A    between atoms: C_13  and  C_14 
REMARK       I    between atoms: C_14  and  N_15 
REMARK    6  A    between atoms: N_15  and  N_16 
REMARK    7  A    between atoms: C_17  and  C_18 
REMARK    8  A    between atoms: C_21  and  O_22 
ROOT
HETATM    1  C   UNL     1      25.745  46.815  50.519  1.00  0.00     0.089 A 
HETATM    2  N   UNL     1      26.393  47.878  50.019  1.00  0.00    -0.174 NA
HETATM    3  N   UNL     1      25.456  48.562  49.347  1.00  0.00    -0.272 N 
HETATM    4  H   UNL     1      25.717  49.422  48.871  1.00  0.00     0.189 HD
HETATM    5  C   UNL     1      24.207  48.010  49.405  1.00  0.00     0.121 A 
HETATM    6  C   UNL     1      24.370  46.858  50.149  1.00  0.00     0.071 A 
ENDROOT
BRANCH   5   7
HETATM    7  C   UNL     1      23.079  48.649  48.774  1.00  0.00     0.289 C 
HETATM    8  N   UNL     1      21.903  48.597  49.508  1.00  0.00    -0.242 N 
HETATM    9  H   UNL     1      21.880  48.138  50.407  1.00  0.00     0.192 HD
HETATM   10  O   UNL     1      23.191  49.195  47.680  1.00  0.00    -0.264 OA
BRANCH   8  11
HETATM   11  N   UNL     1      20.775  49.214  49.048  1.00  0.00    -0.184 NA
HETATM   12  C   UNL     1      20.067  49.824  49.943  1.00  0.00     0.150 C 
BRANCH  12  13
HETATM   13  C   UNL     1      18.828  50.546  49.594  1.00  0.00    -0.017 A 
HETATM   14  C   UNL     1      18.704  51.915  49.834  1.00  0.00     0.016 A 
HETATM   15  C   UNL     1      17.520  52.572  49.492  1.00  0.00     0.037 A 
HETATM   16  C   UNL     1      16.460  51.873  48.905  1.00  0.00     0.068 A 
HETATM   17  C   UNL     1      16.588  50.502  48.674  1.00  0.00     0.037 A 
HETATM   18  C   UNL     1      17.771  49.837  49.018  1.00  0.00     0.016 A 
BRANCH  16  19
HETATM   19  O   UNL     1      15.364  52.637  48.615  1.00  0.00    -0.356 OA
HETATM   20  C   UNL     1      14.654  53.191  49.716  1.00  0.00     0.210 C 
ENDBRANCH  16  19
ENDBRANCH  12  13
ENDBRANCH   8  11
ENDBRANCH   5   7
BRANCH   1  21
HETATM   21  C   UNL     1      26.423  45.818  51.350  1.00  0.00    -0.005 A 
HETATM   22  C   UNL     1      27.049  44.711  50.760  1.00  0.00     0.016 A 
HETATM   23  C   UNL     1      27.740  43.772  51.538  1.00  0.00     0.037 A 
HETATM   24  C   UNL     1      27.811  43.927  52.921  1.00  0.00     0.068 A 
HETATM   25  C   UNL     1      27.166  45.011  53.518  1.00  0.00     0.037 A 
HETATM   26  C   UNL     1      26.480  45.952  52.743  1.00  0.00     0.016 A 
BRANCH  24  27
HETATM   27  O   UNL     1      28.461  43.097  53.791  1.00  0.00    -0.351 OA
BRANCH  27  28
HETATM   28  C   UNL     1      29.889  43.123  53.761  1.00  0.00     0.175 C 
BRANCH  28  29
HETATM   29  C   UNL     1      30.385  43.148  55.204  1.00  0.00     0.022 C 
HETATM   30  C   UNL     1      30.349  44.548  55.790  1.00  0.00     0.007 C 
ENDBRANCH  28  29
ENDBRANCH  27  28
ENDBRANCH  24  27
ENDBRANCH   1  21
TORSDOF 8
ENDMDL
MODEL 3
REMARK VINA RESULT:      -8.1      1.629     12.090
REMARK  8 active torsions:
REMARK  status: ('A' for Active; 'I' for Inactive)
REMARK    1  A    between atoms: C_2  and  C_3 
REMARK    2  A    between atoms: C_3  and  O_4 
REMARK    3  A    between atoms: O_4  and  C_5 
REMARK    4  A    between atoms: C_8  and  C_9 
REMARK    5  A    between atoms: C_13  and  C_14 
REMARK       I    between atoms: C_14  and  N_15 
REMARK    6  A    between atoms: N_15  and  N_16 
REMARK    7  A    between atoms: C_17  and  C_18 
REMARK    8  A    between atoms: C_21  and  O_22 
ROOT
HETATM    1  C   UNL     1      22.801  47.847  49.039  1.00  0.00     0.089 A 
HETATM    2  N   UNL     1      22.559  46.585  48.653  1.00  0.00    -0.174 NA
HETATM    3  N   UNL     1      23.654  45.902  49.019  1.00  0.00    -0.272 N 
HETATM    4  H   UNL     1      23.704  44.906  48.824  1.00  0.00     0.189 HD
HETATM    5  C   UNL     1      24.598  46.655  49.659  1.00  0.00     0.121 A 
HETATM    6  C   UNL     1      24.075  47.934  49.669  1.00  0.00     0.071 A 
ENDROOT
BRANCH   5   7
HETATM    7  C   UNL     1      25.813  46.061  50.160  1.00  0.00     0.289 C 
HETATM    8  N   UNL     1      25.758  45.674  51.490  1.00  0.00    -0.242 N 
HETATM    9  H   UNL     1      24.917  45.813  52.030  1.00  0.00     0.192 HD
HETATM   10  O   UNL     1      26.793  45.917  49.434  1.00  0.00    -0.264 OA
BRANCH   8  11
HETATM   11  N   UNL     1      26.824  45.047  52.070  1.00  0.00    -0.184 NA
HETATM   12  C   UNL     1      27.073  45.385  53.294  1.00  0.00     0.150 C 
BRANCH  12  13
HETATM   13  C   UNL     1      28.185  44.783  54.056  1.00  0.00    -0.017 A 
HETATM   14  C   UNL     1      28.648  43.501  53.757  1.00  0.00     0.016 A 
HETATM   15  C   UNL     1      29.703  42.959  54.494  1.00  0.00     0.037 A 
HETATM   16  C   UNL     1      30.304  43.689  55.523  1.00  0.00     0.068 A 
HETATM   17  C   UNL     1      29.832  44.969  55.821  1.00  0.00     0.037 A 
HETATM   18  C   UNL     1      28.772  45.517  55.090  1.00  0.00     0.016 A 
BRANCH  16  19
HETATM   19  O   UNL     1      31.329  43.043  56.158  1.00  0.00    -0.356 OA
HETATM   20  C   UNL     1      31.834  43.645  57.343  1.00  0.00     0.210 C 
ENDBRANCH  16  19
ENDBRANCH  12  13
ENDBRANCH   8  11
ENDBRANCH   5   7
BRANCH   1  21
HETATM   21  C   UNL     1      21.821  48.917  48.837  1.00  0.00    -0.005 A 
HETATM   22  C   UNL     1      22.166  50.252  49.094  1.00  0.00     0.016 A 
HETATM   23  C   UNL     1      21.254  51.290  48.862  1.00  0.00     0.037 A 
HETATM   24  C   UNL     1      19.981  51.007  48.373  1.00  0.00     0.068 A 
HETATM   25  C   UNL     1      19.621  49.678  48.141  1.00  0.00     0.037 A 
HETATM   26  C   UNL     1      20.532  48.639  48.367  1.00  0.00     0.016 A 
BRANCH  24  27
HETATM   27  O   UNL     1      19.006  51.922  48.091  1.00  0.00    -0.351 OA
BRANCH  27  28
HETATM   28  C   UNL     1      18.225  52.392  49.190  1.00  0.00     0.175 C 
BRANCH  28  29
HETATM   29  C   UNL     1      16.771  52.464  48.733  1.00  0.00     0.022 C 
HETATM   30  C   UNL     1      16.121  51.092  48.699  1.00  0.00     0.007 C 
ENDBRANCH  28  29
ENDBRANCH  27  28
ENDBRANCH  24  27
ENDBRANCH   1  21
TORSDOF 8
ENDMDL
MODEL 4
REMARK VINA RESULT:      -8.0      1.244     12.422
REMARK  8 active torsions:
REMARK  status: ('A' for Active; 'I' for Inactive)
REMARK    1  A    between atoms: C_2  and  C_3 
REMARK    2  A    between atoms: C_3  and  O_4 
REMARK    3  A    between atoms: O_4  and  C_5 
REMARK    4  A    between atoms: C_8  and  C_9 
REMARK    5  A    between atoms: C_13  and  C_14 
REMARK       I    between atoms: C_14  and  N_15 
REMARK    6  A    between atoms: N_15  and  N_16 
REMARK    7  A    between atoms: C_17  and  C_18 
REMARK    8  A    between atoms: C_21  and  O_22 
ROOT
HETATM    1  C   UNL     1      21.935  48.831  48.784  1.00  0.00     0.089 A 
HETATM    2  N   UNL     1      21.798  47.499  48.694  1.00  0.00    -0.174 NA
HETATM    3  N   UNL     1      22.939  47.006  49.197  1.00  0.00    -0.272 N 
HETATM    4  H   UNL     1      23.070  45.999  49.232  1.00  0.00     0.189 HD
HETATM    5  C   UNL     1      23.814  47.956  49.643  1.00  0.00     0.121 A 
HETATM    6  C   UNL     1      23.192  49.158  49.369  1.00  0.00     0.071 A 
ENDROOT
BRANCH   5   7
HETATM    7  C   UNL     1      25.067  47.589  50.257  1.00  0.00     0.289 C 
HETATM    8  N   UNL     1      24.955  46.667  51.286  1.00  0.00    -0.242 N 
HETATM    9  H   UNL     1      24.051  46.305  51.555  1.00  0.00     0.192 HD
HETATM   10  O   UNL     1      26.127  48.068  49.865  1.00  0.00    -0.264 OA
BRANCH   8  11
HETATM   11  N   UNL     1      26.072  46.194  51.912  1.00  0.00    -0.184 NA
HETATM   12  C   UNL     1      26.132  46.409  53.187  1.00  0.00     0.150 C 
BRANCH  12  13
HETATM   13  C   UNL     1      27.274  45.945  54.001  1.00  0.00    -0.017 A 
HETATM   14  C   UNL     1      27.835  46.765  54.981  1.00  0.00     0.016 A 
HETATM   15  C   UNL     1      28.913  46.298  55.736  1.00  0.00     0.037 A 
HETATM   16  C   UNL     1      29.431  45.017  55.525  1.00  0.00     0.068 A 
HETATM   17  C   UNL     1      28.868  44.204  54.539  1.00  0.00     0.037 A 
HETATM   18  C   UNL     1      27.790  44.667  53.775  1.00  0.00     0.016 A 
BRANCH  16  19
HETATM   19  O   UNL     1      30.480  44.685  56.337  1.00  0.00    -0.356 OA
HETATM   20  C   UNL     1      31.052  43.395  56.156  1.00  0.00     0.210 C 
ENDBRANCH  16  19
ENDBRANCH  12  13
ENDBRANCH   8  11
ENDBRANCH   5   7
BRANCH   1  21
HETATM   21  C   UNL     1      20.877  49.747  48.352  1.00  0.00    -0.005 A 
HETATM   22  C   UNL     1      19.917  49.332  47.418  1.00  0.00     0.016 A 
HETATM   23  C   UNL     1      18.873  50.181  47.029  1.00  0.00     0.037 A 
HETATM   24  C   UNL     1      18.776  51.462  47.569  1.00  0.00     0.068 A 
HETATM   25  C   UNL     1      19.743  51.893  48.478  1.00  0.00     0.037 A 
HETATM   26  C   UNL     1      20.785  51.044  48.872  1.00  0.00     0.016 A 
BRANCH  24  27
HETATM   27  O   UNL     1      17.804  52.382  47.288  1.00  0.00    -0.351 OA
BRANCH  27  28
HETATM   28  C   UNL     1      16.936  52.088  46.193  1.00  0.00     0.175 C 
BRANCH  28  29
HETATM   29  C   UNL     1      15.507  52.384  46.639  1.00  0.00     0.022 C 
HETATM   30  C   UNL     1      14.852  53.445  45.771  1.00  0.00     0.007 C 
ENDBRANCH  28  29
ENDBRANCH  27  28
ENDBRANCH  24  27
ENDBRANCH   1  21
TORSDOF 8
ENDMDL
MODEL 5
REMARK VINA RESULT:      -7.6      8.866     12.735
REMARK  8 active torsions:
REMARK  status: ('A' for Active; 'I' for Inactive)
REMARK    1  A    between atoms: C_2  and  C_3 
REMARK    2  A    between atoms: C_3  and  O_4 
REMARK    3  A    between atoms: O_4  and  C_5 
REMARK    4  A    between atoms: C_8  and  C_9 
REMARK    5  A    between atoms: C_13  and  C_14 
REMARK       I    between atoms: C_14  and  N_15 
REMARK    6  A    between atoms: N_15  and  N_16 
REMARK    7  A    between atoms: C_17  and  C_18 
REMARK    8  A    between atoms: C_21  and  O_22 
ROOT
HETATM    1  C   UNL     1      27.859  38.938  47.994  1.00  0.00     0.089 A 
HETATM    2  N   UNL     1      27.023  38.176  48.714  1.00  0.00    -0.174 NA
HETATM    3  N   UNL     1      26.961  38.777  49.911  1.00  0.00    -0.272 N 
HETATM    4  H   UNL     1      26.379  38.372  50.639  1.00  0.00     0.189 HD
HETATM    5  C   UNL     1      27.701  39.923  50.004  1.00  0.00     0.121 A 
HETATM    6  C   UNL     1      28.313  40.042  48.771  1.00  0.00     0.071 A 
ENDROOT
BRANCH   5   7
HETATM    7  C   UNL     1      27.704  40.714  51.209  1.00  0.00     0.289 C 
HETATM    8  N   UNL     1      28.847  40.583  51.982  1.00  0.00    -0.242 N 
HETATM    9  H   UNL     1      29.596  39.972  51.689  1.00  0.00     0.192 HD
HETATM   10  O   UNL     1      26.755  41.442  51.490  1.00  0.00    -0.264 OA
BRANCH   8  11
HETATM   11  N   UNL     1      28.999  41.323  53.120  1.00  0.00    -0.184 NA
HETATM   12  C   UNL     1      29.478  42.514  52.953  1.00  0.00     0.150 C 
BRANCH  12  13
HETATM   13  C   UNL     1      29.686  43.434  54.088  1.00  0.00    -0.017 A 
HETATM   14  C   UNL     1      30.798  43.304  54.921  1.00  0.00     0.016 A 
HETATM   15  C   UNL     1      30.969  44.191  55.987  1.00  0.00     0.037 A 
HETATM   16  C   UNL     1      30.042  45.211  56.223  1.00  0.00     0.068 A 
HETATM   17  C   UNL     1      28.928  45.331  55.389  1.00  0.00     0.037 A 
HETATM   18  C   UNL     1      28.748  44.443  54.322  1.00  0.00     0.016 A 
BRANCH  16  19
HETATM   19  O   UNL     1      30.334  46.010  57.293  1.00  0.00    -0.356 OA
HETATM   20  C   UNL     1      30.364  45.389  58.572  1.00  0.00     0.210 C 
ENDBRANCH  16  19
ENDBRANCH  12  13
ENDBRANCH   8  11
ENDBRANCH   5   7
BRANCH   1  21
HETATM   21  C   UNL     1      28.179  38.628  46.598  1.00  0.00    -0.005 A 
HETATM   22  C   UNL     1      27.828  39.520  45.575  1.00  0.00     0.016 A 
HETATM   23  C   UNL     1      28.166  39.258  44.241  1.00  0.00     0.037 A 
HETATM   24  C   UNL     1      28.859  38.095  43.911  1.00  0.00     0.068 A 
HETATM   25  C   UNL     1      29.187  37.189  44.920  1.00  0.00     0.037 A 
HETATM   26  C   UNL     1      28.854  37.451  46.254  1.00  0.00     0.016 A 
BRANCH  24  27
HETATM   27  O   UNL     1      29.261  37.727  42.658  1.00  0.00    -0.351 OA
BRANCH  27  28
HETATM   28  C   UNL     1      29.853  38.742  41.846  1.00  0.00     0.175 C 
BRANCH  28  29
HETATM   29  C   UNL     1      31.243  39.034  42.404  1.00  0.00     0.022 C 
HETATM   30  C   UNL     1      32.328  38.317  41.621  1.00  0.00     0.007 C 
ENDBRANCH  28  29
ENDBRANCH  27  28
ENDBRANCH  24  27
ENDBRANCH   1  21
TORSDOF 8
ENDMDL
MODEL 6
REMARK VINA RESULT:      -7.4      2.640      3.488
REMARK  8 active torsions:
REMARK  status: ('A' for Active; 'I' for Inactive)
REMARK    1  A    between atoms: C_2  and  C_3 
REMARK    2  A    between atoms: C_3  and  O_4 
REMARK    3  A    between atoms: O_4  and  C_5 
REMARK    4  A    between atoms: C_8  and  C_9 
REMARK    5  A    between atoms: C_13  and  C_14 
REMARK       I    between atoms: C_14  and  N_15 
REMARK    6  A    between atoms: N_15  and  N_16 
REMARK    7  A    between atoms: C_17  and  C_18 
REMARK    8  A    between atoms: C_21  and  O_22 
ROOT
HETATM    1  C   UNL     1      24.594  46.712  50.058  1.00  0.00     0.089 A 
HETATM    2  N   UNL     1      24.765  47.994  50.413  1.00  0.00    -0.174 NA
HETATM    3  N   UNL     1      23.718  48.638  49.876  1.00  0.00    -0.272 N 
HETATM    4  H   UNL     1      23.631  49.641  50.011  1.00  0.00     0.189 HD
HETATM    5  C   UNL     1      22.845  47.828  49.204  1.00  0.00     0.121 A 
HETATM    6  C   UNL     1      23.402  46.568  49.291  1.00  0.00     0.071 A 
ENDROOT
BRANCH   5   7
HETATM    7  C   UNL     1      21.642  48.358  48.610  1.00  0.00     0.289 C 
HETATM    8  N   UNL     1      20.815  49.037  49.492  1.00  0.00    -0.242 N 
HETATM    9  H   UNL     1      21.071  49.132  50.464  1.00  0.00     0.192 HD
HETATM   10  O   UNL     1      21.408  48.207  47.414  1.00  0.00    -0.264 OA
BRANCH   8  11
HETATM   11  N   UNL     1      19.673  49.635  49.044  1.00  0.00    -0.184 NA
HETATM   12  C   UNL     1      19.122  50.474  49.862  1.00  0.00     0.150 C 
BRANCH  12  13
HETATM   13  C   UNL     1      17.889  51.206  49.512  1.00  0.00    -0.017 A 
HETATM   14  C   UNL     1      16.908  50.618  48.714  1.00  0.00     0.016 A 
HETATM   15  C   UNL     1      15.751  51.336  48.401  1.00  0.00     0.037 A 
HETATM   16  C   UNL     1      15.564  52.634  48.884  1.00  0.00     0.068 A 
HETATM   17  C   UNL     1      16.553  53.219  49.678  1.00  0.00     0.037 A 
HETATM   18  C   UNL     1      17.717  52.507  49.992  1.00  0.00     0.016 A 
BRANCH  16  19
HETATM   19  O   UNL     1      14.386  53.218  48.508  1.00  0.00    -0.356 OA
HETATM   20  C   UNL     1      13.920  54.300  49.305  1.00  0.00     0.210 C 
ENDBRANCH  16  19
ENDBRANCH  12  13
ENDBRANCH   8  11
ENDBRANCH   5   7
BRANCH   1  21
HETATM   21  C   UNL     1      25.529  45.664  50.474  1.00  0.00    -0.005 A 
HETATM   22  C   UNL     1      26.052  44.765  49.533  1.00  0.00     0.016 A 
HETATM   23  C   UNL     1      26.982  43.787  49.908  1.00  0.00     0.037 A 
HETATM   24  C   UNL     1      27.400  43.692  51.234  1.00  0.00     0.068 A 
HETATM   25  C   UNL     1      26.863  44.564  52.181  1.00  0.00     0.037 A 
HETATM   26  C   UNL     1      25.938  45.546  51.808  1.00  0.00     0.016 A 
BRANCH  24  27
HETATM   27  O   UNL     1      28.308  42.797  51.729  1.00  0.00    -0.351 OA
BRANCH  27  28
HETATM   28  C   UNL     1      27.969  42.146  52.953  1.00  0.00     0.175 C 
BRANCH  28  29
HETATM   29  C   UNL     1      29.052  42.481  53.975  1.00  0.00     0.022 C 
HETATM   30  C   UNL     1      30.385  42.775  53.310  1.00  0.00     0.007 C 
ENDBRANCH  28  29
ENDBRANCH  27  28
ENDBRANCH  24  27
ENDBRANCH   1  21
TORSDOF 8
ENDMDL
MODEL 7
REMARK VINA RESULT:      -7.2     19.469     21.319
REMARK  8 active torsions:
REMARK  status: ('A' for Active; 'I' for Inactive)
REMARK    1  A    between atoms: C_2  and  C_3 
REMARK    2  A    between atoms: C_3  and  O_4 
REMARK    3  A    between atoms: O_4  and  C_5 
REMARK    4  A    between atoms: C_8  and  C_9 
REMARK    5  A    between atoms: C_13  and  C_14 
REMARK       I    between atoms: C_14  and  N_15 
REMARK    6  A    between atoms: N_15  and  N_16 
REMARK    7  A    between atoms: C_17  and  C_18 
REMARK    8  A    between atoms: C_21  and  O_22 
ROOT
HETATM    1  C   UNL     1      38.962  42.886  63.536  1.00  0.00     0.089 A 
HETATM    2  N   UNL     1      39.287  43.662  62.491  1.00  0.00    -0.174 NA
HETATM    3  N   UNL     1      38.680  44.832  62.735  1.00  0.00    -0.272 N 
HETATM    4  H   UNL     1      38.781  45.591  62.066  1.00  0.00     0.189 HD
HETATM    5  C   UNL     1      37.990  44.873  63.914  1.00  0.00     0.121 A 
HETATM    6  C   UNL     1      38.141  43.609  64.449  1.00  0.00     0.071 A 
ENDROOT
BRANCH   5   7
HETATM    7  C   UNL     1      37.322  46.075  64.347  1.00  0.00     0.289 C 
HETATM    8  N   UNL     1      37.965  46.755  65.370  1.00  0.00    -0.242 N 
HETATM    9  H   UNL     1      38.830  46.403  65.755  1.00  0.00     0.192 HD
HETATM   10  O   UNL     1      36.274  46.441  63.821  1.00  0.00    -0.264 OA
BRANCH   8  11
HETATM   11  N   UNL     1      37.465  47.938  65.833  1.00  0.00    -0.184 NA
HETATM   12  C   UNL     1      38.327  48.734  66.379  1.00  0.00     0.150 C 
BRANCH  12  13
HETATM   13  C   UNL     1      37.937  50.054  66.914  1.00  0.00    -0.017 A 
HETATM   14  C   UNL     1      37.376  50.175  68.185  1.00  0.00     0.016 A 
HETATM   15  C   UNL     1      37.019  51.437  68.664  1.00  0.00     0.037 A 
HETATM   16  C   UNL     1      37.224  52.581  67.887  1.00  0.00     0.068 A 
HETATM   17  C   UNL     1      37.781  52.451  66.612  1.00  0.00     0.037 A 
HETATM   18  C   UNL     1      38.137  51.189  66.124  1.00  0.00     0.016 A 
BRANCH  16  19
HETATM   19  O   UNL     1      36.836  53.750  68.479  1.00  0.00    -0.356 OA
HETATM   20  C   UNL     1      35.897  53.654  69.542  1.00  0.00     0.210 C 
ENDBRANCH  16  19
ENDBRANCH  12  13
ENDBRANCH   8  11
ENDBRANCH   5   7
BRANCH   1  21
HETATM   21  C   UNL     1      39.455  41.512  63.661  1.00  0.00    -0.005 A 
HETATM   22  C   UNL     1      39.220  40.579  62.641  1.00  0.00     0.016 A 
HETATM   23  C   UNL     1      39.724  39.274  62.726  1.00  0.00     0.037 A 
HETATM   24  C   UNL     1      40.467  38.883  63.837  1.00  0.00     0.068 A 
HETATM   25  C   UNL     1      40.681  39.797  64.870  1.00  0.00     0.037 A 
HETATM   26  C   UNL     1      40.183  41.103  64.785  1.00  0.00     0.016 A 
BRANCH  24  27
HETATM   27  O   UNL     1      41.026  37.652  64.039  1.00  0.00    -0.351 OA
BRANCH  27  28
HETATM   28  C   UNL     1      42.358  37.625  64.551  1.00  0.00     0.175 C 
BRANCH  28  29
HETATM   29  C   UNL     1      42.469  36.435  65.500  1.00  0.00     0.022 C 
HETATM   30  C   UNL     1      41.106  35.877  65.868  1.00  0.00     0.007 C 
ENDBRANCH  28  29
ENDBRANCH  27  28
ENDBRANCH  24  27
ENDBRANCH   1  21
TORSDOF 8
ENDMDL
MODEL 8
REMARK VINA RESULT:      -7.2      2.185     12.408
REMARK  8 active torsions:
REMARK  status: ('A' for Active; 'I' for Inactive)
REMARK    1  A    between atoms: C_2  and  C_3 
REMARK    2  A    between atoms: C_3  and  O_4 
REMARK    3  A    between atoms: O_4  and  C_5 
REMARK    4  A    between atoms: C_8  and  C_9 
REMARK    5  A    between atoms: C_13  and  C_14 
REMARK       I    between atoms: C_14  and  N_15 
REMARK    6  A    between atoms: N_15  and  N_16 
REMARK    7  A    between atoms: C_17  and  C_18 
REMARK    8  A    between atoms: C_21  and  O_22 
ROOT
HETATM    1  C   UNL     1      22.490  46.754  48.575  1.00  0.00     0.089 A 
HETATM    2  N   UNL     1      22.943  45.491  48.591  1.00  0.00    -0.174 NA
HETATM    3  N   UNL     1      24.018  45.526  49.392  1.00  0.00    -0.272 N 
HETATM    4  H   UNL     1      24.540  44.670  49.558  1.00  0.00     0.189 HD
HETATM    5  C   UNL     1      24.278  46.755  49.930  1.00  0.00     0.121 A 
HETATM    6  C   UNL     1      23.306  47.580  49.399  1.00  0.00     0.071 A 
ENDROOT
BRANCH   5   7
HETATM    7  C   UNL     1      25.370  46.951  50.852  1.00  0.00     0.289 C 
HETATM    8  N   UNL     1      25.497  45.961  51.813  1.00  0.00    -0.242 N 
HETATM    9  H   UNL     1      24.856  45.181  51.833  1.00  0.00     0.192 HD
HETATM   10  O   UNL     1      26.113  47.924  50.754  1.00  0.00    -0.264 OA
BRANCH   8  11
HETATM   11  N   UNL     1      26.525  45.999  52.710  1.00  0.00    -0.184 NA
HETATM   12  C   UNL     1      27.006  44.848  53.059  1.00  0.00     0.150 C 
BRANCH  12  13
HETATM   13  C   UNL     1      28.128  44.731  54.012  1.00  0.00    -0.017 A 
HETATM   14  C   UNL     1      28.374  45.729  54.956  1.00  0.00     0.016 A 
HETATM   15  C   UNL     1      29.442  45.589  55.845  1.00  0.00     0.037 A 
HETATM   16  C   UNL     1      30.262  44.457  55.803  1.00  0.00     0.068 A 
HETATM   17  C   UNL     1      30.014  43.465  54.852  1.00  0.00     0.037 A 
HETATM   18  C   UNL     1      28.948  43.601  53.954  1.00  0.00     0.016 A 
BRANCH  16  19
HETATM   19  O   UNL     1      31.265  44.445  56.733  1.00  0.00    -0.356 OA
HETATM   20  C   UNL     1      31.740  43.171  57.151  1.00  0.00     0.210 C 
ENDBRANCH  16  19
ENDBRANCH  12  13
ENDBRANCH   8  11
ENDBRANCH   5   7
BRANCH   1  21
HETATM   21  C   UNL     1      21.294  47.135  47.819  1.00  0.00    -0.005 A 
HETATM   22  C   UNL     1      21.029  46.555  46.570  1.00  0.00     0.016 A 
HETATM   23  C   UNL     1      19.868  46.877  45.856  1.00  0.00     0.037 A 
HETATM   24  C   UNL     1      18.955  47.789  46.382  1.00  0.00     0.068 A 
HETATM   25  C   UNL     1      19.225  48.392  47.611  1.00  0.00     0.037 A 
HETATM   26  C   UNL     1      20.382  48.068  48.329  1.00  0.00     0.016 A 
BRANCH  24  27
HETATM   27  O   UNL     1      17.781  48.178  45.799  1.00  0.00    -0.351 OA
BRANCH  27  28
HETATM   28  C   UNL     1      16.576  47.825  46.479  1.00  0.00     0.175 C 
BRANCH  28  29
HETATM   29  C   UNL     1      15.410  48.088  45.529  1.00  0.00     0.022 C 
HETATM   30  C   UNL     1      14.530  49.225  46.016  1.00  0.00     0.007 C 
ENDBRANCH  28  29
ENDBRANCH  27  28
ENDBRANCH  24  27
ENDBRANCH   1  21
TORSDOF 8
ENDMDL
MODEL 9
REMARK VINA RESULT:      -7.1      2.821     12.194
REMARK  8 active torsions:
REMARK  status: ('A' for Active; 'I' for Inactive)
REMARK    1  A    between atoms: C_2  and  C_3 
REMARK    2  A    between atoms: C_3  and  O_4 
REMARK    3  A    between atoms: O_4  and  C_5 
REMARK    4  A    between atoms: C_8  and  C_9 
REMARK    5  A    between atoms: C_13  and  C_14 
REMARK       I    between atoms: C_14  and  N_15 
REMARK    6  A    between atoms: N_15  and  N_16 
REMARK    7  A    between atoms: C_17  and  C_18 
REMARK    8  A    between atoms: C_21  and  O_22 
ROOT
HETATM    1  C   UNL     1      22.375  44.527  48.996  1.00  0.00     0.089 A 
HETATM    2  N   UNL     1      22.171  43.211  48.830  1.00  0.00    -0.174 NA
HETATM    3  N   UNL     1      23.178  42.625  49.494  1.00  0.00    -0.272 N 
HETATM    4  H   UNL     1      23.237  41.610  49.508  1.00  0.00     0.189 HD
HETATM    5  C   UNL     1      24.024  43.498  50.117  1.00  0.00     0.121 A 
HETATM    6  C   UNL     1      23.534  44.748  49.793  1.00  0.00     0.071 A 
ENDROOT
BRANCH   5   7
HETATM    7  C   UNL     1      25.130  43.027  50.913  1.00  0.00     0.289 C 
HETATM    8  N   UNL     1      25.705  43.990  51.729  1.00  0.00    -0.242 N 
HETATM    9  H   UNL     1      25.348  44.935  51.736  1.00  0.00     0.192 HD
HETATM   10  O   UNL     1      25.498  41.857  50.854  1.00  0.00    -0.264 OA
BRANCH   8  11
HETATM   11  N   UNL     1      26.724  43.658  52.574  1.00  0.00    -0.184 NA
HETATM   12  C   UNL     1      27.345  44.655  53.120  1.00  0.00     0.150 C 
BRANCH  12  13
HETATM   13  C   UNL     1      28.460  44.452  54.065  1.00  0.00    -0.017 A 
HETATM   14  C   UNL     1      29.263  43.312  53.994  1.00  0.00     0.016 A 
HETATM   15  C   UNL     1      30.312  43.149  54.902  1.00  0.00     0.037 A 
HETATM   16  C   UNL     1      30.571  44.118  55.876  1.00  0.00     0.068 A 
HETATM   17  C   UNL     1      29.760  45.254  55.945  1.00  0.00     0.037 A 
HETATM   18  C   UNL     1      28.704  45.422  55.042  1.00  0.00     0.016 A 
BRANCH  16  19
HETATM   19  O   UNL     1      31.630  43.837  56.693  1.00  0.00    -0.356 OA
HETATM   20  C   UNL     1      31.571  44.343  58.021  1.00  0.00     0.210 C 
ENDBRANCH  16  19
ENDBRANCH  12  13
ENDBRANCH   8  11
ENDBRANCH   5   7
BRANCH   1  21
HETATM   21  C   UNL     1      21.464  45.526  48.434  1.00  0.00    -0.005 A 
HETATM   22  C   UNL     1      21.969  46.682  47.822  1.00  0.00     0.016 A 
HETATM   23  C   UNL     1      21.112  47.625  47.240  1.00  0.00     0.037 A 
HETATM   24  C   UNL     1      19.733  47.426  47.266  1.00  0.00     0.068 A 
HETATM   25  C   UNL     1      19.221  46.293  47.899  1.00  0.00     0.037 A 
HETATM   26  C   UNL     1      20.075  45.347  48.476  1.00  0.00     0.016 A 
BRANCH  24  27
HETATM   27  O   UNL     1      18.790  48.256  46.726  1.00  0.00    -0.351 OA
BRANCH  27  28
HETATM   28  C   UNL     1      18.854  49.633  47.098  1.00  0.00     0.175 C 
BRANCH  28  29
HETATM   29  C   UNL     1      18.758  50.465  45.823  1.00  0.00     0.022 C 
HETATM   30  C   UNL     1      17.795  51.629  45.978  1.00  0.00     0.007 C 
ENDBRANCH  28  29
ENDBRANCH  27  28
ENDBRANCH  24  27
ENDBRANCH   1  21
TORSDOF 8
ENDMDL
MODEL 10
REMARK VINA RESULT:      -7.1      2.166      2.778
REMARK  8 active torsions:
REMARK  status: ('A' for Active; 'I' for Inactive)
REMARK    1  A    between atoms: C_2  and  C_3 
REMARK    2  A    between atoms: C_3  and  O_4 
REMARK    3  A    between atoms: O_4  and  C_5 
REMARK    4  A    between atoms: C_8  and  C_9 
REMARK    5  A    between atoms: C_13  and  C_14 
REMARK       I    between atoms: C_14  and  N_15 
REMARK    6  A    between atoms: N_15  and  N_16 
REMARK    7  A    between atoms: C_17  and  C_18 
REMARK    8  A    between atoms: C_21  and  O_22 
ROOT
HETATM    1  C   UNL     1      26.066  46.225  52.357  1.00  0.00     0.089 A 
HETATM    2  N   UNL     1      25.336  47.340  52.506  1.00  0.00    -0.174 NA
HETATM    3  N   UNL     1      24.504  47.344  51.454  1.00  0.00    -0.272 N 
HETATM    4  H   UNL     1      23.843  48.109  51.348  1.00  0.00     0.189 HD
HETATM    5  C   UNL     1      24.633  46.261  50.631  1.00  0.00     0.121 A 
HETATM    6  C   UNL     1      25.660  45.522  51.187  1.00  0.00     0.071 A 
ENDROOT
BRANCH   5   7
HETATM    7  C   UNL     1      23.779  46.089  49.482  1.00  0.00     0.289 C 
HETATM    8  N   UNL     1      23.069  47.224  49.118  1.00  0.00    -0.242 N 
HETATM    9  H   UNL     1      23.171  48.082  49.640  1.00  0.00     0.192 HD
HETATM   10  O   UNL     1      23.718  45.013  48.894  1.00  0.00    -0.264 OA
BRANCH   8  11
HETATM   11  N   UNL     1      22.268  47.210  48.013  1.00  0.00    -0.184 NA
HETATM   12  C   UNL     1      21.034  47.546  48.213  1.00  0.00     0.150 C 
BRANCH  12  13
HETATM   13  C   UNL     1      20.051  47.590  47.112  1.00  0.00    -0.017 A 
HETATM   14  C   UNL     1      19.186  48.675  46.966  1.00  0.00     0.016 A 
HETATM   15  C   UNL     1      18.268  48.688  45.913  1.00  0.00     0.037 A 
HETATM   16  C   UNL     1      18.211  47.630  45.001  1.00  0.00     0.068 A 
HETATM   17  C   UNL     1      19.077  46.544  45.157  1.00  0.00     0.037 A 
HETATM   18  C   UNL     1      19.996  46.522  46.212  1.00  0.00     0.016 A 
BRANCH  16  19
HETATM   19  O   UNL     1      17.273  47.774  44.017  1.00  0.00    -0.356 OA
HETATM   20  C   UNL     1      16.315  48.810  44.188  1.00  0.00     0.210 C 
ENDBRANCH  16  19
ENDBRANCH  12  13
ENDBRANCH   8  11
ENDBRANCH   5   7
BRANCH   1  21
HETATM   21  C   UNL     1      27.092  45.838  53.329  1.00  0.00    -0.005 A 
HETATM   22  C   UNL     1      27.449  46.710  54.367  1.00  0.00     0.016 A 
HETATM   23  C   UNL     1      28.396  46.336  55.330  1.00  0.00     0.037 A 
HETATM   24  C   UNL     1      29.003  45.084  55.264  1.00  0.00     0.068 A 
HETATM   25  C   UNL     1      28.674  44.222  54.217  1.00  0.00     0.037 A 
HETATM   26  C   UNL     1      27.725  44.591  53.257  1.00  0.00     0.016 A 
BRANCH  24  27
HETATM   27  O   UNL     1      29.928  44.591  56.142  1.00  0.00    -0.351 OA
BRANCH  27  28
HETATM   28  C   UNL     1      30.233  45.400  57.279  1.00  0.00     0.175 C 
BRANCH  28  29
HETATM   29  C   UNL     1      31.308  44.681  58.088  1.00  0.00     0.022 C 
HETATM   30  C   UNL     1      31.841  43.459  57.361  1.00  0.00     0.007 C 
ENDBRANCH  28  29
ENDBRANCH  27  28
ENDBRANCH  24  27
ENDBRANCH   1  21
TORSDOF 8
ENDMDL
