MODEL 1
REMARK VINA RESULT:      -9.2      0.000      0.000
REMARK  6 active torsions:
REMARK  status: ('A' for Active; 'I' for Inactive)
REMARK    1  A    between atoms: C_2  and  C_3 
REMARK       I    between atoms: C_3  and  N_4 
REMARK    2  A    between atoms: N_4  and  C_5 
REMARK    3  A    between atoms: C_8  and  N_9 
REMARK       I    between atoms: N_9  and  C_10 
REMARK    4  A    between atoms: C_10  and  C_11 
REMARK    5  A    between atoms: C_16  and  C_17 
REMARK    6  A    between atoms: C_23  and  C_24 
ROOT
HETATM    1  C   UNL     1      23.376  48.571  49.125  1.00  0.00     0.148 A 
HETATM    2  N   UNL     1      22.362  47.763  48.736  1.00  0.00    -0.165 NA
HETATM    3  N   UNL     1      21.427  48.629  48.300  1.00  0.00    -0.240 N 
HETATM    4  C   UNL     1      21.852  49.927  48.252  1.00  0.00     0.123 A 
HETATM    5  N   UNL     1      21.091  50.906  47.723  1.00  0.00    -0.364 N 
HETATM    6  C   UNL     1      19.697  50.690  47.333  1.00  0.00     0.143 C 
HETATM    7  C   UNL     1      19.468  49.217  46.947  1.00  0.00     0.068 C 
HETATM    8  C   UNL     1      20.098  48.198  47.913  1.00  0.00     0.221 C 
HETATM    9  C   UNL     1      23.097  49.932  48.819  1.00  0.00     0.089 A 
HETATM   10  H   UNL     1      21.363  51.884  47.818  1.00  0.00     0.162 HD
ENDROOT
BRANCH   1  11
HETATM   11  C   UNL     1      24.596  48.057  49.772  1.00  0.00     0.276 C 
HETATM   12  N   UNL     1      24.365  46.887  50.472  1.00  0.00    -0.322 N 
HETATM   13  H   UNL     1      23.420  46.529  50.367  1.00  0.00     0.169 HD
HETATM   14  O   UNL     1      25.672  48.628  49.641  1.00  0.00    -0.266 OA
BRANCH  12  15
HETATM   15  C   UNL     1      25.276  46.159  51.255  1.00  0.00     0.035 A 
HETATM   16  C   UNL     1      25.402  46.312  52.634  1.00  0.00     0.032 A 
HETATM   17  C   UNL     1      26.311  45.533  53.362  1.00  0.00     0.032 A 
HETATM   18  C   UNL     1      27.126  44.602  52.718  1.00  0.00     0.034 A 
HETATM   19  C   UNL     1      27.010  44.459  51.331  1.00  0.00     0.032 A 
HETATM   20  C   UNL     1      26.081  45.217  50.608  1.00  0.00     0.032 A 
BRANCH  18  21
HETATM   21  N   UNL     1      28.077  43.797  53.377  1.00  0.00    -0.327 N 
HETATM   22  C   UNL     1      28.956  44.182  54.374  1.00  0.00     0.221 C 
HETATM   23  O   UNL     1      29.039  45.297  54.882  1.00  0.00    -0.273 OA
HETATM   24  H   UNL     1      28.085  42.822  53.110  1.00  0.00     0.169 HD
BRANCH  22  25
HETATM   25  C   UNL     1      29.908  43.078  54.804  1.00  0.00     0.098 C 
HETATM   26  C   UNL     1      30.927  43.516  55.840  1.00  0.00     0.014 C 
ENDBRANCH  22  25
ENDBRANCH  18  21
ENDBRANCH  12  15
ENDBRANCH   1  11
BRANCH   8  27
HETATM   27  C   UNL     1      19.270  47.929  49.151  1.00  0.00     0.409 C 
HETATM   28  F   UNL     1      19.605  48.696  50.206  1.00  0.00    -0.169 F 
HETATM   29  F   UNL     1      17.955  48.150  48.896  1.00  0.00    -0.169 F 
HETATM   30  F   UNL     1      19.364  46.638  49.546  1.00  0.00    -0.169 F 
ENDBRANCH   8  27
BRANCH   6  31
HETATM   31  C   UNL     1      18.690  51.215  48.305  1.00  0.00     0.075 A 
HETATM   32  O   UNL     1      17.376  51.021  47.983  1.00  0.00    -0.325 OA
HETATM   33  C   UNL     1      16.636  51.599  48.964  1.00  0.00     0.142 A 
HETATM   34  C   UNL     1      17.452  52.168  49.913  1.00  0.00     0.027 A 
HETATM   35  C   UNL     1      18.779  51.925  49.487  1.00  0.00     0.037 A 
ENDBRANCH   6  31
TORSDOF 6
ENDMDL
MODEL 2
REMARK VINA RESULT:      -8.7      1.465      1.825
REMARK  6 active torsions:
REMARK  status: ('A' for Active; 'I' for Inactive)
REMARK    1  A    between atoms: C_2  and  C_3 
REMARK       I    between atoms: C_3  and  N_4 
REMARK    2  A    between atoms: N_4  and  C_5 
REMARK    3  A    between atoms: C_8  and  N_9 
REMARK       I    between atoms: N_9  and  C_10 
REMARK    4  A    between atoms: C_10  and  C_11 
REMARK    5  A    between atoms: C_16  and  C_17 
REMARK    6  A    between atoms: C_23  and  C_24 
ROOT
HETATM    1  C   UNL     1      22.200  46.830  48.377  1.00  0.00     0.148 A 
HETATM    2  N   UNL     1      20.960  46.565  47.902  1.00  0.00    -0.165 NA
HETATM    3  N   UNL     1      20.461  47.789  47.644  1.00  0.00    -0.240 N 
HETATM    4  C   UNL     1      21.369  48.800  47.785  1.00  0.00     0.123 A 
HETATM    5  N   UNL     1      21.077  50.072  47.446  1.00  0.00    -0.364 N 
HETATM    6  C   UNL     1      19.724  50.494  47.078  1.00  0.00     0.143 C 
HETATM    7  C   UNL     1      18.939  49.316  46.473  1.00  0.00     0.068 C 
HETATM    8  C   UNL     1      19.082  47.990  47.242  1.00  0.00     0.221 C 
HETATM    9  C   UNL     1      22.496  48.220  48.301  1.00  0.00     0.089 A 
HETATM   10  H   UNL     1      21.713  50.832  47.684  1.00  0.00     0.162 HD
ENDROOT
BRANCH   1  11
HETATM   11  C   UNL     1      23.094  45.777  48.890  1.00  0.00     0.276 C 
HETATM   12  N   UNL     1      23.924  46.237  49.895  1.00  0.00    -0.322 N 
HETATM   13  H   UNL     1      23.735  47.196  50.174  1.00  0.00     0.169 HD
HETATM   14  O   UNL     1      23.039  44.632  48.455  1.00  0.00    -0.266 OA
BRANCH  12  15
HETATM   15  C   UNL     1      24.937  45.530  50.564  1.00  0.00     0.035 A 
HETATM   16  C   UNL     1      26.215  45.339  50.044  1.00  0.00     0.032 A 
HETATM   17  C   UNL     1      27.192  44.649  50.776  1.00  0.00     0.032 A 
HETATM   18  C   UNL     1      26.898  44.120  52.032  1.00  0.00     0.034 A 
HETATM   19  C   UNL     1      25.610  44.300  52.548  1.00  0.00     0.032 A 
HETATM   20  C   UNL     1      24.643  45.014  51.829  1.00  0.00     0.032 A 
BRANCH  18  21
HETATM   21  N   UNL     1      27.819  43.398  52.819  1.00  0.00    -0.327 N 
HETATM   22  C   UNL     1      28.597  43.883  53.856  1.00  0.00     0.221 C 
HETATM   23  O   UNL     1      28.597  45.031  54.292  1.00  0.00    -0.273 OA
HETATM   24  H   UNL     1      27.884  42.410  52.620  1.00  0.00     0.169 HD
BRANCH  22  25
HETATM   25  C   UNL     1      29.548  42.849  54.435  1.00  0.00     0.098 C 
HETATM   26  C   UNL     1      30.665  43.445  55.272  1.00  0.00     0.014 C 
ENDBRANCH  22  25
ENDBRANCH  18  21
ENDBRANCH  12  15
ENDBRANCH   1  11
BRANCH   8  27
HETATM   27  C   UNL     1      18.179  47.879  48.451  1.00  0.00     0.409 C 
HETATM   28  F   UNL     1      17.754  46.626  48.699  1.00  0.00    -0.169 F 
HETATM   29  F   UNL     1      18.826  48.312  49.563  1.00  0.00    -0.169 F 
HETATM   30  F   UNL     1      17.080  48.660  48.329  1.00  0.00    -0.169 F 
ENDBRANCH   8  27
BRANCH   6  31
HETATM   31  C   UNL     1      18.981  51.213  48.157  1.00  0.00     0.075 A 
HETATM   32  O   UNL     1      17.718  51.633  47.848  1.00  0.00    -0.325 OA
HETATM   33  C   UNL     1      17.240  52.289  48.937  1.00  0.00     0.142 A 
HETATM   34  C   UNL     1      18.176  52.304  49.942  1.00  0.00     0.027 A 
HETATM   35  C   UNL     1      19.304  51.614  49.439  1.00  0.00     0.037 A 
ENDBRANCH   6  31
TORSDOF 6
ENDMDL
MODEL 3
REMARK VINA RESULT:      -8.6      2.138      2.931
REMARK  6 active torsions:
REMARK  status: ('A' for Active; 'I' for Inactive)
REMARK    1  A    between atoms: C_2  and  C_3 
REMARK       I    between atoms: C_3  and  N_4 
REMARK    2  A    between atoms: N_4  and  C_5 
REMARK    3  A    between atoms: C_8  and  N_9 
REMARK       I    between atoms: N_9  and  C_10 
REMARK    4  A    between atoms: C_10  and  C_11 
REMARK    5  A    between atoms: C_16  and  C_17 
REMARK    6  A    between atoms: C_23  and  C_24 
ROOT
HETATM    1  C   UNL     1      21.767  48.265  48.692  1.00  0.00     0.148 A 
HETATM    2  N   UNL     1      21.035  48.979  49.580  1.00  0.00    -0.165 NA
HETATM    3  N   UNL     1      19.878  49.193  48.925  1.00  0.00    -0.240 N 
HETATM    4  C   UNL     1      19.782  48.527  47.736  1.00  0.00     0.123 A 
HETATM    5  N   UNL     1      18.645  48.525  47.010  1.00  0.00    -0.364 N 
HETATM    6  C   UNL     1      17.502  49.376  47.344  1.00  0.00     0.143 C 
HETATM    7  C   UNL     1      17.474  49.671  48.855  1.00  0.00     0.068 C 
HETATM    8  C   UNL     1      18.838  50.050  49.459  1.00  0.00     0.221 C 
HETATM    9  C   UNL     1      21.005  47.948  47.533  1.00  0.00     0.089 A 
HETATM   10  H   UNL     1      18.632  48.140  46.067  1.00  0.00     0.162 HD
ENDROOT
BRANCH   1  11
HETATM   11  C   UNL     1      23.168  47.883  48.945  1.00  0.00     0.276 C 
HETATM   12  N   UNL     1      23.276  46.616  49.487  1.00  0.00    -0.322 N 
HETATM   13  H   UNL     1      22.389  46.123  49.552  1.00  0.00     0.169 HD
HETATM   14  O   UNL     1      24.092  48.634  48.655  1.00  0.00    -0.266 OA
BRANCH  12  15
HETATM   15  C   UNL     1      24.443  45.958  49.909  1.00  0.00     0.035 A 
HETATM   16  C   UNL     1      25.026  44.900  49.214  1.00  0.00     0.032 A 
HETATM   17  C   UNL     1      26.209  44.305  49.674  1.00  0.00     0.032 A 
HETATM   18  C   UNL     1      26.817  44.746  50.849  1.00  0.00     0.034 A 
HETATM   19  C   UNL     1      26.223  45.799  51.554  1.00  0.00     0.032 A 
HETATM   20  C   UNL     1      25.057  46.412  51.079  1.00  0.00     0.032 A 
BRANCH  18  21
HETATM   21  N   UNL     1      27.995  44.187  51.386  1.00  0.00    -0.327 N 
HETATM   22  C   UNL     1      28.104  43.363  52.493  1.00  0.00     0.221 C 
HETATM   23  O   UNL     1      27.179  42.949  53.187  1.00  0.00    -0.273 OA
HETATM   24  H   UNL     1      28.845  44.387  50.877  1.00  0.00     0.169 HD
BRANCH  22  25
HETATM   25  C   UNL     1      29.539  43.011  52.847  1.00  0.00     0.098 C 
HETATM   26  C   UNL     1      29.860  43.163  54.323  1.00  0.00     0.014 C 
ENDBRANCH  22  25
ENDBRANCH  18  21
ENDBRANCH  12  15
ENDBRANCH   1  11
BRANCH   8  27
HETATM   27  C   UNL     1      19.219  51.500  49.254  1.00  0.00     0.409 C 
HETATM   28  F   UNL     1      18.164  52.329  49.138  1.00  0.00    -0.169 F 
HETATM   29  F   UNL     1      19.966  51.943  50.297  1.00  0.00    -0.169 F 
HETATM   30  F   UNL     1      19.984  51.666  48.149  1.00  0.00    -0.169 F 
ENDBRANCH   8  27
BRANCH   6  31
HETATM   31  C   UNL     1      17.368  50.600  46.496  1.00  0.00     0.075 A 
HETATM   32  O   UNL     1      16.313  51.421  46.777  1.00  0.00    -0.325 OA
HETATM   33  C   UNL     1      16.350  52.438  45.879  1.00  0.00     0.142 A 
HETATM   34  C   UNL     1      17.411  52.285  45.019  1.00  0.00     0.027 A 
HETATM   35  C   UNL     1      18.067  51.094  45.412  1.00  0.00     0.037 A 
ENDBRANCH   6  31
TORSDOF 6
ENDMDL
MODEL 4
REMARK VINA RESULT:      -8.6     14.362     15.599
REMARK  6 active torsions:
REMARK  status: ('A' for Active; 'I' for Inactive)
REMARK    1  A    between atoms: C_2  and  C_3 
REMARK       I    between atoms: C_3  and  N_4 
REMARK    2  A    between atoms: N_4  and  C_5 
REMARK    3  A    between atoms: C_8  and  N_9 
REMARK       I    between atoms: N_9  and  C_10 
REMARK    4  A    between atoms: C_10  and  C_11 
REMARK    5  A    between atoms: C_16  and  C_17 
REMARK    6  A    between atoms: C_23  and  C_24 
ROOT
HETATM    1  C   UNL     1      35.263  51.745  42.985  1.00  0.00     0.148 A 
HETATM    2  N   UNL     1      34.072  51.751  43.630  1.00  0.00    -0.165 NA
HETATM    3  N   UNL     1      33.321  50.906  42.900  1.00  0.00    -0.240 N 
HETATM    4  C   UNL     1      34.013  50.251  41.921  1.00  0.00     0.123 A 
HETATM    5  N   UNL     1      33.450  49.277  41.179  1.00  0.00    -0.364 N 
HETATM    6  C   UNL     1      32.018  48.977  41.238  1.00  0.00     0.143 C 
HETATM    7  C   UNL     1      31.447  49.347  42.619  1.00  0.00     0.068 C 
HETATM    8  C   UNL     1      31.906  50.716  43.155  1.00  0.00     0.221 C 
HETATM    9  C   UNL     1      35.267  50.801  41.920  1.00  0.00     0.089 A 
HETATM   10  H   UNL     1      33.934  48.896  40.368  1.00  0.00     0.162 HD
ENDROOT
BRANCH   1  11
HETATM   11  C   UNL     1      36.383  52.617  43.380  1.00  0.00     0.276 C 
HETATM   12  N   UNL     1      36.927  52.252  44.597  1.00  0.00    -0.322 N 
HETATM   13  H   UNL     1      36.526  51.403  44.986  1.00  0.00     0.169 HD
HETATM   14  O   UNL     1      36.764  53.527  42.654  1.00  0.00    -0.266 OA
BRANCH  12  15
HETATM   15  C   UNL     1      37.958  52.892  45.304  1.00  0.00     0.035 A 
HETATM   16  C   UNL     1      37.793  54.097  45.985  1.00  0.00     0.032 A 
HETATM   17  C   UNL     1      38.855  54.670  46.698  1.00  0.00     0.032 A 
HETATM   18  C   UNL     1      40.108  54.057  46.722  1.00  0.00     0.034 A 
HETATM   19  C   UNL     1      40.277  52.855  46.026  1.00  0.00     0.032 A 
HETATM   20  C   UNL     1      39.208  52.268  45.338  1.00  0.00     0.032 A 
BRANCH  18  21
HETATM   21  N   UNL     1      41.229  54.580  47.399  1.00  0.00    -0.327 N 
HETATM   22  C   UNL     1      42.064  55.599  46.974  1.00  0.00     0.221 C 
HETATM   23  O   UNL     1      41.953  56.249  45.939  1.00  0.00    -0.273 OA
HETATM   24  H   UNL     1      41.414  54.186  48.310  1.00  0.00     0.169 HD
BRANCH  22  25
HETATM   25  C   UNL     1      43.233  55.855  47.912  1.00  0.00     0.098 C 
HETATM   26  C   UNL     1      43.739  54.608  48.614  1.00  0.00     0.014 C 
ENDBRANCH  22  25
ENDBRANCH  18  21
ENDBRANCH  12  15
ENDBRANCH   1  11
BRANCH   8  27
HETATM   27  C   UNL     1      31.127  51.887  42.596  1.00  0.00     0.409 C 
HETATM   28  F   UNL     1      31.734  52.500  41.562  1.00  0.00    -0.169 F 
HETATM   29  F   UNL     1      29.908  51.479  42.162  1.00  0.00    -0.169 F 
HETATM   30  F   UNL     1      30.893  52.829  43.540  1.00  0.00    -0.169 F 
ENDBRANCH   8  27
BRANCH   6  31
HETATM   31  C   UNL     1      31.220  49.522  40.098  1.00  0.00     0.075 A 
HETATM   32  O   UNL     1      29.917  49.119  40.022  1.00  0.00    -0.325 OA
HETATM   33  C   UNL     1      29.388  49.688  38.908  1.00  0.00     0.142 A 
HETATM   34  C   UNL     1      30.332  50.449  38.261  1.00  0.00     0.027 A 
HETATM   35  C   UNL     1      31.518  50.338  39.025  1.00  0.00     0.037 A 
ENDBRANCH   6  31
TORSDOF 6
ENDMDL
MODEL 5
REMARK VINA RESULT:      -8.3      2.193      2.863
REMARK  6 active torsions:
REMARK  status: ('A' for Active; 'I' for Inactive)
REMARK    1  A    between atoms: C_2  and  C_3 
REMARK       I    between atoms: C_3  and  N_4 
REMARK    2  A    between atoms: N_4  and  C_5 
REMARK    3  A    between atoms: C_8  and  N_9 
REMARK       I    between atoms: N_9  and  C_10 
REMARK    4  A    between atoms: C_10  and  C_11 
REMARK    5  A    between atoms: C_16  and  C_17 
REMARK    6  A    between atoms: C_23  and  C_24 
ROOT
HETATM    1  C   UNL     1      24.116  47.212  49.639  1.00  0.00     0.148 A 
HETATM    2  N   UNL     1      23.719  46.205  48.827  1.00  0.00    -0.165 NA
HETATM    3  N   UNL     1      22.587  46.682  48.275  1.00  0.00    -0.240 N 
HETATM    4  C   UNL     1      22.331  47.990  48.576  1.00  0.00     0.123 A 
HETATM    5  N   UNL     1      21.311  48.665  48.009  1.00  0.00    -0.364 N 
HETATM    6  C   UNL     1      20.302  48.007  47.178  1.00  0.00     0.143 C 
HETATM    7  C   UNL     1      20.895  46.757  46.500  1.00  0.00     0.068 C 
HETATM    8  C   UNL     1      21.738  45.865  47.430  1.00  0.00     0.221 C 
HETATM    9  C   UNL     1      23.279  48.353  49.493  1.00  0.00     0.089 A 
HETATM   10  H   UNL     1      21.051  49.592  48.345  1.00  0.00     0.162 HD
ENDROOT
BRANCH   1  11
HETATM   11  C   UNL     1      25.280  47.095  50.536  1.00  0.00     0.276 C 
HETATM   12  N   UNL     1      25.325  45.872  51.178  1.00  0.00    -0.322 N 
HETATM   13  H   UNL     1      24.602  45.225  50.876  1.00  0.00     0.169 HD
HETATM   14  O   UNL     1      26.098  48.002  50.634  1.00  0.00    -0.266 OA
BRANCH  12  15
HETATM   15  C   UNL     1      26.251  45.442  52.143  1.00  0.00     0.035 A 
HETATM   16  C   UNL     1      27.247  44.501  51.890  1.00  0.00     0.032 A 
HETATM   17  C   UNL     1      28.159  44.135  52.890  1.00  0.00     0.032 A 
HETATM   18  C   UNL     1      28.076  44.691  54.166  1.00  0.00     0.034 A 
HETATM   19  C   UNL     1      27.067  45.625  54.424  1.00  0.00     0.032 A 
HETATM   20  C   UNL     1      26.173  46.011  53.417  1.00  0.00     0.032 A 
BRANCH  18  21
HETATM   21  N   UNL     1      28.943  44.360  55.229  1.00  0.00    -0.327 N 
HETATM   22  C   UNL     1      29.779  45.215  55.926  1.00  0.00     0.221 C 
HETATM   23  O   UNL     1      29.887  46.426  55.758  1.00  0.00    -0.273 OA
HETATM   24  H   UNL     1      28.917  43.396  55.531  1.00  0.00     0.169 HD
BRANCH  22  25
HETATM   25  C   UNL     1      30.644  44.509  56.957  1.00  0.00     0.098 C 
HETATM   26  C   UNL     1      31.393  43.307  56.408  1.00  0.00     0.014 C 
ENDBRANCH  22  25
ENDBRANCH  18  21
ENDBRANCH  12  15
ENDBRANCH   1  11
BRANCH   8  27
HETATM   27  C   UNL     1      20.919  44.925  48.289  1.00  0.00     0.409 C 
HETATM   28  F   UNL     1      20.459  45.487  49.422  1.00  0.00    -0.169 F 
HETATM   29  F   UNL     1      19.843  44.472  47.598  1.00  0.00    -0.169 F 
HETATM   30  F   UNL     1      21.627  43.827  48.643  1.00  0.00    -0.169 F 
ENDBRANCH   8  27
BRANCH   6  31
HETATM   31  C   UNL     1      18.999  47.750  47.864  1.00  0.00     0.075 A 
HETATM   32  O   UNL     1      18.866  48.259  49.125  1.00  0.00    -0.325 OA
HETATM   33  C   UNL     1      17.643  47.884  49.579  1.00  0.00     0.142 A 
HETATM   34  C   UNL     1      16.985  47.136  48.631  1.00  0.00     0.027 A 
HETATM   35  C   UNL     1      17.862  47.043  47.525  1.00  0.00     0.037 A 
ENDBRANCH   6  31
TORSDOF 6
ENDMDL
MODEL 6
REMARK VINA RESULT:      -8.1     13.644     14.645
REMARK  6 active torsions:
REMARK  status: ('A' for Active; 'I' for Inactive)
REMARK    1  A    between atoms: C_2  and  C_3 
REMARK       I    between atoms: C_3  and  N_4 
REMARK    2  A    between atoms: N_4  and  C_5 
REMARK    3  A    between atoms: C_8  and  N_9 
REMARK       I    between atoms: N_9  and  C_10 
REMARK    4  A    between atoms: C_10  and  C_11 
REMARK    5  A    between atoms: C_16  and  C_17 
REMARK    6  A    between atoms: C_23  and  C_24 
ROOT
HETATM    1  C   UNL     1      33.643  51.079  42.217  1.00  0.00     0.148 A 
HETATM    2  N   UNL     1      33.034  49.879  42.368  1.00  0.00    -0.165 NA
HETATM    3  N   UNL     1      32.336  49.740  41.225  1.00  0.00    -0.240 N 
HETATM    4  C   UNL     1      32.589  50.712  40.299  1.00  0.00     0.123 A 
HETATM    5  N   UNL     1      32.074  50.661  39.054  1.00  0.00    -0.364 N 
HETATM    6  C   UNL     1      31.071  49.671  38.661  1.00  0.00     0.143 C 
HETATM    7  C   UNL     1      31.215  48.393  39.509  1.00  0.00     0.068 C 
HETATM    8  C   UNL     1      31.411  48.643  41.015  1.00  0.00     0.221 C 
HETATM    9  C   UNL     1      33.400  51.620  40.924  1.00  0.00     0.089 A 
HETATM   10  H   UNL     1      32.160  51.457  38.423  1.00  0.00     0.162 HD
ENDROOT
BRANCH   1  11
HETATM   11  C   UNL     1      34.450  51.698  43.283  1.00  0.00     0.276 C 
HETATM   12  N   UNL     1      35.756  51.921  42.889  1.00  0.00    -0.322 N 
HETATM   13  H   UNL     1      35.932  51.698  41.913  1.00  0.00     0.169 HD
HETATM   14  O   UNL     1      33.954  51.989  44.365  1.00  0.00    -0.266 OA
BRANCH  12  15
HETATM   15  C   UNL     1      36.811  52.433  43.661  1.00  0.00     0.035 A 
HETATM   16  C   UNL     1      36.879  53.756  44.094  1.00  0.00     0.032 A 
HETATM   17  C   UNL     1      37.946  54.197  44.889  1.00  0.00     0.032 A 
HETATM   18  C   UNL     1      38.975  53.327  45.245  1.00  0.00     0.034 A 
HETATM   19  C   UNL     1      38.915  52.002  44.798  1.00  0.00     0.032 A 
HETATM   20  C   UNL     1      37.834  51.554  44.028  1.00  0.00     0.032 A 
BRANCH  18  21
HETATM   21  N   UNL     1      40.090  53.700  46.023  1.00  0.00    -0.327 N 
HETATM   22  C   UNL     1      40.152  53.810  47.402  1.00  0.00     0.221 C 
HETATM   23  O   UNL     1      39.245  53.569  48.194  1.00  0.00    -0.273 OA
HETATM   24  H   UNL     1      40.945  53.869  45.511  1.00  0.00     0.169 HD
BRANCH  22  25
HETATM   25  C   UNL     1      41.490  54.321  47.909  1.00  0.00     0.098 C 
HETATM   26  C   UNL     1      41.871  55.686  47.365  1.00  0.00     0.014 C 
ENDBRANCH  22  25
ENDBRANCH  18  21
ENDBRANCH  12  15
ENDBRANCH   1  11
BRANCH   8  27
HETATM   27  C   UNL     1      30.125  48.912  41.766  1.00  0.00     0.409 C 
HETATM   28  F   UNL     1      29.044  48.319  41.223  1.00  0.00    -0.169 F 
HETATM   29  F   UNL     1      30.225  48.470  43.046  1.00  0.00    -0.169 F 
HETATM   30  F   UNL     1      29.859  50.237  41.846  1.00  0.00    -0.169 F 
ENDBRANCH   8  27
BRANCH   6  31
HETATM   31  C   UNL     1      29.671  50.191  38.603  1.00  0.00     0.075 A 
HETATM   32  O   UNL     1      28.688  49.267  38.387  1.00  0.00    -0.325 OA
HETATM   33  C   UNL     1      27.512  49.943  38.329  1.00  0.00     0.142 A 
HETATM   34  C   UNL     1      27.721  51.291  38.502  1.00  0.00     0.027 A 
HETATM   35  C   UNL     1      29.116  51.454  38.673  1.00  0.00     0.037 A 
ENDBRANCH   6  31
TORSDOF 6
ENDMDL
MODEL 7
REMARK VINA RESULT:      -8.1     13.964     14.992
REMARK  6 active torsions:
REMARK  status: ('A' for Active; 'I' for Inactive)
REMARK    1  A    between atoms: C_2  and  C_3 
REMARK       I    between atoms: C_3  and  N_4 
REMARK    2  A    between atoms: N_4  and  C_5 
REMARK    3  A    between atoms: C_8  and  N_9 
REMARK       I    between atoms: N_9  and  C_10 
REMARK    4  A    between atoms: C_10  and  C_11 
REMARK    5  A    between atoms: C_16  and  C_17 
REMARK    6  A    between atoms: C_23  and  C_24 
ROOT
HETATM    1  C   UNL     1      34.455  50.865  41.020  1.00  0.00     0.148 A 
HETATM    2  N   UNL     1      33.807  49.720  41.341  1.00  0.00    -0.165 NA
HETATM    3  N   UNL     1      32.609  49.866  40.745  1.00  0.00    -0.240 N 
HETATM    4  C   UNL     1      32.518  50.968  39.943  1.00  0.00     0.123 A 
HETATM    5  N   UNL     1      31.436  51.201  39.172  1.00  0.00    -0.364 N 
HETATM    6  C   UNL     1      30.215  50.401  39.274  1.00  0.00     0.143 C 
HETATM    7  C   UNL     1      30.544  48.978  39.763  1.00  0.00     0.068 C 
HETATM    8  C   UNL     1      31.528  48.919  40.945  1.00  0.00     0.221 C 
HETATM    9  C   UNL     1      33.683  51.662  40.130  1.00  0.00     0.089 A 
HETATM   10  H   UNL     1      31.326  52.091  38.687  1.00  0.00     0.162 HD
ENDROOT
BRANCH   1  11
HETATM   11  C   UNL     1      35.792  51.193  41.546  1.00  0.00     0.276 C 
HETATM   12  N   UNL     1      35.766  52.278  42.402  1.00  0.00    -0.322 N 
HETATM   13  H   UNL     1      34.830  52.626  42.593  1.00  0.00     0.169 HD
HETATM   14  O   UNL     1      36.773  50.522  41.247  1.00  0.00    -0.266 OA
BRANCH  12  15
HETATM   15  C   UNL     1      36.856  52.902  43.032  1.00  0.00     0.035 A 
HETATM   16  C   UNL     1      37.652  53.867  42.418  1.00  0.00     0.032 A 
HETATM   17  C   UNL     1      38.708  54.474  43.113  1.00  0.00     0.032 A 
HETATM   18  C   UNL     1      38.997  54.108  44.427  1.00  0.00     0.034 A 
HETATM   19  C   UNL     1      38.206  53.129  45.038  1.00  0.00     0.032 A 
HETATM   20  C   UNL     1      37.134  52.544  44.354  1.00  0.00     0.032 A 
BRANCH  18  21
HETATM   21  N   UNL     1      40.053  54.658  45.184  1.00  0.00    -0.327 N 
HETATM   22  C   UNL     1      39.960  55.603  46.190  1.00  0.00     0.221 C 
HETATM   23  O   UNL     1      38.928  56.110  46.621  1.00  0.00    -0.273 OA
HETATM   24  H   UNL     1      40.972  54.286  44.987  1.00  0.00     0.169 HD
BRANCH  22  25
HETATM   25  C   UNL     1      41.308  56.039  46.740  1.00  0.00     0.098 C 
HETATM   26  C   UNL     1      41.884  55.088  47.774  1.00  0.00     0.014 C 
ENDBRANCH  22  25
ENDBRANCH  18  21
ENDBRANCH  12  15
ENDBRANCH   1  11
BRANCH   8  27
HETATM   27  C   UNL     1      30.885  49.159  42.294  1.00  0.00     0.409 C 
HETATM   28  F   UNL     1      30.908  50.448  42.685  1.00  0.00    -0.169 F 
HETATM   29  F   UNL     1      29.585  48.768  42.273  1.00  0.00    -0.169 F 
HETATM   30  F   UNL     1      31.480  48.432  43.269  1.00  0.00    -0.169 F 
ENDBRANCH   8  27
BRANCH   6  31
HETATM   31  C   UNL     1      29.105  51.050  40.035  1.00  0.00     0.075 A 
HETATM   32  O   UNL     1      29.389  52.255  40.613  1.00  0.00    -0.325 OA
HETATM   33  C   UNL     1      28.274  52.649  41.281  1.00  0.00     0.142 A 
HETATM   34  C   UNL     1      27.275  51.714  41.146  1.00  0.00     0.027 A 
HETATM   35  C   UNL     1      27.812  50.678  40.346  1.00  0.00     0.037 A 
ENDBRANCH   6  31
TORSDOF 6
ENDMDL
MODEL 8
REMARK VINA RESULT:      -8.0      3.544      4.263
REMARK  6 active torsions:
REMARK  status: ('A' for Active; 'I' for Inactive)
REMARK    1  A    between atoms: C_2  and  C_3 
REMARK       I    between atoms: C_3  and  N_4 
REMARK    2  A    between atoms: N_4  and  C_5 
REMARK    3  A    between atoms: C_8  and  N_9 
REMARK       I    between atoms: N_9  and  C_10 
REMARK    4  A    between atoms: C_10  and  C_11 
REMARK    5  A    between atoms: C_16  and  C_17 
REMARK    6  A    between atoms: C_23  and  C_24 
ROOT
HETATM    1  C   UNL     1      21.488  47.132  48.649  1.00  0.00     0.148 A 
HETATM    2  N   UNL     1      21.776  48.362  49.135  1.00  0.00    -0.165 NA
HETATM    3  N   UNL     1      20.566  48.943  49.242  1.00  0.00    -0.240 N 
HETATM    4  C   UNL     1      19.521  48.098  48.996  1.00  0.00     0.123 A 
HETATM    5  N   UNL     1      18.240  48.476  49.180  1.00  0.00    -0.364 N 
HETATM    6  C   UNL     1      17.867  49.859  49.477  1.00  0.00     0.143 C 
HETATM    7  C   UNL     1      19.016  50.582  50.205  1.00  0.00     0.068 C 
HETATM    8  C   UNL     1      20.409  50.340  49.599  1.00  0.00     0.221 C 
HETATM    9  C   UNL     1      20.083  46.925  48.567  1.00  0.00     0.089 A 
HETATM   10  H   UNL     1      17.473  47.884  48.864  1.00  0.00     0.162 HD
ENDROOT
BRANCH   1  11
HETATM   11  C   UNL     1      22.534  46.163  48.276  1.00  0.00     0.276 C 
HETATM   12  N   UNL     1      23.084  45.535  49.377  1.00  0.00    -0.322 N 
HETATM   13  H   UNL     1      22.634  45.780  50.255  1.00  0.00     0.169 HD
HETATM   14  O   UNL     1      22.816  45.956  47.101  1.00  0.00    -0.266 OA
BRANCH  12  15
HETATM   15  C   UNL     1      24.140  44.609  49.400  1.00  0.00     0.035 A 
HETATM   16  C   UNL     1      25.478  44.968  49.546  1.00  0.00     0.032 A 
HETATM   17  C   UNL     1      26.482  43.991  49.591  1.00  0.00     0.032 A 
HETATM   18  C   UNL     1      26.165  42.638  49.470  1.00  0.00     0.034 A 
HETATM   19  C   UNL     1      24.822  42.279  49.309  1.00  0.00     0.032 A 
HETATM   20  C   UNL     1      23.816  43.253  49.293  1.00  0.00     0.032 A 
BRANCH  18  21
HETATM   21  N   UNL     1      27.118  41.599  49.485  1.00  0.00    -0.327 N 
HETATM   22  C   UNL     1      27.847  41.113  48.414  1.00  0.00     0.221 C 
HETATM   23  O   UNL     1      27.809  41.527  47.259  1.00  0.00    -0.273 OA
HETATM   24  H   UNL     1      27.311  41.196  50.392  1.00  0.00     0.169 HD
BRANCH  22  25
HETATM   25  C   UNL     1      28.727  39.926  48.768  1.00  0.00     0.098 C 
HETATM   26  C   UNL     1      28.200  38.598  48.253  1.00  0.00     0.014 C 
ENDBRANCH  22  25
ENDBRANCH  18  21
ENDBRANCH  12  15
ENDBRANCH   1  11
BRANCH   8  27
HETATM   27  C   UNL     1      20.717  51.208  48.398  1.00  0.00     0.409 C 
HETATM   28  F   UNL     1      22.008  51.585  48.316  1.00  0.00    -0.169 F 
HETATM   29  F   UNL     1      20.417  50.549  47.250  1.00  0.00    -0.169 F 
HETATM   30  F   UNL     1      19.967  52.335  48.390  1.00  0.00    -0.169 F 
ENDBRANCH   8  27
BRANCH   6  31
HETATM   31  C   UNL     1      17.327  50.623  48.312  1.00  0.00     0.075 A 
HETATM   32  O   UNL     1      16.718  51.813  48.595  1.00  0.00    -0.325 OA
HETATM   33  C   UNL     1      16.268  52.320  47.418  1.00  0.00     0.142 A 
HETATM   34  C   UNL     1      16.575  51.474  46.380  1.00  0.00     0.027 A 
HETATM   35  C   UNL     1      17.254  50.374  46.955  1.00  0.00     0.037 A 
ENDBRANCH   6  31
TORSDOF 6
ENDMDL
MODEL 9
REMARK VINA RESULT:      -8.0     20.749     23.360
REMARK  6 active torsions:
REMARK  status: ('A' for Active; 'I' for Inactive)
REMARK    1  A    between atoms: C_2  and  C_3 
REMARK       I    between atoms: C_3  and  N_4 
REMARK    2  A    between atoms: N_4  and  C_5 
REMARK    3  A    between atoms: C_8  and  N_9 
REMARK       I    between atoms: N_9  and  C_10 
REMARK    4  A    between atoms: C_10  and  C_11 
REMARK    5  A    between atoms: C_16  and  C_17 
REMARK    6  A    between atoms: C_23  and  C_24 
ROOT
HETATM    1  C   UNL     1      37.067  46.517  65.051  1.00  0.00     0.148 A 
HETATM    2  N   UNL     1      38.342  46.411  64.607  1.00  0.00    -0.165 NA
HETATM    3  N   UNL     1      38.363  45.202  64.013  1.00  0.00    -0.240 N 
HETATM    4  C   UNL     1      37.136  44.606  63.925  1.00  0.00     0.123 A 
HETATM    5  N   UNL     1      36.952  43.453  63.251  1.00  0.00    -0.364 N 
HETATM    6  C   UNL     1      38.068  42.666  62.725  1.00  0.00     0.143 C 
HETATM    7  C   UNL     1      39.270  43.577  62.416  1.00  0.00     0.068 C 
HETATM    8  C   UNL     1      39.588  44.610  63.511  1.00  0.00     0.221 C 
HETATM    9  C   UNL     1      36.280  45.412  64.625  1.00  0.00     0.089 A 
HETATM   10  H   UNL     1      36.065  42.954  63.309  1.00  0.00     0.162 HD
ENDROOT
BRANCH   1  11
HETATM   11  C   UNL     1      36.603  47.656  65.861  1.00  0.00     0.276 C 
HETATM   12  N   UNL     1      37.554  48.655  65.956  1.00  0.00    -0.322 N 
HETATM   13  H   UNL     1      38.384  48.483  65.394  1.00  0.00     0.169 HD
HETATM   14  O   UNL     1      35.477  47.673  66.345  1.00  0.00    -0.266 OA
BRANCH  12  15
HETATM   15  C   UNL     1      37.478  49.847  66.694  1.00  0.00     0.035 A 
HETATM   16  C   UNL     1      37.119  49.899  68.040  1.00  0.00     0.032 A 
HETATM   17  C   UNL     1      37.092  51.120  68.728  1.00  0.00     0.032 A 
HETATM   18  C   UNL     1      37.402  52.312  68.075  1.00  0.00     0.034 A 
HETATM   19  C   UNL     1      37.749  52.261  66.720  1.00  0.00     0.032 A 
HETATM   20  C   UNL     1      37.804  51.038  66.040  1.00  0.00     0.032 A 
BRANCH  18  21
HETATM   21  N   UNL     1      37.378  53.580  68.693  1.00  0.00    -0.327 N 
HETATM   22  C   UNL     1      38.458  54.302  69.169  1.00  0.00     0.221 C 
HETATM   23  O   UNL     1      39.639  53.972  69.107  1.00  0.00    -0.273 OA
HETATM   24  H   UNL     1      36.469  54.017  68.758  1.00  0.00     0.169 HD
BRANCH  22  25
HETATM   25  C   UNL     1      38.065  55.598  69.858  1.00  0.00     0.098 C 
HETATM   26  C   UNL     1      37.906  56.772  68.909  1.00  0.00     0.014 C 
ENDBRANCH  22  25
ENDBRANCH  18  21
ENDBRANCH  12  15
ENDBRANCH   1  11
BRANCH   8  27
HETATM   27  C   UNL     1      40.394  44.055  64.666  1.00  0.00     0.409 C 
HETATM   28  F   UNL     1      41.143  42.984  64.341  1.00  0.00    -0.169 F 
HETATM   29  F   UNL     1      41.237  45.003  65.151  1.00  0.00    -0.169 F 
HETATM   30  F   UNL     1      39.602  43.693  65.702  1.00  0.00    -0.169 F 
ENDBRANCH   8  27
BRANCH   6  31
HETATM   31  C   UNL     1      38.424  41.467  63.542  1.00  0.00     0.075 A 
HETATM   32  O   UNL     1      39.367  40.631  63.015  1.00  0.00    -0.325 OA
HETATM   33  C   UNL     1      39.514  39.597  63.884  1.00  0.00     0.142 A 
HETATM   34  C   UNL     1      38.677  39.751  64.963  1.00  0.00     0.027 A 
HETATM   35  C   UNL     1      37.967  40.956  64.742  1.00  0.00     0.037 A 
ENDBRANCH   6  31
TORSDOF 6
ENDMDL
MODEL 10
REMARK VINA RESULT:      -7.9     13.017     13.964
REMARK  6 active torsions:
REMARK  status: ('A' for Active; 'I' for Inactive)
REMARK    1  A    between atoms: C_2  and  C_3 
REMARK       I    between atoms: C_3  and  N_4 
REMARK    2  A    between atoms: N_4  and  C_5 
REMARK    3  A    between atoms: C_8  and  N_9 
REMARK       I    between atoms: N_9  and  C_10 
REMARK    4  A    between atoms: C_10  and  C_11 
REMARK    5  A    between atoms: C_16  and  C_17 
REMARK    6  A    between atoms: C_23  and  C_24 
ROOT
HETATM    1  C   UNL     1      31.970  51.449  41.367  1.00  0.00     0.148 A 
HETATM    2  N   UNL     1      31.063  52.315  40.856  1.00  0.00    -0.165 NA
HETATM    3  N   UNL     1      29.907  51.628  40.926  1.00  0.00    -0.240 N 
HETATM    4  C   UNL     1      30.008  50.439  41.591  1.00  0.00     0.123 A 
HETATM    5  N   UNL     1      28.926  49.682  41.865  1.00  0.00    -0.364 N 
HETATM    6  C   UNL     1      27.602  49.982  41.318  1.00  0.00     0.143 C 
HETATM    7  C   UNL     1      27.461  51.491  41.045  1.00  0.00     0.068 C 
HETATM    8  C   UNL     1      28.676  52.131  40.349  1.00  0.00     0.221 C 
HETATM    9  C   UNL     1      31.340  50.271  41.854  1.00  0.00     0.089 A 
HETATM   10  H   UNL     1      29.032  48.740  42.237  1.00  0.00     0.162 HD
ENDROOT
BRANCH   1  11
HETATM   11  C   UNL     1      33.414  51.742  41.399  1.00  0.00     0.276 C 
HETATM   12  N   UNL     1      34.034  51.202  42.511  1.00  0.00    -0.322 N 
HETATM   13  H   UNL     1      33.419  50.630  43.083  1.00  0.00     0.169 HD
HETATM   14  O   UNL     1      33.954  52.370  40.496  1.00  0.00    -0.266 OA
BRANCH  12  15
HETATM   15  C   UNL     1      35.378  51.335  42.895  1.00  0.00     0.035 A 
HETATM   16  C   UNL     1      36.417  50.597  42.330  1.00  0.00     0.032 A 
HETATM   17  C   UNL     1      37.743  50.798  42.738  1.00  0.00     0.032 A 
HETATM   18  C   UNL     1      38.049  51.726  43.733  1.00  0.00     0.034 A 
HETATM   19  C   UNL     1      37.004  52.456  44.309  1.00  0.00     0.032 A 
HETATM   20  C   UNL     1      35.682  52.276  43.882  1.00  0.00     0.032 A 
BRANCH  18  21
HETATM   21  N   UNL     1      39.353  51.971  44.210  1.00  0.00    -0.327 N 
HETATM   22  C   UNL     1      40.119  51.149  45.018  1.00  0.00     0.221 C 
HETATM   23  O   UNL     1      39.802  50.040  45.438  1.00  0.00    -0.273 OA
HETATM   24  H   UNL     1      39.782  52.829  43.891  1.00  0.00     0.169 HD
BRANCH  22  25
HETATM   25  C   UNL     1      41.452  51.761  45.416  1.00  0.00     0.098 C 
HETATM   26  C   UNL     1      41.329  53.131  46.058  1.00  0.00     0.014 C 
ENDBRANCH  22  25
ENDBRANCH  18  21
ENDBRANCH  12  15
ENDBRANCH   1  11
BRANCH   8  27
HETATM   27  C   UNL     1      28.699  51.934  38.849  1.00  0.00     0.409 C 
HETATM   28  F   UNL     1      29.225  52.973  38.172  1.00  0.00    -0.169 F 
HETATM   29  F   UNL     1      29.430  50.835  38.529  1.00  0.00    -0.169 F 
HETATM   30  F   UNL     1      27.459  51.716  38.352  1.00  0.00    -0.169 F 
ENDBRANCH   8  27
BRANCH   6  31
HETATM   31  C   UNL     1      27.198  49.128  40.159  1.00  0.00     0.075 A 
HETATM   32  O   UNL     1      28.162  48.308  39.644  1.00  0.00    -0.325 OA
HETATM   33  C   UNL     1      27.608  47.657  38.588  1.00  0.00     0.142 A 
HETATM   34  C   UNL     1      26.302  48.048  38.412  1.00  0.00     0.027 A 
HETATM   35  C   UNL     1      26.036  49.002  39.422  1.00  0.00     0.037 A 
ENDBRANCH   6  31
TORSDOF 6
ENDMDL
