MODEL 1
REMARK VINA RESULT:      -7.3      0.000      0.000
REMARK  6 active torsions:
REMARK  status: ('A' for Active; 'I' for Inactive)
REMARK    1  A    between atoms: C_2  and  O_3 
REMARK    2  A    between atoms: O_3  and  C_4 
REMARK    3  A    between atoms: C_4  and  C_5 
REMARK    4  A    between atoms: C_6  and  O_7 
REMARK    5  A    between atoms: C_12  and  O_13 
REMARK    6  A    between atoms: C_17  and  C_18 
ROOT
HETATM    1  C   UNL     1      29.127  48.092  40.233  1.00  0.00     0.133 C 
HETATM    2  C   UNL     1      28.811  46.671  39.650  1.00  0.00     0.073 C 
HETATM    3  C   UNL     1      27.959  45.877  40.659  1.00  0.00     0.047 C 
HETATM    4  C   UNL     1      28.092  46.716  38.270  1.00  0.00     0.097 C 
HETATM    5  C   UNL     1      27.004  47.716  38.316  1.00  0.00     0.042 A 
HETATM    6  C   UNL     1      26.909  48.789  39.176  1.00  0.00     0.030 A 
HETATM    7  C   UNL     1      25.661  49.347  38.850  1.00  0.00     0.190 A 
HETATM    8  N   UNL     1      25.031  48.709  37.871  1.00  0.00    -0.149 NA
HETATM    9  N   UNL     1      25.878  47.718  37.547  1.00  0.00    -0.279 N 
HETATM   10  H   UNL     1      25.605  47.075  36.811  1.00  0.00     0.189 HD
HETATM   11  C   UNL     1      27.929  49.092  40.230  1.00  0.00     0.074 C 
ENDROOT
BRANCH  11  12
HETATM   12  C   UNL     1      28.282  50.568  40.087  1.00  0.00    -0.048 A 
HETATM   13  C   UNL     1      28.484  51.343  41.242  1.00  0.00     0.011 A 
HETATM   14  C   UNL     1      28.818  52.696  41.143  1.00  0.00     0.043 A 
HETATM   15  C   UNL     1      28.960  53.281  39.892  1.00  0.00     0.116 A 
HETATM   16  F   UNL     1      29.278  54.579  39.801  1.00  0.00    -0.206 F 
HETATM   17  C   UNL     1      28.777  52.540  38.734  1.00  0.00     0.043 A 
HETATM   18  C   UNL     1      28.445  51.187  38.830  1.00  0.00     0.011 A 
ENDBRANCH  11  12
BRANCH   1  19
HETATM   19  C   UNL     1      30.368  48.654  39.572  1.00  0.00     0.267 C 
HETATM   20  O   UNL     1      30.636  48.546  38.382  1.00  0.00    -0.265 OA
BRANCH  19  21
HETATM   21  O   UNL     1      31.163  49.245  40.509  1.00  0.00    -0.316 OA
BRANCH  21  22
HETATM   22  C   UNL     1      31.461  48.477  41.689  1.00  0.00     0.123 C 
HETATM   23  C   UNL     1      31.571  49.404  42.896  1.00  0.00     0.040 C 
HETATM   24  C   UNL     1      32.791  47.778  41.434  1.00  0.00     0.040 C 
ENDBRANCH  21  22
ENDBRANCH  19  21
ENDBRANCH   1  19
BRANCH   2  25
HETATM   25  O   UNL     1      30.023  45.907  39.516  1.00  0.00    -0.389 OA
HETATM   26  H   UNL     1      30.587  46.347  38.850  1.00  0.00     0.210 HD
ENDBRANCH   2  25
BRANCH   7  27
HETATM   27  O   UNL     1      25.030  50.399  39.377  1.00  0.00    -0.343 OA
HETATM   28  H   UNL     1      25.520  50.720  40.148  1.00  0.00     0.219 HD
ENDBRANCH   7  27
TORSDOF 6
ENDMDL
MODEL 2
REMARK VINA RESULT:      -7.1      2.302      4.568
REMARK  6 active torsions:
REMARK  status: ('A' for Active; 'I' for Inactive)
REMARK    1  A    between atoms: C_2  and  O_3 
REMARK    2  A    between atoms: O_3  and  C_4 
REMARK    3  A    between atoms: C_4  and  C_5 
REMARK    4  A    between atoms: C_6  and  O_7 
REMARK    5  A    between atoms: C_12  and  O_13 
REMARK    6  A    between atoms: C_17  and  C_18 
ROOT
HETATM    1  C   UNL     1      27.780  49.970  39.666  1.00  0.00     0.133 C 
HETATM    2  C   UNL     1      26.349  49.377  39.423  1.00  0.00     0.073 C 
HETATM    3  C   UNL     1      26.167  49.063  37.925  1.00  0.00     0.047 C 
HETATM    4  C   UNL     1      26.056  48.103  40.270  1.00  0.00     0.097 C 
HETATM    5  C   UNL     1      27.217  47.192  40.201  1.00  0.00     0.042 A 
HETATM    6  C   UNL     1      28.519  47.537  39.907  1.00  0.00     0.030 A 
HETATM    7  C   UNL     1      29.181  46.297  39.892  1.00  0.00     0.190 A 
HETATM    8  N   UNL     1      28.389  45.267  40.167  1.00  0.00    -0.149 NA
HETATM    9  N   UNL     1      27.190  45.838  40.367  1.00  0.00    -0.279 N 
HETATM   10  H   UNL     1      26.403  45.236  40.588  1.00  0.00     0.189 HD
HETATM   11  C   UNL     1      28.947  48.937  39.592  1.00  0.00     0.074 C 
ENDROOT
BRANCH  11  12
HETATM   12  C   UNL     1      30.163  49.229  40.463  1.00  0.00    -0.048 A 
HETATM   13  C   UNL     1      31.264  49.902  39.906  1.00  0.00     0.011 A 
HETATM   14  C   UNL     1      32.389  50.193  40.682  1.00  0.00     0.043 A 
HETATM   15  C   UNL     1      32.419  49.821  42.020  1.00  0.00     0.116 A 
HETATM   16  F   UNL     1      33.500  50.100  42.760  1.00  0.00    -0.206 F 
HETATM   17  C   UNL     1      31.343  49.166  42.600  1.00  0.00     0.043 A 
HETATM   18  C   UNL     1      30.217  48.876  41.828  1.00  0.00     0.011 A 
ENDBRANCH  11  12
BRANCH   1  19
HETATM   19  C   UNL     1      27.789  50.782  40.944  1.00  0.00     0.267 C 
HETATM   20  O   UNL     1      27.580  50.329  42.062  1.00  0.00    -0.265 OA
BRANCH  19  21
HETATM   21  O   UNL     1      28.006  52.096  40.653  1.00  0.00    -0.316 OA
BRANCH  21  22
HETATM   22  C   UNL     1      29.374  52.544  40.641  1.00  0.00     0.123 C 
HETATM   23  C   UNL     1      29.886  52.687  42.071  1.00  0.00     0.040 C 
HETATM   24  C   UNL     1      29.388  53.894  39.934  1.00  0.00     0.040 C 
ENDBRANCH  21  22
ENDBRANCH  19  21
ENDBRANCH   1  19
BRANCH   2  25
HETATM   25  O   UNL     1      25.344  50.365  39.711  1.00  0.00    -0.389 OA
HETATM   26  H   UNL     1      25.341  51.017  38.981  1.00  0.00     0.210 HD
ENDBRANCH   2  25
BRANCH   7  27
HETATM   27  O   UNL     1      30.460  46.013  39.641  1.00  0.00    -0.343 OA
HETATM   28  H   UNL     1      30.517  45.185  39.140  1.00  0.00     0.219 HD
ENDBRANCH   7  27
TORSDOF 6
ENDMDL
MODEL 3
REMARK VINA RESULT:      -7.0     12.786     14.631
REMARK  6 active torsions:
REMARK  status: ('A' for Active; 'I' for Inactive)
REMARK    1  A    between atoms: C_2  and  O_3 
REMARK    2  A    between atoms: O_3  and  C_4 
REMARK    3  A    between atoms: C_4  and  C_5 
REMARK    4  A    between atoms: C_6  and  O_7 
REMARK    5  A    between atoms: C_12  and  O_13 
REMARK    6  A    between atoms: C_17  and  C_18 
ROOT
HETATM    1  C   UNL     1      26.157  44.456  51.207  1.00  0.00     0.133 C 
HETATM    2  C   UNL     1      24.861  44.191  50.365  1.00  0.00     0.073 C 
HETATM    3  C   UNL     1      25.153  44.445  48.873  1.00  0.00     0.047 C 
HETATM    4  C   UNL     1      24.285  42.756  50.554  1.00  0.00     0.097 C 
HETATM    5  C   UNL     1      25.385  41.772  50.481  1.00  0.00     0.042 A 
HETATM    6  C   UNL     1      26.721  42.013  50.719  1.00  0.00     0.030 A 
HETATM    7  C   UNL     1      27.322  40.775  50.431  1.00  0.00     0.190 A 
HETATM    8  N   UNL     1      26.459  39.836  50.064  1.00  0.00    -0.149 NA
HETATM    9  N   UNL     1      25.272  40.463  50.114  1.00  0.00    -0.279 N 
HETATM   10  H   UNL     1      24.441  39.939  49.861  1.00  0.00     0.189 HD
HETATM   11  C   UNL     1      27.261  43.360  51.087  1.00  0.00     0.074 C 
ENDROOT
BRANCH  11  12
HETATM   12  C   UNL     1      28.148  43.157  52.309  1.00  0.00    -0.048 A 
HETATM   13  C   UNL     1      27.640  42.463  53.421  1.00  0.00     0.011 A 
HETATM   14  C   UNL     1      28.432  42.254  54.553  1.00  0.00     0.043 A 
HETATM   15  C   UNL     1      29.738  42.727  54.579  1.00  0.00     0.116 A 
HETATM   16  F   UNL     1      30.493  42.524  55.666  1.00  0.00    -0.206 F 
HETATM   17  C   UNL     1      30.270  43.405  53.493  1.00  0.00     0.043 A 
HETATM   18  C   UNL     1      29.482  43.614  52.360  1.00  0.00     0.011 A 
ENDBRANCH  11  12
BRANCH   1  19
HETATM   19  C   UNL     1      25.784  44.763  52.642  1.00  0.00     0.267 C 
HETATM   20  O   UNL     1      24.927  44.169  53.284  1.00  0.00    -0.265 OA
BRANCH  19  21
HETATM   21  O   UNL     1      26.502  45.833  53.086  1.00  0.00    -0.316 OA
BRANCH  21  22
HETATM   22  C   UNL     1      26.375  46.171  54.480  1.00  0.00     0.123 C 
HETATM   23  C   UNL     1      26.096  47.664  54.627  1.00  0.00     0.040 C 
HETATM   24  C   UNL     1      27.700  45.811  55.141  1.00  0.00     0.040 C 
ENDBRANCH  21  22
ENDBRANCH  19  21
ENDBRANCH   1  19
BRANCH   2  25
HETATM   25  O   UNL     1      23.842  45.148  50.704  1.00  0.00    -0.389 OA
HETATM   26  H   UNL     1      23.806  45.818  49.992  1.00  0.00     0.210 HD
ENDBRANCH   2  25
BRANCH   7  27
HETATM   27  O   UNL     1      28.608  40.420  50.465  1.00  0.00    -0.343 OA
HETATM   28  H   UNL     1      28.986  40.480  49.575  1.00  0.00     0.219 HD
ENDBRANCH   7  27
TORSDOF 6
ENDMDL
MODEL 4
REMARK VINA RESULT:      -6.9     12.327     13.566
REMARK  6 active torsions:
REMARK  status: ('A' for Active; 'I' for Inactive)
REMARK    1  A    between atoms: C_2  and  O_3 
REMARK    2  A    between atoms: O_3  and  C_4 
REMARK    3  A    between atoms: C_4  and  C_5 
REMARK    4  A    between atoms: C_6  and  O_7 
REMARK    5  A    between atoms: C_12  and  O_13 
REMARK    6  A    between atoms: C_17  and  C_18 
ROOT
HETATM    1  C   UNL     1      26.947  42.334  51.938  1.00  0.00     0.133 C 
HETATM    2  C   UNL     1      27.185  41.389  50.710  1.00  0.00     0.073 C 
HETATM    3  C   UNL     1      26.203  40.202  50.773  1.00  0.00     0.047 C 
HETATM    4  C   UNL     1      27.051  42.113  49.338  1.00  0.00     0.097 C 
HETATM    5  C   UNL     1      25.843  42.964  49.348  1.00  0.00     0.042 A 
HETATM    6  C   UNL     1      25.203  43.472  50.459  1.00  0.00     0.030 A 
HETATM    7  C   UNL     1      24.085  44.123  49.911  1.00  0.00     0.190 A 
HETATM    8  N   UNL     1      24.024  44.055  48.586  1.00  0.00    -0.149 NA
HETATM    9  N   UNL     1      25.120  43.351  48.258  1.00  0.00    -0.279 N 
HETATM   10  H   UNL     1      25.290  43.157  47.276  1.00  0.00     0.189 HD
HETATM   11  C   UNL     1      25.658  43.209  51.861  1.00  0.00     0.074 C 
ENDROOT
BRANCH  11  12
HETATM   12  C   UNL     1      25.717  44.561  52.562  1.00  0.00    -0.048 A 
HETATM   13  C   UNL     1      25.421  44.640  53.934  1.00  0.00     0.011 A 
HETATM   14  C   UNL     1      25.475  45.863  54.607  1.00  0.00     0.043 A 
HETATM   15  C   UNL     1      25.835  47.014  53.917  1.00  0.00     0.116 A 
HETATM   16  F   UNL     1      25.885  48.185  54.565  1.00  0.00    -0.206 F 
HETATM   17  C   UNL     1      26.143  46.966  52.566  1.00  0.00     0.043 A 
HETATM   18  C   UNL     1      26.091  45.745  51.892  1.00  0.00     0.011 A 
ENDBRANCH  11  12
BRANCH   1  19
HETATM   19  C   UNL     1      28.197  43.145  52.212  1.00  0.00     0.267 C 
HETATM   20  O   UNL     1      28.803  43.798  51.373  1.00  0.00    -0.265 OA
BRANCH  19  21
HETATM   21  O   UNL     1      28.571  42.990  53.513  1.00  0.00    -0.316 OA
BRANCH  21  22
HETATM   22  C   UNL     1      29.586  43.881  54.011  1.00  0.00     0.123 C 
HETATM   23  C   UNL     1      30.574  43.107  54.879  1.00  0.00     0.040 C 
HETATM   24  C   UNL     1      28.870  44.942  54.838  1.00  0.00     0.040 C 
ENDBRANCH  21  22
ENDBRANCH  19  21
ENDBRANCH   1  19
BRANCH   2  25
HETATM   25  O   UNL     1      28.489  40.785  50.790  1.00  0.00    -0.389 OA
HETATM   26  H   UNL     1      28.723  40.450  49.901  1.00  0.00     0.210 HD
ENDBRANCH   2  25
BRANCH   7  27
HETATM   27  O   UNL     1      23.094  44.779  50.518  1.00  0.00    -0.343 OA
HETATM   28  H   UNL     1      23.265  45.732  50.482  1.00  0.00     0.219 HD
ENDBRANCH   7  27
TORSDOF 6
ENDMDL
MODEL 5
REMARK VINA RESULT:      -6.9     12.123     13.859
REMARK  6 active torsions:
REMARK  status: ('A' for Active; 'I' for Inactive)
REMARK    1  A    between atoms: C_2  and  O_3 
REMARK    2  A    between atoms: O_3  and  C_4 
REMARK    3  A    between atoms: C_4  and  C_5 
REMARK    4  A    between atoms: C_6  and  O_7 
REMARK    5  A    between atoms: C_12  and  O_13 
REMARK    6  A    between atoms: C_17  and  C_18 
ROOT
HETATM    1  C   UNL     1      25.217  42.760  50.705  1.00  0.00     0.133 C 
HETATM    2  C   UNL     1      24.255  43.390  49.638  1.00  0.00     0.073 C 
HETATM    3  C   UNL     1      22.818  43.426  50.195  1.00  0.00     0.047 C 
HETATM    4  C   UNL     1      24.683  44.817  49.187  1.00  0.00     0.097 C 
HETATM    5  C   UNL     1      25.039  45.621  50.375  1.00  0.00     0.042 A 
HETATM    6  C   UNL     1      25.437  45.140  51.605  1.00  0.00     0.030 A 
HETATM    7  C   UNL     1      25.563  46.309  52.376  1.00  0.00     0.190 A 
HETATM    8  N   UNL     1      25.292  47.422  51.706  1.00  0.00    -0.149 NA
HETATM    9  N   UNL     1      24.985  46.980  50.474  1.00  0.00    -0.279 N 
HETATM   10  H   UNL     1      24.729  47.664  49.769  1.00  0.00     0.189 HD
HETATM   11  C   UNL     1      25.555  43.681  51.918  1.00  0.00     0.074 C 
ENDROOT
BRANCH  11  12
HETATM   12  C   UNL     1      26.923  43.480  52.558  1.00  0.00    -0.048 A 
HETATM   13  C   UNL     1      27.013  42.837  53.805  1.00  0.00     0.011 A 
HETATM   14  C   UNL     1      28.254  42.630  54.412  1.00  0.00     0.043 A 
HETATM   15  C   UNL     1      29.413  43.054  53.775  1.00  0.00     0.116 A 
HETATM   16  F   UNL     1      30.601  42.854  54.361  1.00  0.00    -0.206 F 
HETATM   17  C   UNL     1      29.357  43.680  52.539  1.00  0.00     0.043 A 
HETATM   18  C   UNL     1      28.119  43.887  51.929  1.00  0.00     0.011 A 
ENDBRANCH  11  12
BRANCH   1  19
HETATM   19  C   UNL     1      26.449  42.206  50.021  1.00  0.00     0.267 C 
HETATM   20  O   UNL     1      27.061  42.767  49.121  1.00  0.00    -0.265 OA
BRANCH  19  21
HETATM   21  O   UNL     1      26.737  40.971  50.520  1.00  0.00    -0.316 OA
BRANCH  21  22
HETATM   22  C   UNL     1      28.036  40.430  50.215  1.00  0.00     0.123 C 
HETATM   23  C   UNL     1      27.883  39.130  49.431  1.00  0.00     0.040 C 
HETATM   24  C   UNL     1      28.727  40.169  51.548  1.00  0.00     0.040 C 
ENDBRANCH  21  22
ENDBRANCH  19  21
ENDBRANCH   1  19
BRANCH   2  25
HETATM   25  O   UNL     1      24.174  42.543  48.478  1.00  0.00    -0.389 OA
HETATM   26  H   UNL     1      24.301  41.617  48.769  1.00  0.00     0.210 HD
ENDBRANCH   2  25
BRANCH   7  27
HETATM   27  O   UNL     1      25.901  46.455  53.659  1.00  0.00    -0.343 OA
HETATM   28  H   UNL     1      26.200  47.363  53.814  1.00  0.00     0.219 HD
ENDBRANCH   7  27
TORSDOF 6
ENDMDL
MODEL 6
REMARK VINA RESULT:      -6.7     26.401     28.034
REMARK  6 active torsions:
REMARK  status: ('A' for Active; 'I' for Inactive)
REMARK    1  A    between atoms: C_2  and  O_3 
REMARK    2  A    between atoms: O_3  and  C_4 
REMARK    3  A    between atoms: C_4  and  C_5 
REMARK    4  A    between atoms: C_6  and  O_7 
REMARK    5  A    between atoms: C_12  and  O_13 
REMARK    6  A    between atoms: C_17  and  C_18 
ROOT
HETATM    1  C   UNL     1      37.401  45.879  65.502  1.00  0.00     0.133 C 
HETATM    2  C   UNL     1      36.774  46.707  66.677  1.00  0.00     0.073 C 
HETATM    3  C   UNL     1      35.616  47.571  66.141  1.00  0.00     0.047 C 
HETATM    4  C   UNL     1      36.272  45.822  67.856  1.00  0.00     0.097 C 
HETATM    5  C   UNL     1      35.510  44.675  67.319  1.00  0.00     0.042 A 
HETATM    6  C   UNL     1      35.614  44.139  66.053  1.00  0.00     0.030 A 
HETATM    7  C   UNL     1      34.621  43.144  66.049  1.00  0.00     0.190 A 
HETATM    8  N   UNL     1      33.964  43.041  67.198  1.00  0.00    -0.149 NA
HETATM    9  N   UNL     1      34.533  43.981  67.970  1.00  0.00    -0.279 N 
HETATM   10  H   UNL     1      34.184  44.101  68.916  1.00  0.00     0.189 HD
HETATM   11  C   UNL     1      36.540  44.676  65.006  1.00  0.00     0.074 C 
ENDROOT
BRANCH  11  12
HETATM   12  C   UNL     1      37.305  43.483  64.447  1.00  0.00    -0.048 A 
HETATM   13  C   UNL     1      37.709  43.493  63.100  1.00  0.00     0.011 A 
HETATM   14  C   UNL     1      38.420  42.419  62.560  1.00  0.00     0.043 A 
HETATM   15  C   UNL     1      38.741  41.332  63.364  1.00  0.00     0.116 A 
HETATM   16  F   UNL     1      39.423  40.303  62.842  1.00  0.00    -0.206 F 
HETATM   17  C   UNL     1      38.367  41.298  64.698  1.00  0.00     0.043 A 
HETATM   18  C   UNL     1      37.657  42.371  65.240  1.00  0.00     0.011 A 
ENDBRANCH  11  12
BRANCH   1  19
HETATM   19  C   UNL     1      38.821  45.486  65.851  1.00  0.00     0.267 C 
HETATM   20  O   UNL     1      39.160  44.948  66.897  1.00  0.00    -0.265 OA
BRANCH  19  21
HETATM   21  O   UNL     1      39.665  45.872  64.852  1.00  0.00    -0.316 OA
BRANCH  21  22
HETATM   22  C   UNL     1      41.035  45.441  64.953  1.00  0.00     0.123 C 
HETATM   23  C   UNL     1      41.966  46.641  64.804  1.00  0.00     0.040 C 
HETATM   24  C   UNL     1      41.266  44.446  63.822  1.00  0.00     0.040 C 
ENDBRANCH  21  22
ENDBRANCH  19  21
ENDBRANCH   1  19
BRANCH   2  25
HETATM   25  O   UNL     1      37.730  47.655  67.184  1.00  0.00    -0.389 OA
HETATM   26  H   UNL     1      37.783  48.400  66.553  1.00  0.00     0.210 HD
ENDBRANCH   2  25
BRANCH   7  27
HETATM   27  O   UNL     1      34.249  42.311  65.075  1.00  0.00    -0.343 OA
HETATM   28  H   UNL     1      34.099  42.810  64.259  1.00  0.00     0.219 HD
ENDBRANCH   7  27
TORSDOF 6
ENDMDL
MODEL 7
REMARK VINA RESULT:      -6.6     12.362     14.165
REMARK  6 active torsions:
REMARK  status: ('A' for Active; 'I' for Inactive)
REMARK    1  A    between atoms: C_2  and  O_3 
REMARK    2  A    between atoms: O_3  and  C_4 
REMARK    3  A    between atoms: C_4  and  C_5 
REMARK    4  A    between atoms: C_6  and  O_7 
REMARK    5  A    between atoms: C_12  and  O_13 
REMARK    6  A    between atoms: C_17  and  C_18 
ROOT
HETATM    1  C   UNL     1      26.853  45.814  51.995  1.00  0.00     0.133 C 
HETATM    2  C   UNL     1      25.726  46.759  51.450  1.00  0.00     0.073 C 
HETATM    3  C   UNL     1      26.298  47.656  50.336  1.00  0.00     0.047 C 
HETATM    4  C   UNL     1      24.478  45.991  50.923  1.00  0.00     0.097 C 
HETATM    5  C   UNL     1      24.918  44.861  50.079  1.00  0.00     0.042 A 
HETATM    6  C   UNL     1      26.145  44.233  50.118  1.00  0.00     0.030 A 
HETATM    7  C   UNL     1      26.060  43.305  49.066  1.00  0.00     0.190 A 
HETATM    8  N   UNL     1      24.894  43.323  48.432  1.00  0.00    -0.149 NA
HETATM    9  N   UNL     1      24.201  44.276  49.077  1.00  0.00    -0.279 N 
HETATM   10  H   UNL     1      23.259  44.482  48.760  1.00  0.00     0.189 HD
HETATM   11  C   UNL     1      27.246  44.637  51.050  1.00  0.00     0.074 C 
ENDROOT
BRANCH  11  12
HETATM   12  C   UNL     1      27.736  43.362  51.726  1.00  0.00    -0.048 A 
HETATM   13  C   UNL     1      29.063  43.292  52.184  1.00  0.00     0.011 A 
HETATM   14  C   UNL     1      29.540  42.141  52.816  1.00  0.00     0.043 A 
HETATM   15  C   UNL     1      28.692  41.056  53.003  1.00  0.00     0.116 A 
HETATM   16  F   UNL     1      29.153  39.954  53.609  1.00  0.00    -0.206 F 
HETATM   17  C   UNL     1      27.375  41.100  52.572  1.00  0.00     0.043 A 
HETATM   18  C   UNL     1      26.896  42.250  51.942  1.00  0.00     0.011 A 
ENDBRANCH  11  12
BRANCH   1  19
HETATM   19  C   UNL     1      26.507  45.356  53.397  1.00  0.00     0.267 C 
HETATM   20  O   UNL     1      25.399  44.977  53.754  1.00  0.00    -0.265 OA
BRANCH  19  21
HETATM   21  O   UNL     1      27.596  45.485  54.206  1.00  0.00    -0.316 OA
BRANCH  21  22
HETATM   22  C   UNL     1      27.493  46.419  55.296  1.00  0.00     0.123 C 
HETATM   23  C   UNL     1      27.818  47.826  54.804  1.00  0.00     0.040 C 
HETATM   24  C   UNL     1      28.502  45.978  56.349  1.00  0.00     0.040 C 
ENDBRANCH  21  22
ENDBRANCH  19  21
ENDBRANCH   1  19
BRANCH   2  25
HETATM   25  O   UNL     1      25.306  47.677  52.476  1.00  0.00    -0.389 OA
HETATM   26  H   UNL     1      25.263  48.571  52.083  1.00  0.00     0.210 HD
ENDBRANCH   2  25
BRANCH   7  27
HETATM   27  O   UNL     1      26.966  42.432  48.619  1.00  0.00    -0.343 OA
HETATM   28  H   UNL     1      27.847  42.834  48.650  1.00  0.00     0.219 HD
ENDBRANCH   7  27
TORSDOF 6
ENDMDL
MODEL 8
REMARK VINA RESULT:      -6.6     12.094     13.819
REMARK  6 active torsions:
REMARK  status: ('A' for Active; 'I' for Inactive)
REMARK    1  A    between atoms: C_2  and  O_3 
REMARK    2  A    between atoms: O_3  and  C_4 
REMARK    3  A    between atoms: C_4  and  C_5 
REMARK    4  A    between atoms: C_6  and  O_7 
REMARK    5  A    between atoms: C_12  and  O_13 
REMARK    6  A    between atoms: C_17  and  C_18 
ROOT
HETATM    1  C   UNL     1      25.682  42.876  49.694  1.00  0.00     0.133 C 
HETATM    2  C   UNL     1      25.821  41.346  49.378  1.00  0.00     0.073 C 
HETATM    3  C   UNL     1      26.916  41.136  48.314  1.00  0.00     0.047 C 
HETATM    4  C   UNL     1      26.131  40.482  50.635  1.00  0.00     0.097 C 
HETATM    5  C   UNL     1      27.192  41.135  51.430  1.00  0.00     0.042 A 
HETATM    6  C   UNL     1      27.524  42.473  51.417  1.00  0.00     0.030 A 
HETATM    7  C   UNL     1      28.635  42.532  52.276  1.00  0.00     0.190 A 
HETATM    8  N   UNL     1      28.968  41.358  52.798  1.00  0.00    -0.149 NA
HETATM    9  N   UNL     1      28.062  40.514  52.277  1.00  0.00    -0.279 N 
HETATM   10  H   UNL     1      28.119  39.532  52.529  1.00  0.00     0.189 HD
HETATM   11  C   UNL     1      26.835  43.483  50.553  1.00  0.00     0.074 C 
ENDROOT
BRANCH  11  12
HETATM   12  C   UNL     1      26.461  44.651  51.457  1.00  0.00    -0.048 A 
HETATM   13  C   UNL     1      26.404  45.948  50.919  1.00  0.00     0.011 A 
HETATM   14  C   UNL     1      26.055  47.038  51.721  1.00  0.00     0.043 A 
HETATM   15  C   UNL     1      25.752  46.838  53.061  1.00  0.00     0.116 A 
HETATM   16  F   UNL     1      25.419  47.886  53.827  1.00  0.00    -0.206 F 
HETATM   17  C   UNL     1      25.788  45.569  53.618  1.00  0.00     0.043 A 
HETATM   18  C   UNL     1      26.135  44.478  52.819  1.00  0.00     0.011 A 
ENDBRANCH  11  12
BRANCH   1  19
HETATM   19  C   UNL     1      24.308  43.160  50.265  1.00  0.00     0.267 C 
HETATM   20  O   UNL     1      23.807  42.563  51.209  1.00  0.00    -0.265 OA
BRANCH  19  21
HETATM   21  O   UNL     1      23.697  44.135  49.535  1.00  0.00    -0.316 OA
BRANCH  21  22
HETATM   22  C   UNL     1      22.627  43.726  48.664  1.00  0.00     0.123 C 
HETATM   23  C   UNL     1      23.109  43.723  47.216  1.00  0.00     0.040 C 
HETATM   24  C   UNL     1      21.501  44.736  48.847  1.00  0.00     0.040 C 
ENDBRANCH  21  22
ENDBRANCH  19  21
ENDBRANCH   1  19
BRANCH   2  25
HETATM   25  O   UNL     1      24.617  40.854  48.762  1.00  0.00    -0.389 OA
HETATM   26  H   UNL     1      24.211  41.588  48.259  1.00  0.00     0.210 HD
ENDBRANCH   2  25
BRANCH   7  27
HETATM   27  O   UNL     1      29.390  43.575  52.628  1.00  0.00    -0.343 OA
HETATM   28  H   UNL     1      29.201  44.325  52.045  1.00  0.00     0.219 HD
ENDBRANCH   7  27
TORSDOF 6
ENDMDL
MODEL 9
REMARK VINA RESULT:      -6.6     11.643     13.489
REMARK  6 active torsions:
REMARK  status: ('A' for Active; 'I' for Inactive)
REMARK    1  A    between atoms: C_2  and  O_3 
REMARK    2  A    between atoms: O_3  and  C_4 
REMARK    3  A    between atoms: C_4  and  C_5 
REMARK    4  A    between atoms: C_6  and  O_7 
REMARK    5  A    between atoms: C_12  and  O_13 
REMARK    6  A    between atoms: C_17  and  C_18 
ROOT
HETATM    1  C   UNL     1      26.960  44.647  50.829  1.00  0.00     0.133 C 
HETATM    2  C   UNL     1      26.130  45.926  51.196  1.00  0.00     0.073 C 
HETATM    3  C   UNL     1      26.374  47.021  50.140  1.00  0.00     0.047 C 
HETATM    4  C   UNL     1      24.603  45.653  51.332  1.00  0.00     0.097 C 
HETATM    5  C   UNL     1      24.151  44.822  50.196  1.00  0.00     0.042 A 
HETATM    6  C   UNL     1      24.932  43.990  49.423  1.00  0.00     0.030 A 
HETATM    7  C   UNL     1      24.030  43.521  48.452  1.00  0.00     0.190 A 
HETATM    8  N   UNL     1      22.796  43.989  48.600  1.00  0.00    -0.149 NA
HETATM    9  N   UNL     1      22.887  44.776  49.685  1.00  0.00    -0.279 N 
HETATM   10  H   UNL     1      22.053  45.263  49.996  1.00  0.00     0.189 HD
HETATM   11  C   UNL     1      26.405  43.818  49.630  1.00  0.00     0.074 C 
ENDROOT
BRANCH  11  12
HETATM   12  C   UNL     1      26.669  42.318  49.666  1.00  0.00    -0.048 A 
HETATM   13  C   UNL     1      25.828  41.487  50.427  1.00  0.00     0.011 A 
HETATM   14  C   UNL     1      26.039  40.107  50.472  1.00  0.00     0.043 A 
HETATM   15  C   UNL     1      27.085  39.546  49.751  1.00  0.00     0.116 A 
HETATM   16  F   UNL     1      27.285  38.222  49.798  1.00  0.00    -0.206 F 
HETATM   17  C   UNL     1      27.925  40.338  48.982  1.00  0.00     0.043 A 
HETATM   18  C   UNL     1      27.715  41.717  48.934  1.00  0.00     0.011 A 
ENDBRANCH  11  12
BRANCH   1  19
HETATM   19  C   UNL     1      27.190  43.810  52.070  1.00  0.00     0.267 C 
HETATM   20  O   UNL     1      26.346  43.586  52.928  1.00  0.00    -0.265 OA
BRANCH  19  21
HETATM   21  O   UNL     1      28.488  43.396  52.113  1.00  0.00    -0.316 OA
BRANCH  21  22
HETATM   22  C   UNL     1      28.865  42.541  53.207  1.00  0.00     0.123 C 
HETATM   23  C   UNL     1      30.246  42.936  53.722  1.00  0.00     0.040 C 
HETATM   24  C   UNL     1      28.888  41.117  52.664  1.00  0.00     0.040 C 
ENDBRANCH  21  22
ENDBRANCH  19  21
ENDBRANCH   1  19
BRANCH   2  25
HETATM   25  O   UNL     1      26.610  46.495  52.427  1.00  0.00    -0.389 OA
HETATM   26  H   UNL     1      27.500  46.867  52.263  1.00  0.00     0.210 HD
ENDBRANCH   2  25
BRANCH   7  27
HETATM   27  O   UNL     1      24.233  42.696  47.423  1.00  0.00    -0.343 OA
HETATM   28  H   UNL     1      23.983  41.794  47.674  1.00  0.00     0.219 HD
ENDBRANCH   7  27
TORSDOF 6
ENDMDL
MODEL 10
REMARK VINA RESULT:      -6.5     26.192     27.380
REMARK  6 active torsions:
REMARK  status: ('A' for Active; 'I' for Inactive)
REMARK    1  A    between atoms: C_2  and  O_3 
REMARK    2  A    between atoms: O_3  and  C_4 
REMARK    3  A    between atoms: C_4  and  C_5 
REMARK    4  A    between atoms: C_6  and  O_7 
REMARK    5  A    between atoms: C_12  and  O_13 
REMARK    6  A    between atoms: C_17  and  C_18 
ROOT
HETATM    1  C   UNL     1      39.268  43.948  64.769  1.00  0.00     0.133 C 
HETATM    2  C   UNL     1      39.058  42.452  64.346  1.00  0.00     0.073 C 
HETATM    3  C   UNL     1      39.381  41.529  65.537  1.00  0.00     0.047 C 
HETATM    4  C   UNL     1      37.623  42.155  63.820  1.00  0.00     0.097 C 
HETATM    5  C   UNL     1      36.631  42.777  64.721  1.00  0.00     0.042 A 
HETATM    6  C   UNL     1      36.845  43.843  65.570  1.00  0.00     0.030 A 
HETATM    7  C   UNL     1      35.616  43.964  66.241  1.00  0.00     0.190 A 
HETATM    8  N   UNL     1      34.705  43.081  65.851  1.00  0.00    -0.149 NA
HETATM    9  N   UNL     1      35.343  42.370  64.907  1.00  0.00    -0.279 N 
HETATM   10  H   UNL     1      34.841  41.611  64.455  1.00  0.00     0.189 HD
HETATM   11  C   UNL     1      38.167  44.532  65.707  1.00  0.00     0.074 C 
ENDROOT
BRANCH  11  12
HETATM   12  C   UNL     1      37.896  46.026  65.582  1.00  0.00    -0.048 A 
HETATM   13  C   UNL     1      38.516  46.917  66.476  1.00  0.00     0.011 A 
HETATM   14  C   UNL     1      38.295  48.293  66.380  1.00  0.00     0.043 A 
HETATM   15  C   UNL     1      37.462  48.790  65.386  1.00  0.00     0.116 A 
HETATM   16  F   UNL     1      37.251  50.110  65.298  1.00  0.00    -0.206 F 
HETATM   17  C   UNL     1      36.845  47.937  64.482  1.00  0.00     0.043 A 
HETATM   18  C   UNL     1      37.066  46.562  64.575  1.00  0.00     0.011 A 
ENDBRANCH  11  12
BRANCH   1  19
HETATM   19  C   UNL     1      39.511  44.799  63.540  1.00  0.00     0.267 C 
HETATM   20  O   UNL     1      38.982  44.620  62.451  1.00  0.00    -0.265 OA
BRANCH  19  21
HETATM   21  O   UNL     1      40.444  45.753  63.818  1.00  0.00    -0.316 OA
BRANCH  21  22
HETATM   22  C   UNL     1      41.538  45.367  64.669  1.00  0.00     0.123 C 
HETATM   23  C   UNL     1      41.962  46.550  65.535  1.00  0.00     0.040 C 
HETATM   24  C   UNL     1      42.680  44.944  63.753  1.00  0.00     0.040 C 
ENDBRANCH  21  22
ENDBRANCH  19  21
ENDBRANCH   1  19
BRANCH   2  25
HETATM   25  O   UNL     1      40.009  42.083  63.332  1.00  0.00    -0.389 OA
HETATM   26  H   UNL     1      39.593  41.409  62.758  1.00  0.00     0.210 HD
ENDBRANCH   2  25
BRANCH   7  27
HETATM   27  O   UNL     1      35.245  44.817  67.199  1.00  0.00    -0.343 OA
HETATM   28  H   UNL     1      35.714  45.657  67.087  1.00  0.00     0.219 HD
ENDBRANCH   7  27
TORSDOF 6
ENDMDL
