MODEL 1
REMARK VINA RESULT:      -8.9      0.000      0.000
REMARK  5 active torsions:
REMARK  status: ('A' for Active; 'I' for Inactive)
REMARK    1  A    between atoms: C_3  and  S_4 
REMARK    2  A    between atoms: S_4  and  C_5 
REMARK    3  A    between atoms: C_5  and  C_6 
REMARK       I    between atoms: C_6  and  N_7 
REMARK    4  A    between atoms: N_7  and  C_8 
REMARK    5  A    between atoms: C_10  and  C_11 
ROOT
HETATM    1  C   UNL     1      25.908  45.160  52.949  1.00  0.00     0.231 C 
HETATM    2  N   UNL     1      27.277  45.243  52.738  1.00  0.00    -0.327 N 
HETATM    3  O   UNL     1      25.326  44.331  53.643  1.00  0.00    -0.272 OA
HETATM    4  H   UNL     1      27.576  45.869  52.000  1.00  0.00     0.169 HD
ENDROOT
BRANCH   2   5
HETATM    5  C   UNL     1      28.290  44.506  53.387  1.00  0.00     0.035 A 
HETATM    6  C   UNL     1      28.842  44.863  54.621  1.00  0.00     0.042 A 
HETATM    7  C   UNL     1      29.879  44.113  55.202  1.00  0.00    -0.021 A 
HETATM    8  C   UNL     1      30.362  42.992  54.517  1.00  0.00     0.012 A 
HETATM    9  C   UNL     1      29.819  42.626  53.284  1.00  0.00     0.003 A 
HETATM   10  C   UNL     1      28.789  43.380  52.722  1.00  0.00     0.029 A 
BRANCH   7  11
HETATM   11  C   UNL     1      30.459  44.497  56.481  1.00  0.00     0.010 A 
HETATM   12  C   UNL     1      31.435  43.861  57.289  1.00  0.00     0.152 A 
HETATM   13  N   UNL     1      31.704  44.536  58.410  1.00  0.00    -0.187 NA
HETATM   14  N   UNL     1      30.904  45.609  58.327  1.00  0.00    -0.289 N 
HETATM   15  H   UNL     1      30.929  46.289  59.080  1.00  0.00     0.188 HD
HETATM   16  C   UNL     1      30.138  45.632  57.199  1.00  0.00     0.123 A 
ENDBRANCH   7  11
ENDBRANCH   2   5
BRANCH   1  17
HETATM   17  C   UNL     1      25.140  46.278  52.268  1.00  0.00     0.182 C 
BRANCH  17  18
HETATM   18  S   UNL     1      24.787  45.856  50.535  1.00  0.00    -0.120 SA
BRANCH  18  19
HETATM   19  C   UNL     1      25.425  47.336  49.754  1.00  0.00     0.006 A 
HETATM   20  C   UNL     1      24.618  48.382  49.264  1.00  0.00    -0.045 A 
HETATM   21  C   UNL     1      23.114  48.358  49.310  1.00  0.00     0.049 C 
HETATM   22  C   UNL     1      25.239  49.527  48.732  1.00  0.00     0.008 A 
HETATM   23  C   UNL     1      26.628  49.617  48.643  1.00  0.00     0.001 A 
HETATM   24  C   UNL     1      27.420  48.564  49.086  1.00  0.00     0.001 A 
HETATM   25  C   UNL     1      26.821  47.431  49.638  1.00  0.00     0.019 A 
ENDBRANCH  18  19
ENDBRANCH  17  18
ENDBRANCH   1  17
TORSDOF 5
ENDMDL
MODEL 2
REMARK VINA RESULT:      -8.8      2.760      8.517
REMARK  5 active torsions:
REMARK  status: ('A' for Active; 'I' for Inactive)
REMARK    1  A    between atoms: C_3  and  S_4 
REMARK    2  A    between atoms: S_4  and  C_5 
REMARK    3  A    between atoms: C_5  and  C_6 
REMARK       I    between atoms: C_6  and  N_7 
REMARK    4  A    between atoms: N_7  and  C_8 
REMARK    5  A    between atoms: C_10  and  C_11 
ROOT
HETATM    1  C   UNL     1      26.745  44.834  53.897  1.00  0.00     0.231 C 
HETATM    2  N   UNL     1      26.092  45.962  53.417  1.00  0.00    -0.327 N 
HETATM    3  O   UNL     1      26.913  43.778  53.295  1.00  0.00    -0.272 OA
HETATM    4  H   UNL     1      25.884  46.679  54.101  1.00  0.00     0.169 HD
ENDROOT
BRANCH   2   5
HETATM    5  C   UNL     1      25.628  46.189  52.105  1.00  0.00     0.035 A 
HETATM    6  C   UNL     1      26.045  47.259  51.307  1.00  0.00     0.042 A 
HETATM    7  C   UNL     1      25.518  47.460  50.020  1.00  0.00    -0.021 A 
HETATM    8  C   UNL     1      24.551  46.566  49.543  1.00  0.00     0.012 A 
HETATM    9  C   UNL     1      24.126  45.495  50.331  1.00  0.00     0.003 A 
HETATM   10  C   UNL     1      24.661  45.309  51.606  1.00  0.00     0.029 A 
BRANCH   7  11
HETATM   11  C   UNL     1      25.946  48.583  49.198  1.00  0.00     0.010 A 
HETATM   12  C   UNL     1      25.217  49.432  48.329  1.00  0.00     0.152 A 
HETATM   13  N   UNL     1      25.980  50.358  47.743  1.00  0.00    -0.187 NA
HETATM   14  N   UNL     1      27.203  50.111  48.235  1.00  0.00    -0.289 N 
HETATM   15  H   UNL     1      27.973  50.698  47.932  1.00  0.00     0.188 HD
HETATM   16  C   UNL     1      27.238  49.060  49.103  1.00  0.00     0.123 A 
ENDBRANCH   7  11
ENDBRANCH   2   5
BRANCH   1  17
HETATM   17  C   UNL     1      27.329  45.039  55.283  1.00  0.00     0.182 C 
BRANCH  17  18
HETATM   18  S   UNL     1      28.781  46.132  55.215  1.00  0.00    -0.120 SA
BRANCH  18  19
HETATM   19  C   UNL     1      29.932  45.122  56.144  1.00  0.00     0.006 A 
HETATM   20  C   UNL     1      30.512  43.934  55.656  1.00  0.00    -0.045 A 
HETATM   21  C   UNL     1      30.202  43.355  54.302  1.00  0.00     0.049 C 
HETATM   22  C   UNL     1      31.457  43.263  56.454  1.00  0.00     0.008 A 
HETATM   23  C   UNL     1      31.786  43.730  57.726  1.00  0.00     0.001 A 
HETATM   24  C   UNL     1      31.178  44.877  58.222  1.00  0.00     0.001 A 
HETATM   25  C   UNL     1      30.256  45.567  57.435  1.00  0.00     0.019 A 
ENDBRANCH  18  19
ENDBRANCH  17  18
ENDBRANCH   1  17
TORSDOF 5
ENDMDL
MODEL 3
REMARK VINA RESULT:      -8.6      3.083      9.107
REMARK  5 active torsions:
REMARK  status: ('A' for Active; 'I' for Inactive)
REMARK    1  A    between atoms: C_3  and  S_4 
REMARK    2  A    between atoms: S_4  and  C_5 
REMARK    3  A    between atoms: C_5  and  C_6 
REMARK       I    between atoms: C_6  and  N_7 
REMARK    4  A    between atoms: N_7  and  C_8 
REMARK    5  A    between atoms: C_10  and  C_11 
ROOT
HETATM    1  C   UNL     1      25.912  46.663  52.621  1.00  0.00     0.231 C 
HETATM    2  N   UNL     1      26.054  46.597  51.242  1.00  0.00    -0.327 N 
HETATM    3  O   UNL     1      25.635  47.662  53.279  1.00  0.00    -0.272 OA
HETATM    4  H   UNL     1      26.459  45.744  50.877  1.00  0.00     0.169 HD
ENDROOT
BRANCH   2   5
HETATM    5  C   UNL     1      25.763  47.607  50.302  1.00  0.00     0.035 A 
HETATM    6  C   UNL     1      24.466  47.947  49.903  1.00  0.00     0.042 A 
HETATM    7  C   UNL     1      24.236  48.936  48.931  1.00  0.00    -0.021 A 
HETATM    8  C   UNL     1      25.338  49.581  48.355  1.00  0.00     0.012 A 
HETATM    9  C   UNL     1      26.637  49.249  48.745  1.00  0.00     0.003 A 
HETATM   10  C   UNL     1      26.847  48.267  49.713  1.00  0.00     0.029 A 
BRANCH   7  11
HETATM   11  C   UNL     1      22.885  49.276  48.509  1.00  0.00     0.010 A 
HETATM   12  C   UNL     1      22.402  50.329  47.693  1.00  0.00     0.152 A 
HETATM   13  N   UNL     1      21.076  50.304  47.540  1.00  0.00    -0.187 NA
HETATM   14  N   UNL     1      20.699  49.234  48.256  1.00  0.00    -0.289 N 
HETATM   15  H   UNL     1      19.712  49.002  48.294  1.00  0.00     0.188 HD
HETATM   16  C   UNL     1      21.740  48.589  48.858  1.00  0.00     0.123 A 
ENDBRANCH   7  11
ENDBRANCH   2   5
BRANCH   1  17
HETATM   17  C   UNL     1      26.070  45.311  53.293  1.00  0.00     0.182 C 
BRANCH  17  18
HETATM   18  S   UNL     1      27.339  44.317  52.451  1.00  0.00    -0.120 SA
BRANCH  18  19
HETATM   19  C   UNL     1      28.554  44.247  53.765  1.00  0.00     0.006 A 
HETATM   20  C   UNL     1      29.523  43.232  53.891  1.00  0.00    -0.045 A 
HETATM   21  C   UNL     1      29.627  42.064  52.948  1.00  0.00     0.049 C 
HETATM   22  C   UNL     1      30.469  43.323  54.929  1.00  0.00     0.008 A 
HETATM   23  C   UNL     1      30.429  44.369  55.850  1.00  0.00     0.001 A 
HETATM   24  C   UNL     1      29.443  45.343  55.749  1.00  0.00     0.001 A 
HETATM   25  C   UNL     1      28.512  45.282  54.713  1.00  0.00     0.019 A 
ENDBRANCH  18  19
ENDBRANCH  17  18
ENDBRANCH   1  17
TORSDOF 5
ENDMDL
MODEL 4
REMARK VINA RESULT:      -8.5      1.685      2.008
REMARK  5 active torsions:
REMARK  status: ('A' for Active; 'I' for Inactive)
REMARK    1  A    between atoms: C_3  and  S_4 
REMARK    2  A    between atoms: S_4  and  C_5 
REMARK    3  A    between atoms: C_5  and  C_6 
REMARK       I    between atoms: C_6  and  N_7 
REMARK    4  A    between atoms: N_7  and  C_8 
REMARK    5  A    between atoms: C_10  and  C_11 
ROOT
HETATM    1  C   UNL     1      26.396  44.583  50.159  1.00  0.00     0.231 C 
HETATM    2  N   UNL     1      26.348  44.470  51.542  1.00  0.00    -0.327 N 
HETATM    3  O   UNL     1      27.264  44.129  49.420  1.00  0.00    -0.272 OA
HETATM    4  H   UNL     1      25.666  45.052  52.013  1.00  0.00     0.169 HD
ENDROOT
BRANCH   2   5
HETATM    5  C   UNL     1      27.187  43.691  52.366  1.00  0.00     0.035 A 
HETATM    6  C   UNL     1      28.005  44.223  53.368  1.00  0.00     0.042 A 
HETATM    7  C   UNL     1      28.852  43.402  54.133  1.00  0.00    -0.021 A 
HETATM    8  C   UNL     1      28.870  42.027  53.871  1.00  0.00     0.012 A 
HETATM    9  C   UNL     1      28.059  41.485  52.873  1.00  0.00     0.003 A 
HETATM   10  C   UNL     1      27.222  42.313  52.124  1.00  0.00     0.029 A 
BRANCH   7  11
HETATM   11  C   UNL     1      29.712  43.963  55.165  1.00  0.00     0.010 A 
HETATM   12  C   UNL     1      29.673  45.214  55.830  1.00  0.00     0.152 A 
HETATM   13  N   UNL     1      30.654  45.359  56.726  1.00  0.00    -0.187 NA
HETATM   14  N   UNL     1      31.326  44.201  56.642  1.00  0.00    -0.289 N 
HETATM   15  H   UNL     1      32.134  44.067  57.241  1.00  0.00     0.188 HD
HETATM   16  C   UNL     1      30.808  43.336  55.723  1.00  0.00     0.123 A 
ENDBRANCH   7  11
ENDBRANCH   2   5
BRANCH   1  17
HETATM   17  C   UNL     1      25.185  45.298  49.587  1.00  0.00     0.182 C 
BRANCH  17  18
HETATM   18  S   UNL     1      24.713  46.707  50.636  1.00  0.00    -0.120 SA
BRANCH  18  19
HETATM   19  C   UNL     1      25.426  48.029  49.660  1.00  0.00     0.006 A 
HETATM   20  C   UNL     1      24.677  48.902  48.846  1.00  0.00    -0.045 A 
HETATM   21  C   UNL     1      23.185  48.801  48.676  1.00  0.00     0.049 C 
HETATM   22  C   UNL     1      25.343  49.948  48.180  1.00  0.00     0.008 A 
HETATM   23  C   UNL     1      26.725  50.098  48.278  1.00  0.00     0.001 A 
HETATM   24  C   UNL     1      27.467  49.207  49.045  1.00  0.00     0.001 A 
HETATM   25  C   UNL     1      26.820  48.179  49.731  1.00  0.00     0.019 A 
ENDBRANCH  18  19
ENDBRANCH  17  18
ENDBRANCH   1  17
TORSDOF 5
ENDMDL
MODEL 5
REMARK VINA RESULT:      -8.5      3.250      9.173
REMARK  5 active torsions:
REMARK  status: ('A' for Active; 'I' for Inactive)
REMARK    1  A    between atoms: C_3  and  S_4 
REMARK    2  A    between atoms: S_4  and  C_5 
REMARK    3  A    between atoms: C_5  and  C_6 
REMARK       I    between atoms: C_6  and  N_7 
REMARK    4  A    between atoms: N_7  and  C_8 
REMARK    5  A    between atoms: C_10  and  C_11 
ROOT
HETATM    1  C   UNL     1      25.932  46.494  51.907  1.00  0.00     0.231 C 
HETATM    2  N   UNL     1      26.201  46.700  50.561  1.00  0.00    -0.327 N 
HETATM    3  O   UNL     1      25.496  47.324  52.699  1.00  0.00    -0.272 OA
HETATM    4  H   UNL     1      26.723  45.968  50.094  1.00  0.00     0.169 HD
ENDROOT
BRANCH   2   5
HETATM    5  C   UNL     1      25.890  47.840  49.791  1.00  0.00     0.035 A 
HETATM    6  C   UNL     1      24.584  48.261  49.518  1.00  0.00     0.042 A 
HETATM    7  C   UNL     1      24.332  49.383  48.709  1.00  0.00    -0.021 A 
HETATM    8  C   UNL     1      25.420  50.078  48.168  1.00  0.00     0.012 A 
HETATM    9  C   UNL     1      26.727  49.667  48.433  1.00  0.00     0.003 A 
HETATM   10  C   UNL     1      26.960  48.553  49.239  1.00  0.00     0.029 A 
BRANCH   7  11
HETATM   11  C   UNL     1      22.971  49.809  48.417  1.00  0.00     0.010 A 
HETATM   12  C   UNL     1      22.306  51.035  48.666  1.00  0.00     0.152 A 
HETATM   13  N   UNL     1      21.038  51.035  48.246  1.00  0.00    -0.187 NA
HETATM   14  N   UNL     1      20.883  49.810  47.722  1.00  0.00    -0.289 N 
HETATM   15  H   UNL     1      19.981  49.565  47.327  1.00  0.00     0.188 HD
HETATM   16  C   UNL     1      22.004  49.038  47.803  1.00  0.00     0.123 A 
ENDBRANCH   7  11
ENDBRANCH   2   5
BRANCH   1  17
HETATM   17  C   UNL     1      26.170  45.059  52.341  1.00  0.00     0.182 C 
BRANCH  17  18
HETATM   18  S   UNL     1      26.006  44.895  54.144  1.00  0.00    -0.120 SA
BRANCH  18  19
HETATM   19  C   UNL     1      27.693  44.439  54.535  1.00  0.00     0.006 A 
HETATM   20  C   UNL     1      28.611  45.291  55.181  1.00  0.00    -0.045 A 
HETATM   21  C   UNL     1      28.287  46.703  55.588  1.00  0.00     0.049 C 
HETATM   22  C   UNL     1      29.890  44.795  55.497  1.00  0.00     0.008 A 
HETATM   23  C   UNL     1      30.269  43.501  55.140  1.00  0.00     0.001 A 
HETATM   24  C   UNL     1      29.375  42.680  54.463  1.00  0.00     0.001 A 
HETATM   25  C   UNL     1      28.096  43.147  54.162  1.00  0.00     0.019 A 
ENDBRANCH  18  19
ENDBRANCH  17  18
ENDBRANCH   1  17
TORSDOF 5
ENDMDL
MODEL 6
REMARK VINA RESULT:      -8.0      1.352      2.148
REMARK  5 active torsions:
REMARK  status: ('A' for Active; 'I' for Inactive)
REMARK    1  A    between atoms: C_3  and  S_4 
REMARK    2  A    between atoms: S_4  and  C_5 
REMARK    3  A    between atoms: C_5  and  C_6 
REMARK       I    between atoms: C_6  and  N_7 
REMARK    4  A    between atoms: N_7  and  C_8 
REMARK    5  A    between atoms: C_10  and  C_11 
ROOT
HETATM    1  C   UNL     1      25.897  44.590  52.963  1.00  0.00     0.231 C 
HETATM    2  N   UNL     1      27.235  44.666  52.603  1.00  0.00    -0.327 N 
HETATM    3  O   UNL     1      25.432  43.970  53.915  1.00  0.00    -0.272 OA
HETATM    4  H   UNL     1      27.429  45.068  51.694  1.00  0.00     0.169 HD
ENDROOT
BRANCH   2   5
HETATM    5  C   UNL     1      28.345  44.186  53.328  1.00  0.00     0.035 A 
HETATM    6  C   UNL     1      28.744  44.696  54.568  1.00  0.00     0.042 A 
HETATM    7  C   UNL     1      29.884  44.207  55.228  1.00  0.00    -0.021 A 
HETATM    8  C   UNL     1      30.629  43.192  54.617  1.00  0.00     0.012 A 
HETATM    9  C   UNL     1      30.243  42.675  53.379  1.00  0.00     0.003 A 
HETATM   10  C   UNL     1      29.107  43.171  52.738  1.00  0.00     0.029 A 
BRANCH   7  11
HETATM   11  C   UNL     1      30.302  44.751  56.513  1.00  0.00     0.010 A 
HETATM   12  C   UNL     1      29.955  45.957  57.170  1.00  0.00     0.152 A 
HETATM   13  N   UNL     1      30.560  46.100  58.351  1.00  0.00    -0.187 NA
HETATM   14  N   UNL     1      31.298  44.985  58.461  1.00  0.00    -0.289 N 
HETATM   15  H   UNL     1      31.861  44.859  59.295  1.00  0.00     0.188 HD
HETATM   16  C   UNL     1      31.183  44.149  57.389  1.00  0.00     0.123 A 
ENDBRANCH   7  11
ENDBRANCH   2   5
BRANCH   1  17
HETATM   17  C   UNL     1      25.001  45.437  52.077  1.00  0.00     0.182 C 
BRANCH  17  18
HETATM   18  S   UNL     1      25.073  44.863  50.353  1.00  0.00    -0.120 SA
BRANCH  18  19
HETATM   19  C   UNL     1      24.021  46.104  49.604  1.00  0.00     0.006 A 
HETATM   20  C   UNL     1      22.969  45.815  48.713  1.00  0.00    -0.045 A 
HETATM   21  C   UNL     1      22.628  44.422  48.258  1.00  0.00     0.049 C 
HETATM   22  C   UNL     1      22.168  46.872  48.243  1.00  0.00     0.008 A 
HETATM   23  C   UNL     1      22.430  48.192  48.609  1.00  0.00     0.001 A 
HETATM   24  C   UNL     1      23.497  48.478  49.452  1.00  0.00     0.001 A 
HETATM   25  C   UNL     1      24.287  47.440  49.946  1.00  0.00     0.019 A 
ENDBRANCH  18  19
ENDBRANCH  17  18
ENDBRANCH   1  17
TORSDOF 5
ENDMDL
MODEL 7
REMARK VINA RESULT:      -7.6      4.485      9.864
REMARK  5 active torsions:
REMARK  status: ('A' for Active; 'I' for Inactive)
REMARK    1  A    between atoms: C_3  and  S_4 
REMARK    2  A    between atoms: S_4  and  C_5 
REMARK    3  A    between atoms: C_5  and  C_6 
REMARK       I    between atoms: C_6  and  N_7 
REMARK    4  A    between atoms: N_7  and  C_8 
REMARK    5  A    between atoms: C_10  and  C_11 
ROOT
HETATM    1  C   UNL     1      23.641  46.244  49.476  1.00  0.00     0.231 C 
HETATM    2  N   UNL     1      23.785  47.519  50.006  1.00  0.00    -0.327 N 
HETATM    3  O   UNL     1      23.036  45.944  48.451  1.00  0.00    -0.272 OA
HETATM    4  H   UNL     1      24.158  47.571  50.946  1.00  0.00     0.169 HD
ENDROOT
BRANCH   2   5
HETATM    5  C   UNL     1      23.408  48.741  49.411  1.00  0.00     0.035 A 
HETATM    6  C   UNL     1      22.163  49.349  49.605  1.00  0.00     0.042 A 
HETATM    7  C   UNL     1      21.825  50.547  48.953  1.00  0.00    -0.021 A 
HETATM    8  C   UNL     1      22.762  51.129  48.090  1.00  0.00     0.012 A 
HETATM    9  C   UNL     1      24.007  50.531  47.887  1.00  0.00     0.003 A 
HETATM   10  C   UNL     1      24.327  49.342  48.544  1.00  0.00     0.029 A 
BRANCH   7  11
HETATM   11  C   UNL     1      20.523  51.169  49.148  1.00  0.00     0.010 A 
HETATM   12  C   UNL     1      19.833  52.142  48.384  1.00  0.00     0.152 A 
HETATM   13  N   UNL     1      18.644  52.464  48.902  1.00  0.00    -0.187 NA
HETATM   14  N   UNL     1      18.564  51.696  49.999  1.00  0.00    -0.289 N 
HETATM   15  H   UNL     1      17.730  51.762  50.574  1.00  0.00     0.188 HD
HETATM   16  C   UNL     1      19.660  50.909  50.194  1.00  0.00     0.123 A 
ENDBRANCH   7  11
ENDBRANCH   2   5
BRANCH   1  17
HETATM   17  C   UNL     1      24.390  45.190  50.271  1.00  0.00     0.182 C 
BRANCH  17  18
HETATM   18  S   UNL     1      26.167  45.572  50.334  1.00  0.00    -0.120 SA
BRANCH  18  19
HETATM   19  C   UNL     1      26.510  45.015  52.002  1.00  0.00     0.006 A 
HETATM   20  C   UNL     1      26.302  45.798  53.155  1.00  0.00    -0.045 A 
HETATM   21  C   UNL     1      25.795  47.215  53.114  1.00  0.00     0.049 C 
HETATM   22  C   UNL     1      26.545  45.226  54.417  1.00  0.00     0.008 A 
HETATM   23  C   UNL     1      27.028  43.923  54.536  1.00  0.00     0.001 A 
HETATM   24  C   UNL     1      27.276  43.169  53.394  1.00  0.00     0.001 A 
HETATM   25  C   UNL     1      27.018  43.713  52.136  1.00  0.00     0.019 A 
ENDBRANCH  18  19
ENDBRANCH  17  18
ENDBRANCH   1  17
TORSDOF 5
ENDMDL
MODEL 8
REMARK VINA RESULT:      -7.5      3.663      9.247
REMARK  5 active torsions:
REMARK  status: ('A' for Active; 'I' for Inactive)
REMARK    1  A    between atoms: C_3  and  S_4 
REMARK    2  A    between atoms: S_4  and  C_5 
REMARK    3  A    between atoms: C_5  and  C_6 
REMARK       I    between atoms: C_6  and  N_7 
REMARK    4  A    between atoms: N_7  and  C_8 
REMARK    5  A    between atoms: C_10  and  C_11 
ROOT
HETATM    1  C   UNL     1      25.614  45.834  50.043  1.00  0.00     0.231 C 
HETATM    2  N   UNL     1      25.713  47.206  50.231  1.00  0.00    -0.327 N 
HETATM    3  O   UNL     1      24.839  45.256  49.288  1.00  0.00    -0.272 OA
HETATM    4  H   UNL     1      26.276  47.508  51.017  1.00  0.00     0.169 HD
ENDROOT
BRANCH   2   5
HETATM    5  C   UNL     1      25.066  48.220  49.494  1.00  0.00     0.035 A 
HETATM    6  C   UNL     1      23.676  48.334  49.384  1.00  0.00     0.042 A 
HETATM    7  C   UNL     1      23.085  49.341  48.602  1.00  0.00    -0.021 A 
HETATM    8  C   UNL     1      23.917  50.237  47.921  1.00  0.00     0.012 A 
HETATM    9  C   UNL     1      25.306  50.133  48.023  1.00  0.00     0.003 A 
HETATM   10  C   UNL     1      25.876  49.128  48.805  1.00  0.00     0.029 A 
BRANCH   7  11
HETATM   11  C   UNL     1      21.638  49.447  48.479  1.00  0.00     0.010 A 
HETATM   12  C   UNL     1      20.596  48.697  49.080  1.00  0.00     0.152 A 
HETATM   13  N   UNL     1      19.380  49.104  48.707  1.00  0.00    -0.187 NA
HETATM   14  N   UNL     1      19.634  50.118  47.866  1.00  0.00    -0.289 N 
HETATM   15  H   UNL     1      18.850  50.602  47.442  1.00  0.00     0.188 HD
HETATM   16  C   UNL     1      20.965  50.360  47.693  1.00  0.00     0.123 A 
ENDBRANCH   7  11
ENDBRANCH   2   5
BRANCH   1  17
HETATM   17  C   UNL     1      26.645  45.057  50.841  1.00  0.00     0.182 C 
BRANCH  17  18
HETATM   18  S   UNL     1      25.909  44.384  52.362  1.00  0.00    -0.120 SA
BRANCH  18  19
HETATM   19  C   UNL     1      26.617  45.530  53.543  1.00  0.00     0.006 A 
HETATM   20  C   UNL     1      27.830  45.312  54.225  1.00  0.00    -0.045 A 
HETATM   21  C   UNL     1      28.659  44.067  54.065  1.00  0.00     0.049 C 
HETATM   22  C   UNL     1      28.319  46.319  55.078  1.00  0.00     0.008 A 
HETATM   23  C   UNL     1      27.601  47.496  55.289  1.00  0.00     0.001 A 
HETATM   24  C   UNL     1      26.382  47.688  54.648  1.00  0.00     0.001 A 
HETATM   25  C   UNL     1      25.894  46.710  53.781  1.00  0.00     0.019 A 
ENDBRANCH  18  19
ENDBRANCH  17  18
ENDBRANCH   1  17
TORSDOF 5
ENDMDL
MODEL 9
REMARK VINA RESULT:      -7.5      3.134      4.657
REMARK  5 active torsions:
REMARK  status: ('A' for Active; 'I' for Inactive)
REMARK    1  A    between atoms: C_3  and  S_4 
REMARK    2  A    between atoms: S_4  and  C_5 
REMARK    3  A    between atoms: C_5  and  C_6 
REMARK       I    between atoms: C_6  and  N_7 
REMARK    4  A    between atoms: N_7  and  C_8 
REMARK    5  A    between atoms: C_10  and  C_11 
ROOT
HETATM    1  C   UNL     1      25.393  47.501  50.672  1.00  0.00     0.231 C 
HETATM    2  N   UNL     1      25.218  47.074  51.981  1.00  0.00    -0.327 N 
HETATM    3  O   UNL     1      26.458  47.579  50.067  1.00  0.00    -0.272 OA
HETATM    4  H   UNL     1      24.304  47.240  52.385  1.00  0.00     0.169 HD
ENDROOT
BRANCH   2   5
HETATM    5  C   UNL     1      26.186  46.501  52.832  1.00  0.00     0.035 A 
HETATM    6  C   UNL     1      26.763  45.245  52.618  1.00  0.00     0.042 A 
HETATM    7  C   UNL     1      27.694  44.705  53.522  1.00  0.00    -0.021 A 
HETATM    8  C   UNL     1      28.037  45.449  54.657  1.00  0.00     0.012 A 
HETATM    9  C   UNL     1      27.468  46.703  54.881  1.00  0.00     0.003 A 
HETATM   10  C   UNL     1      26.546  47.226  53.973  1.00  0.00     0.029 A 
BRANCH   7  11
HETATM   11  C   UNL     1      28.281  43.391  53.301  1.00  0.00     0.010 A 
HETATM   12  C   UNL     1      27.816  42.096  53.639  1.00  0.00     0.152 A 
HETATM   13  N   UNL     1      28.656  41.126  53.265  1.00  0.00    -0.187 NA
HETATM   14  N   UNL     1      29.664  41.794  52.683  1.00  0.00    -0.289 N 
HETATM   15  H   UNL     1      30.442  41.262  52.308  1.00  0.00     0.188 HD
HETATM   16  C   UNL     1      29.491  43.147  52.683  1.00  0.00     0.123 A 
ENDBRANCH   7  11
ENDBRANCH   2   5
BRANCH   1  17
HETATM   17  C   UNL     1      24.082  47.822  49.978  1.00  0.00     0.182 C 
BRANCH  17  18
HETATM   18  S   UNL     1      24.346  48.986  48.607  1.00  0.00    -0.120 SA
BRANCH  18  19
HETATM   19  C   UNL     1      22.655  49.528  48.375  1.00  0.00     0.006 A 
HETATM   20  C   UNL     1      21.628  48.713  47.860  1.00  0.00    -0.045 A 
HETATM   21  C   UNL     1      21.843  47.293  47.411  1.00  0.00     0.049 C 
HETATM   22  C   UNL     1      20.321  49.231  47.788  1.00  0.00     0.008 A 
HETATM   23  C   UNL     1      20.045  50.543  48.173  1.00  0.00     0.001 A 
HETATM   24  C   UNL     1      21.070  51.359  48.637  1.00  0.00     0.001 A 
HETATM   25  C   UNL     1      22.366  50.854  48.737  1.00  0.00     0.019 A 
ENDBRANCH  18  19
ENDBRANCH  17  18
ENDBRANCH   1  17
TORSDOF 5
ENDMDL
MODEL 10
REMARK VINA RESULT:      -7.5     12.631     15.199
REMARK  5 active torsions:
REMARK  status: ('A' for Active; 'I' for Inactive)
REMARK    1  A    between atoms: C_3  and  S_4 
REMARK    2  A    between atoms: S_4  and  C_5 
REMARK    3  A    between atoms: C_5  and  C_6 
REMARK       I    between atoms: C_6  and  N_7 
REMARK    4  A    between atoms: N_7  and  C_8 
REMARK    5  A    between atoms: C_10  and  C_11 
ROOT
HETATM    1  C   UNL     1      32.750  52.354  39.842  1.00  0.00     0.231 C 
HETATM    2  N   UNL     1      31.979  51.466  39.104  1.00  0.00    -0.327 N 
HETATM    3  O   UNL     1      32.337  53.302  40.503  1.00  0.00    -0.272 OA
HETATM    4  H   UNL     1      32.485  50.854  38.476  1.00  0.00     0.169 HD
ENDROOT
BRANCH   2   5
HETATM    5  C   UNL     1      30.572  51.369  39.080  1.00  0.00     0.035 A 
HETATM    6  C   UNL     1      29.854  50.332  39.683  1.00  0.00     0.042 A 
HETATM    7  C   UNL     1      28.453  50.263  39.593  1.00  0.00    -0.021 A 
HETATM    8  C   UNL     1      27.777  51.258  38.876  1.00  0.00     0.012 A 
HETATM    9  C   UNL     1      28.483  52.298  38.268  1.00  0.00     0.003 A 
HETATM   10  C   UNL     1      29.874  52.352  38.370  1.00  0.00     0.029 A 
BRANCH   7  11
HETATM   11  C   UNL     1      27.711  49.174  40.211  1.00  0.00     0.010 A 
HETATM   12  C   UNL     1      26.382  48.723  40.014  1.00  0.00     0.152 A 
HETATM   13  N   UNL     1      26.066  47.680  40.786  1.00  0.00    -0.187 NA
HETATM   14  N   UNL     1      27.190  47.454  41.482  1.00  0.00    -0.289 N 
HETATM   15  H   UNL     1      27.199  46.692  42.151  1.00  0.00     0.188 HD
HETATM   16  C   UNL     1      28.200  48.320  41.180  1.00  0.00     0.123 A 
ENDBRANCH   7  11
ENDBRANCH   2   5
BRANCH   1  17
HETATM   17  C   UNL     1      34.227  52.004  39.825  1.00  0.00     0.182 C 
BRANCH  17  18
HETATM   18  S   UNL     1      34.803  51.559  41.491  1.00  0.00    -0.120 SA
BRANCH  18  19
HETATM   19  C   UNL     1      33.568  50.324  41.890  1.00  0.00     0.006 A 
HETATM   20  C   UNL     1      32.554  50.504  42.851  1.00  0.00    -0.045 A 
HETATM   21  C   UNL     1      32.412  51.750  43.683  1.00  0.00     0.049 C 
HETATM   22  C   UNL     1      31.598  49.486  43.028  1.00  0.00     0.008 A 
HETATM   23  C   UNL     1      31.671  48.297  42.304  1.00  0.00     0.001 A 
HETATM   24  C   UNL     1      32.699  48.105  41.389  1.00  0.00     0.001 A 
HETATM   25  C   UNL     1      33.642  49.113  41.184  1.00  0.00     0.019 A 
ENDBRANCH  18  19
ENDBRANCH  17  18
ENDBRANCH   1  17
TORSDOF 5
ENDMDL
