MODEL 1
REMARK VINA RESULT:      -9.8      0.000      0.000
REMARK  6 active torsions:
REMARK  status: ('A' for Active; 'I' for Inactive)
REMARK    1  A    between atoms: C_2  and  O_3 
REMARK    2  A    between atoms: O_3  and  C_4 
REMARK    3  A    between atoms: C_7  and  N_8 
REMARK    4  A    between atoms: N_8  and  C_9 
REMARK    5  A    between atoms: C_10  and  C_11 
REMARK    6  A    between atoms: C_14  and  C_15 
ROOT
HETATM    1  C   UNL     1      24.329  42.750  50.537  1.00  0.00     0.113 C 
HETATM    2  C   UNL     1      24.023  44.059  50.439  1.00  0.00     0.082 C 
HETATM    3  C   UNL     1      22.842  44.492  49.585  1.00  0.00     0.024 C 
HETATM    4  N   UNL     1      21.862  44.852  48.877  1.00  0.00    -0.096 N 
ENDROOT
BRANCH   2   5
HETATM    5  C   UNL     1      24.830  45.060  51.081  1.00  0.00     0.119 A 
HETATM    6  S   UNL     1      25.113  46.594  50.311  1.00  0.00    -0.078 SA
HETATM    7  C   UNL     1      26.075  47.099  51.630  1.00  0.00     0.084 A 
HETATM    8  C   UNL     1      26.126  46.110  52.586  1.00  0.00     0.081 A 
HETATM    9  N   UNL     1      25.411  44.959  52.270  1.00  0.00    -0.239 NA
BRANCH   8  10
HETATM   10  C   UNL     1      26.879  46.141  53.814  1.00  0.00     0.070 A 
HETATM   11  C   UNL     1      26.552  47.163  54.861  1.00  0.00     0.301 A 
HETATM   12  O   UNL     1      25.620  47.954  54.753  1.00  0.00    -0.259 OA
HETATM   13  O   UNL     1      27.358  47.196  55.998  1.00  0.00    -0.274 OA
HETATM   14  C   UNL     1      28.406  46.286  56.198  1.00  0.00     0.089 A 
HETATM   15  C   UNL     1      28.681  45.309  55.249  1.00  0.00     0.000 A 
HETATM   16  C   UNL     1      29.146  46.401  57.372  1.00  0.00     0.039 A 
HETATM   17  C   UNL     1      29.730  44.416  55.482  1.00  0.00     0.033 A 
HETATM   18  C   UNL     1      27.880  45.269  54.039  1.00  0.00     0.034 A 
HETATM   19  C   UNL     1      30.479  44.522  56.657  1.00  0.00     0.012 A 
HETATM   20  C   UNL     1      30.193  45.510  57.602  1.00  0.00     0.022 A 
HETATM   21 BR   UNL     1      31.901  43.314  56.971  1.00  0.00    -0.051 Br
ENDBRANCH   8  10
ENDBRANCH   2   5
BRANCH   1  22
HETATM   22  N   UNL     1      25.401  42.189  51.192  1.00  0.00    -0.364 N 
HETATM   23  H   UNL     1      25.496  42.472  52.172  1.00  0.00     0.165 HD
BRANCH  22  24
HETATM   24  C   UNL     1      26.282  41.179  50.780  1.00  0.00     0.032 A 
HETATM   25  C   UNL     1      27.541  41.103  51.391  1.00  0.00     0.032 A 
HETATM   26  C   UNL     1      28.472  40.131  51.015  1.00  0.00     0.039 A 
HETATM   27  C   UNL     1      28.162  39.205  50.021  1.00  0.00     0.068 A 
HETATM   28  C   UNL     1      26.929  39.289  49.377  1.00  0.00     0.039 A 
HETATM   29  C   UNL     1      26.002  40.274  49.750  1.00  0.00     0.032 A 
BRANCH  27  30
HETATM   30  O   UNL     1      29.143  38.291  49.760  1.00  0.00    -0.352 OA
BRANCH  30  31
HETATM   31  C   UNL     1      30.093  38.063  50.799  1.00  0.00     0.171 C 
HETATM   32  C   UNL     1      29.803  36.701  51.405  1.00  0.00     0.034 C 
ENDBRANCH  30  31
ENDBRANCH  27  30
ENDBRANCH  22  24
ENDBRANCH   1  22
TORSDOF 6
ENDMDL
MODEL 2
REMARK VINA RESULT:      -9.5      4.434      8.370
REMARK  6 active torsions:
REMARK  status: ('A' for Active; 'I' for Inactive)
REMARK    1  A    between atoms: C_2  and  O_3 
REMARK    2  A    between atoms: O_3  and  C_4 
REMARK    3  A    between atoms: C_7  and  N_8 
REMARK    4  A    between atoms: N_8  and  C_9 
REMARK    5  A    between atoms: C_10  and  C_11 
REMARK    6  A    between atoms: C_14  and  C_15 
ROOT
HETATM    1  C   UNL     1      23.858  48.922  48.744  1.00  0.00     0.113 C 
HETATM    2  C   UNL     1      25.059  48.626  49.278  1.00  0.00     0.082 C 
HETATM    3  C   UNL     1      26.306  49.321  48.755  1.00  0.00     0.024 C 
HETATM    4  N   UNL     1      27.341  49.897  48.320  1.00  0.00    -0.096 N 
ENDROOT
BRANCH   2   5
HETATM    5  C   UNL     1      25.192  47.620  50.297  1.00  0.00     0.119 A 
HETATM    6  S   UNL     1      24.309  46.126  50.184  1.00  0.00    -0.078 SA
HETATM    7  C   UNL     1      24.985  45.594  51.660  1.00  0.00     0.084 A 
HETATM    8  C   UNL     1      25.846  46.545  52.158  1.00  0.00     0.081 A 
HETATM    9  N   UNL     1      25.964  47.689  51.375  1.00  0.00    -0.239 NA
BRANCH   8  10
HETATM   10  C   UNL     1      26.564  46.484  53.406  1.00  0.00     0.070 A 
HETATM   11  C   UNL     1      26.232  47.452  54.503  1.00  0.00     0.301 A 
HETATM   12  O   UNL     1      25.324  48.272  54.415  1.00  0.00    -0.259 OA
HETATM   13  O   UNL     1      27.004  47.396  55.661  1.00  0.00    -0.274 OA
HETATM   14  C   UNL     1      28.024  46.448  55.835  1.00  0.00     0.089 A 
HETATM   15  C   UNL     1      28.301  45.521  54.838  1.00  0.00     0.000 A 
HETATM   16  C   UNL     1      28.732  46.474  57.034  1.00  0.00     0.039 A 
HETATM   17  C   UNL     1      29.320  44.588  55.047  1.00  0.00     0.033 A 
HETATM   18  C   UNL     1      27.535  45.574  53.606  1.00  0.00     0.034 A 
HETATM   19  C   UNL     1      30.037  44.605  56.246  1.00  0.00     0.012 A 
HETATM   20  C   UNL     1      29.749  45.543  57.240  1.00  0.00     0.022 A 
HETATM   21 BR   UNL     1      31.418  43.343  56.527  1.00  0.00    -0.051 Br
ENDBRANCH   8  10
ENDBRANCH   2   5
BRANCH   1  22
HETATM   22  N   UNL     1      22.646  48.337  49.034  1.00  0.00    -0.364 N 
HETATM   23  H   UNL     1      22.689  47.324  49.183  1.00  0.00     0.165 HD
BRANCH  22  24
HETATM   24  C   UNL     1      21.404  48.924  49.311  1.00  0.00     0.032 A 
HETATM   25  C   UNL     1      21.367  50.290  49.623  1.00  0.00     0.032 A 
HETATM   26  C   UNL     1      20.164  50.933  49.924  1.00  0.00     0.039 A 
HETATM   27  C   UNL     1      18.964  50.224  49.915  1.00  0.00     0.068 A 
HETATM   28  C   UNL     1      18.987  48.858  49.643  1.00  0.00     0.039 A 
HETATM   29  C   UNL     1      20.199  48.214  49.352  1.00  0.00     0.032 A 
BRANCH  27  30
HETATM   30  O   UNL     1      17.855  50.967  50.201  1.00  0.00    -0.352 OA
BRANCH  30  31
HETATM   31  C   UNL     1      17.874  52.330  49.781  1.00  0.00     0.171 C 
HETATM   32  C   UNL     1      16.483  52.902  49.989  1.00  0.00     0.034 C 
ENDBRANCH  30  31
ENDBRANCH  27  30
ENDBRANCH  22  24
ENDBRANCH   1  22
TORSDOF 6
ENDMDL
MODEL 3
REMARK VINA RESULT:      -9.0      4.543      8.051
REMARK  6 active torsions:
REMARK  status: ('A' for Active; 'I' for Inactive)
REMARK    1  A    between atoms: C_2  and  O_3 
REMARK    2  A    between atoms: O_3  and  C_4 
REMARK    3  A    between atoms: C_7  and  N_8 
REMARK    4  A    between atoms: N_8  and  C_9 
REMARK    5  A    between atoms: C_10  and  C_11 
REMARK    6  A    between atoms: C_14  and  C_15 
ROOT
HETATM    1  C   UNL     1      27.492  42.553  50.808  1.00  0.00     0.113 C 
HETATM    2  C   UNL     1      26.666  42.526  49.744  1.00  0.00     0.082 C 
HETATM    3  C   UNL     1      27.063  41.738  48.505  1.00  0.00     0.024 C 
HETATM    4  N   UNL     1      27.392  41.085  47.478  1.00  0.00    -0.096 N 
ENDROOT
BRANCH   2   5
HETATM    5  C   UNL     1      25.441  43.277  49.735  1.00  0.00     0.119 A 
HETATM    6  S   UNL     1      23.908  42.470  49.893  1.00  0.00    -0.078 SA
HETATM    7  C   UNL     1      23.089  43.964  49.779  1.00  0.00     0.084 A 
HETATM    8  C   UNL     1      23.994  44.993  49.646  1.00  0.00     0.081 A 
HETATM    9  N   UNL     1      25.327  44.596  49.629  1.00  0.00    -0.239 NA
BRANCH   8  10
HETATM   10  C   UNL     1      23.686  46.390  49.468  1.00  0.00     0.070 A 
HETATM   11  C   UNL     1      24.545  47.430  50.122  1.00  0.00     0.301 A 
HETATM   12  O   UNL     1      25.552  47.153  50.767  1.00  0.00    -0.259 OA
HETATM   13  O   UNL     1      24.161  48.762  49.977  1.00  0.00    -0.274 OA
HETATM   14  C   UNL     1      23.048  49.139  49.212  1.00  0.00     0.089 A 
HETATM   15  C   UNL     1      22.278  48.180  48.567  1.00  0.00     0.000 A 
HETATM   16  C   UNL     1      22.754  50.498  49.126  1.00  0.00     0.039 A 
HETATM   17  C   UNL     1      21.178  48.592  47.810  1.00  0.00     0.033 A 
HETATM   18  C   UNL     1      22.633  46.781  48.725  1.00  0.00     0.034 A 
HETATM   19  C   UNL     1      20.875  49.952  47.717  1.00  0.00     0.012 A 
HETATM   20  C   UNL     1      21.656  50.907  48.371  1.00  0.00     0.022 A 
HETATM   21 BR   UNL     1      19.384  50.509  46.694  1.00  0.00    -0.051 Br
ENDBRANCH   8  10
ENDBRANCH   2   5
BRANCH   1  22
HETATM   22  N   UNL     1      27.335  43.274  51.970  1.00  0.00    -0.364 N 
HETATM   23  H   UNL     1      26.376  43.586  52.150  1.00  0.00     0.165 HD
BRANCH  22  24
HETATM   24  C   UNL     1      28.240  43.510  53.015  1.00  0.00     0.032 A 
HETATM   25  C   UNL     1      27.972  44.560  53.904  1.00  0.00     0.032 A 
HETATM   26  C   UNL     1      28.841  44.858  54.957  1.00  0.00     0.039 A 
HETATM   27  C   UNL     1      29.999  44.107  55.149  1.00  0.00     0.068 A 
HETATM   28  C   UNL     1      30.299  43.084  54.253  1.00  0.00     0.039 A 
HETATM   29  C   UNL     1      29.430  42.795  53.191  1.00  0.00     0.032 A 
BRANCH  27  30
HETATM   30  O   UNL     1      30.754  44.480  56.225  1.00  0.00    -0.352 OA
BRANCH  30  31
HETATM   31  C   UNL     1      30.316  45.632  56.942  1.00  0.00     0.171 C 
HETATM   32  C   UNL     1      30.491  45.353  58.425  1.00  0.00     0.034 C 
ENDBRANCH  30  31
ENDBRANCH  27  30
ENDBRANCH  22  24
ENDBRANCH   1  22
TORSDOF 6
ENDMDL
MODEL 4
REMARK VINA RESULT:      -8.9      2.011      2.534
REMARK  6 active torsions:
REMARK  status: ('A' for Active; 'I' for Inactive)
REMARK    1  A    between atoms: C_2  and  O_3 
REMARK    2  A    between atoms: O_3  and  C_4 
REMARK    3  A    between atoms: C_7  and  N_8 
REMARK    4  A    between atoms: N_8  and  C_9 
REMARK    5  A    between atoms: C_10  and  C_11 
REMARK    6  A    between atoms: C_14  and  C_15 
ROOT
HETATM    1  C   UNL     1      24.521  42.996  48.538  1.00  0.00     0.113 C 
HETATM    2  C   UNL     1      24.006  43.896  49.398  1.00  0.00     0.082 C 
HETATM    3  C   UNL     1      22.526  44.235  49.333  1.00  0.00     0.024 C 
HETATM    4  N   UNL     1      21.297  44.517  49.279  1.00  0.00    -0.096 N 
ENDROOT
BRANCH   2   5
HETATM    5  C   UNL     1      24.844  44.587  50.340  1.00  0.00     0.119 A 
HETATM    6  S   UNL     1      24.682  46.303  50.574  1.00  0.00    -0.078 SA
HETATM    7  C   UNL     1      25.938  46.282  51.732  1.00  0.00     0.084 A 
HETATM    8  C   UNL     1      26.406  44.998  51.901  1.00  0.00     0.081 A 
HETATM    9  N   UNL     1      25.775  44.041  51.113  1.00  0.00    -0.239 NA
BRANCH   8  10
HETATM   10  C   UNL     1      27.496  44.587  52.749  1.00  0.00     0.070 A 
HETATM   11  C   UNL     1      28.298  43.372  52.393  1.00  0.00     0.301 A 
HETATM   12  O   UNL     1      28.112  42.728  51.364  1.00  0.00    -0.259 OA
HETATM   13  O   UNL     1      29.294  42.977  53.285  1.00  0.00    -0.274 OA
HETATM   14  C   UNL     1      29.583  43.701  54.451  1.00  0.00     0.089 A 
HETATM   15  C   UNL     1      28.870  44.854  54.759  1.00  0.00     0.000 A 
HETATM   16  C   UNL     1      30.601  43.224  55.272  1.00  0.00     0.039 A 
HETATM   17  C   UNL     1      29.187  45.553  55.926  1.00  0.00     0.033 A 
HETATM   18  C   UNL     1      27.805  45.273  53.865  1.00  0.00     0.034 A 
HETATM   19  C   UNL     1      30.208  45.083  56.757  1.00  0.00     0.012 A 
HETATM   20  C   UNL     1      30.916  43.923  56.436  1.00  0.00     0.022 A 
HETATM   21 BR   UNL     1      30.635  46.029  58.338  1.00  0.00    -0.051 Br
ENDBRANCH   8  10
ENDBRANCH   2   5
BRANCH   1  22
HETATM   22  N   UNL     1      25.841  42.631  48.399  1.00  0.00    -0.364 N 
HETATM   23  H   UNL     1      26.477  43.409  48.199  1.00  0.00     0.165 HD
BRANCH  22  24
HETATM   24  C   UNL     1      26.469  41.401  48.642  1.00  0.00     0.032 A 
HETATM   25  C   UNL     1      27.561  41.040  47.841  1.00  0.00     0.032 A 
HETATM   26  C   UNL     1      28.220  39.822  48.021  1.00  0.00     0.039 A 
HETATM   27  C   UNL     1      27.805  38.935  49.013  1.00  0.00     0.068 A 
HETATM   28  C   UNL     1      26.699  39.262  49.794  1.00  0.00     0.039 A 
HETATM   29  C   UNL     1      26.033  40.481  49.602  1.00  0.00     0.032 A 
BRANCH  27  30
HETATM   30  O   UNL     1      28.544  37.790  49.106  1.00  0.00    -0.352 OA
BRANCH  30  31
HETATM   31  C   UNL     1      29.907  37.941  49.499  1.00  0.00     0.171 C 
HETATM   32  C   UNL     1      29.986  37.722  51.000  1.00  0.00     0.034 C 
ENDBRANCH  30  31
ENDBRANCH  27  30
ENDBRANCH  22  24
ENDBRANCH   1  22
TORSDOF 6
ENDMDL
MODEL 5
REMARK VINA RESULT:      -8.9      3.085      7.439
REMARK  6 active torsions:
REMARK  status: ('A' for Active; 'I' for Inactive)
REMARK    1  A    between atoms: C_2  and  O_3 
REMARK    2  A    between atoms: O_3  and  C_4 
REMARK    3  A    between atoms: C_7  and  N_8 
REMARK    4  A    between atoms: N_8  and  C_9 
REMARK    5  A    between atoms: C_10  and  C_11 
REMARK    6  A    between atoms: C_14  and  C_15 
ROOT
HETATM    1  C   UNL     1      26.192  47.160  52.295  1.00  0.00     0.113 C 
HETATM    2  C   UNL     1      25.927  46.759  51.036  1.00  0.00     0.082 C 
HETATM    3  C   UNL     1      25.863  47.788  49.918  1.00  0.00     0.024 C 
HETATM    4  N   UNL     1      25.809  48.641  48.990  1.00  0.00    -0.096 N 
ENDROOT
BRANCH   2   5
HETATM    5  C   UNL     1      25.646  45.381  50.739  1.00  0.00     0.119 A 
HETATM    6  S   UNL     1      24.015  44.856  50.440  1.00  0.00    -0.078 SA
HETATM    7  C   UNL     1      24.554  43.252  50.211  1.00  0.00     0.084 A 
HETATM    8  C   UNL     1      25.921  43.186  50.352  1.00  0.00     0.081 A 
HETATM    9  N   UNL     1      26.534  44.400  50.644  1.00  0.00    -0.239 NA
BRANCH   8  10
HETATM   10  C   UNL     1      26.735  41.998  50.285  1.00  0.00     0.070 A 
HETATM   11  C   UNL     1      27.485  41.540  51.500  1.00  0.00     0.301 A 
HETATM   12  O   UNL     1      27.396  42.100  52.589  1.00  0.00    -0.259 OA
HETATM   13  O   UNL     1      28.313  40.428  51.361  1.00  0.00    -0.274 OA
HETATM   14  C   UNL     1      28.416  39.720  50.154  1.00  0.00     0.089 A 
HETATM   15  C   UNL     1      27.687  40.116  49.040  1.00  0.00     0.000 A 
HETATM   16  C   UNL     1      29.268  38.618  50.122  1.00  0.00     0.039 A 
HETATM   17  C   UNL     1      27.811  39.385  47.856  1.00  0.00     0.033 A 
HETATM   18  C   UNL     1      26.840  41.290  49.144  1.00  0.00     0.034 A 
HETATM   19  C   UNL     1      28.662  38.278  47.813  1.00  0.00     0.012 A 
HETATM   20  C   UNL     1      29.391  37.891  48.940  1.00  0.00     0.022 A 
HETATM   21 BR   UNL     1      28.831  37.291  46.208  1.00  0.00    -0.051 Br
ENDBRANCH   8  10
ENDBRANCH   2   5
BRANCH   1  22
HETATM   22  N   UNL     1      26.207  46.387  53.434  1.00  0.00    -0.364 N 
HETATM   23  H   UNL     1      25.332  45.886  53.617  1.00  0.00     0.165 HD
BRANCH  22  24
HETATM   24  C   UNL     1      27.270  46.055  54.286  1.00  0.00     0.032 A 
HETATM   25  C   UNL     1      27.985  44.877  54.031  1.00  0.00     0.032 A 
HETATM   26  C   UNL     1      29.044  44.480  54.851  1.00  0.00     0.039 A 
HETATM   27  C   UNL     1      29.419  45.259  55.945  1.00  0.00     0.068 A 
HETATM   28  C   UNL     1      28.695  46.414  56.233  1.00  0.00     0.039 A 
HETATM   29  C   UNL     1      27.625  46.802  55.414  1.00  0.00     0.032 A 
BRANCH  27  30
HETATM   30  O   UNL     1      30.483  44.780  56.654  1.00  0.00    -0.352 OA
BRANCH  30  31
HETATM   31  C   UNL     1      31.016  43.524  56.234  1.00  0.00     0.171 C 
HETATM   32  C   UNL     1      32.122  43.141  57.201  1.00  0.00     0.034 C 
ENDBRANCH  30  31
ENDBRANCH  27  30
ENDBRANCH  22  24
ENDBRANCH   1  22
TORSDOF 6
ENDMDL
MODEL 6
REMARK VINA RESULT:      -8.6      5.333      9.449
REMARK  6 active torsions:
REMARK  status: ('A' for Active; 'I' for Inactive)
REMARK    1  A    between atoms: C_2  and  O_3 
REMARK    2  A    between atoms: O_3  and  C_4 
REMARK    3  A    between atoms: C_7  and  N_8 
REMARK    4  A    between atoms: N_8  and  C_9 
REMARK    5  A    between atoms: C_10  and  C_11 
REMARK    6  A    between atoms: C_14  and  C_15 
ROOT
HETATM    1  C   UNL     1      21.088  47.784  48.473  1.00  0.00     0.113 C 
HETATM    2  C   UNL     1      22.195  47.049  48.246  1.00  0.00     0.082 C 
HETATM    3  C   UNL     1      22.159  45.940  47.206  1.00  0.00     0.024 C 
HETATM    4  N   UNL     1      22.130  45.020  46.344  1.00  0.00    -0.096 N 
ENDROOT
BRANCH   2   5
HETATM    5  C   UNL     1      23.394  47.256  49.010  1.00  0.00     0.119 A 
HETATM    6  S   UNL     1      24.378  48.666  48.746  1.00  0.00    -0.078 SA
HETATM    7  C   UNL     1      25.479  48.144  49.943  1.00  0.00     0.084 A 
HETATM    8  C   UNL     1      25.055  46.956  50.493  1.00  0.00     0.081 A 
HETATM    9  N   UNL     1      23.867  46.463  49.963  1.00  0.00    -0.239 NA
BRANCH   8  10
HETATM   10  C   UNL     1      25.743  46.177  51.491  1.00  0.00     0.070 A 
HETATM   11  C   UNL     1      25.899  46.721  52.880  1.00  0.00     0.301 A 
HETATM   12  O   UNL     1      25.411  47.789  53.237  1.00  0.00    -0.259 OA
HETATM   13  O   UNL     1      26.634  45.960  53.787  1.00  0.00    -0.274 OA
HETATM   14  C   UNL     1      27.174  44.709  53.449  1.00  0.00     0.089 A 
HETATM   15  C   UNL     1      26.991  44.184  52.176  1.00  0.00     0.000 A 
HETATM   16  C   UNL     1      27.887  44.027  54.431  1.00  0.00     0.039 A 
HETATM   17  C   UNL     1      27.538  42.935  51.875  1.00  0.00     0.033 A 
HETATM   18  C   UNL     1      26.257  44.968  51.199  1.00  0.00     0.034 A 
HETATM   19  C   UNL     1      28.256  42.241  52.853  1.00  0.00     0.012 A 
HETATM   20  C   UNL     1      28.433  42.781  54.129  1.00  0.00     0.022 A 
HETATM   21 BR   UNL     1      28.999  40.551  52.444  1.00  0.00    -0.051 Br
ENDBRANCH   8  10
ENDBRANCH   2   5
BRANCH   1  22
HETATM   22  N   UNL     1      20.916  48.763  49.425  1.00  0.00    -0.364 N 
HETATM   23  H   UNL     1      21.597  48.736  50.190  1.00  0.00     0.165 HD
BRANCH  22  24
HETATM   24  C   UNL     1      20.062  49.876  49.431  1.00  0.00     0.032 A 
HETATM   25  C   UNL     1      18.830  49.767  50.090  1.00  0.00     0.032 A 
HETATM   26  C   UNL     1      17.927  50.833  50.119  1.00  0.00     0.039 A 
HETATM   27  C   UNL     1      18.239  52.038  49.493  1.00  0.00     0.068 A 
HETATM   28  C   UNL     1      19.443  52.151  48.802  1.00  0.00     0.039 A 
HETATM   29  C   UNL     1      20.342  51.074  48.766  1.00  0.00     0.032 A 
BRANCH  27  30
HETATM   30  O   UNL     1      17.287  53.011  49.613  1.00  0.00    -0.352 OA
BRANCH  30  31
HETATM   31  C   UNL     1      15.928  52.578  49.596  1.00  0.00     0.171 C 
HETATM   32  C   UNL     1      15.046  53.814  49.601  1.00  0.00     0.034 C 
ENDBRANCH  30  31
ENDBRANCH  27  30
ENDBRANCH  22  24
ENDBRANCH   1  22
TORSDOF 6
ENDMDL
MODEL 7
REMARK VINA RESULT:      -8.6      3.193      6.633
REMARK  6 active torsions:
REMARK  status: ('A' for Active; 'I' for Inactive)
REMARK    1  A    between atoms: C_2  and  O_3 
REMARK    2  A    between atoms: O_3  and  C_4 
REMARK    3  A    between atoms: C_7  and  N_8 
REMARK    4  A    between atoms: N_8  and  C_9 
REMARK    5  A    between atoms: C_10  and  C_11 
REMARK    6  A    between atoms: C_14  and  C_15 
ROOT
HETATM    1  C   UNL     1      24.125  43.450  48.450  1.00  0.00     0.113 C 
HETATM    2  C   UNL     1      24.840  42.312  48.546  1.00  0.00     0.082 C 
HETATM    3  C   UNL     1      24.713  41.251  47.464  1.00  0.00     0.024 C 
HETATM    4  N   UNL     1      24.607  40.371  46.567  1.00  0.00    -0.096 N 
ENDROOT
BRANCH   2   5
HETATM    5  C   UNL     1      25.680  42.056  49.684  1.00  0.00     0.119 A 
HETATM    6  S   UNL     1      26.180  40.435  50.067  1.00  0.00    -0.078 SA
HETATM    7  C   UNL     1      27.045  41.003  51.426  1.00  0.00     0.084 A 
HETATM    8  C   UNL     1      26.934  42.372  51.521  1.00  0.00     0.081 A 
HETATM    9  N   UNL     1      26.164  42.962  50.524  1.00  0.00    -0.239 NA
BRANCH   8  10
HETATM   10  C   UNL     1      27.478  43.207  52.562  1.00  0.00     0.070 A 
HETATM   11  C   UNL     1      26.923  44.583  52.777  1.00  0.00     0.301 A 
HETATM   12  O   UNL     1      25.971  45.025  52.141  1.00  0.00    -0.259 OA
HETATM   13  O   UNL     1      27.533  45.375  53.748  1.00  0.00    -0.274 OA
HETATM   14  C   UNL     1      28.593  44.905  54.539  1.00  0.00     0.089 A 
HETATM   15  C   UNL     1      29.077  43.614  54.371  1.00  0.00     0.000 A 
HETATM   16  C   UNL     1      29.127  45.775  55.485  1.00  0.00     0.039 A 
HETATM   17  C   UNL     1      30.131  43.178  55.178  1.00  0.00     0.033 A 
HETATM   18  C   UNL     1      28.484  42.775  53.346  1.00  0.00     0.034 A 
HETATM   19  C   UNL     1      30.675  44.042  56.132  1.00  0.00     0.012 A 
HETATM   20  C   UNL     1      30.179  45.339  56.289  1.00  0.00     0.022 A 
HETATM   21 BR   UNL     1      32.103  43.451  57.222  1.00  0.00    -0.051 Br
ENDBRANCH   8  10
ENDBRANCH   2   5
BRANCH   1  22
HETATM   22  N   UNL     1      24.053  44.472  49.369  1.00  0.00    -0.364 N 
HETATM   23  H   UNL     1      24.413  44.234  50.298  1.00  0.00     0.165 HD
BRANCH  22  24
HETATM   24  C   UNL     1      23.715  45.822  49.192  1.00  0.00     0.032 A 
HETATM   25  C   UNL     1      24.539  46.796  49.772  1.00  0.00     0.032 A 
HETATM   26  C   UNL     1      24.249  48.157  49.648  1.00  0.00     0.039 A 
HETATM   27  C   UNL     1      23.129  48.577  48.934  1.00  0.00     0.068 A 
HETATM   28  C   UNL     1      22.279  47.621  48.382  1.00  0.00     0.039 A 
HETATM   29  C   UNL     1      22.567  46.255  48.519  1.00  0.00     0.032 A 
BRANCH  27  30
HETATM   30  O   UNL     1      22.967  49.932  48.863  1.00  0.00    -0.352 OA
BRANCH  30  31
HETATM   31  C   UNL     1      21.869  50.481  49.590  1.00  0.00     0.171 C 
HETATM   32  C   UNL     1      20.970  51.203  48.601  1.00  0.00     0.034 C 
ENDBRANCH  30  31
ENDBRANCH  27  30
ENDBRANCH  22  24
ENDBRANCH   1  22
TORSDOF 6
ENDMDL
MODEL 8
REMARK VINA RESULT:      -8.5      2.870      7.231
REMARK  6 active torsions:
REMARK  status: ('A' for Active; 'I' for Inactive)
REMARK    1  A    between atoms: C_2  and  O_3 
REMARK    2  A    between atoms: O_3  and  C_4 
REMARK    3  A    between atoms: C_7  and  N_8 
REMARK    4  A    between atoms: N_8  and  C_9 
REMARK    5  A    between atoms: C_10  and  C_11 
REMARK    6  A    between atoms: C_14  and  C_15 
ROOT
HETATM    1  C   UNL     1      26.300  47.019  51.699  1.00  0.00     0.113 C 
HETATM    2  C   UNL     1      25.922  46.975  50.406  1.00  0.00     0.082 C 
HETATM    3  C   UNL     1      26.041  48.222  49.546  1.00  0.00     0.024 C 
HETATM    4  N   UNL     1      26.140  49.258  48.831  1.00  0.00    -0.096 N 
ENDROOT
BRANCH   2   5
HETATM    5  C   UNL     1      25.351  45.783  49.839  1.00  0.00     0.119 A 
HETATM    6  S   UNL     1      23.682  45.747  49.351  1.00  0.00    -0.078 SA
HETATM    7  C   UNL     1      23.843  44.120  48.858  1.00  0.00     0.084 A 
HETATM    8  C   UNL     1      25.133  43.686  49.064  1.00  0.00     0.081 A 
HETATM    9  N   UNL     1      25.985  44.638  49.614  1.00  0.00    -0.239 NA
BRANCH   8  10
HETATM   10  C   UNL     1      25.641  42.360  48.822  1.00  0.00     0.070 A 
HETATM   11  C   UNL     1      25.037  41.518  47.738  1.00  0.00     0.301 A 
HETATM   12  O   UNL     1      24.154  41.926  46.991  1.00  0.00    -0.259 OA
HETATM   13  O   UNL     1      25.518  40.217  47.594  1.00  0.00    -0.274 OA
HETATM   14  C   UNL     1      26.559  39.713  48.388  1.00  0.00     0.089 A 
HETATM   15  C   UNL     1      27.151  40.508  49.362  1.00  0.00     0.000 A 
HETATM   16  C   UNL     1      26.969  38.402  48.159  1.00  0.00     0.039 A 
HETATM   17  C   UNL     1      28.188  39.975  50.131  1.00  0.00     0.033 A 
HETATM   18  C   UNL     1      26.650  41.857  49.558  1.00  0.00     0.034 A 
HETATM   19  C   UNL     1      28.608  38.661  49.910  1.00  0.00     0.012 A 
HETATM   20  C   UNL     1      28.004  37.872  48.928  1.00  0.00     0.022 A 
HETATM   21 BR   UNL     1      30.010  37.940  50.954  1.00  0.00    -0.051 Br
ENDBRANCH   8  10
ENDBRANCH   2   5
BRANCH   1  22
HETATM   22  N   UNL     1      26.186  46.019  52.638  1.00  0.00    -0.364 N 
HETATM   23  H   UNL     1      25.227  45.701  52.804  1.00  0.00     0.165 HD
BRANCH  22  24
HETATM   24  C   UNL     1      27.180  45.267  53.281  1.00  0.00     0.032 A 
HETATM   25  C   UNL     1      27.694  45.744  54.495  1.00  0.00     0.032 A 
HETATM   26  C   UNL     1      28.697  45.051  55.178  1.00  0.00     0.039 A 
HETATM   27  C   UNL     1      29.205  43.859  54.666  1.00  0.00     0.068 A 
HETATM   28  C   UNL     1      28.731  43.391  53.442  1.00  0.00     0.039 A 
HETATM   29  C   UNL     1      27.733  44.096  52.754  1.00  0.00     0.032 A 
BRANCH  27  30
HETATM   30  O   UNL     1      30.163  43.264  55.437  1.00  0.00    -0.352 OA
BRANCH  30  31
HETATM   31  C   UNL     1      30.990  44.132  56.210  1.00  0.00     0.171 C 
HETATM   32  C   UNL     1      31.839  43.271  57.128  1.00  0.00     0.034 C 
ENDBRANCH  30  31
ENDBRANCH  27  30
ENDBRANCH  22  24
ENDBRANCH   1  22
TORSDOF 6
ENDMDL
MODEL 9
REMARK VINA RESULT:      -8.5      5.263      9.309
REMARK  6 active torsions:
REMARK  status: ('A' for Active; 'I' for Inactive)
REMARK    1  A    between atoms: C_2  and  O_3 
REMARK    2  A    between atoms: O_3  and  C_4 
REMARK    3  A    between atoms: C_7  and  N_8 
REMARK    4  A    between atoms: N_8  and  C_9 
REMARK    5  A    between atoms: C_10  and  C_11 
REMARK    6  A    between atoms: C_14  and  C_15 
ROOT
HETATM    1  C   UNL     1      21.073  47.600  48.701  1.00  0.00     0.113 C 
HETATM    2  C   UNL     1      22.142  46.817  48.456  1.00  0.00     0.082 C 
HETATM    3  C   UNL     1      21.981  45.574  47.596  1.00  0.00     0.024 C 
HETATM    4  N   UNL     1      21.848  44.543  46.882  1.00  0.00    -0.096 N 
ENDROOT
BRANCH   2   5
HETATM    5  C   UNL     1      23.423  47.103  49.043  1.00  0.00     0.119 A 
HETATM    6  S   UNL     1      24.259  48.580  48.664  1.00  0.00    -0.078 SA
HETATM    7  C   UNL     1      25.555  48.129  49.680  1.00  0.00     0.084 A 
HETATM    8  C   UNL     1      25.297  46.910  50.266  1.00  0.00     0.081 A 
HETATM    9  N   UNL     1      24.082  46.339  49.906  1.00  0.00    -0.239 NA
BRANCH   8  10
HETATM   10  C   UNL     1      26.175  46.176  51.143  1.00  0.00     0.070 A 
HETATM   11  C   UNL     1      26.833  44.920  50.655  1.00  0.00     0.301 A 
HETATM   12  O   UNL     1      26.709  44.506  49.506  1.00  0.00    -0.259 OA
HETATM   13  O   UNL     1      27.614  44.211  51.565  1.00  0.00    -0.274 OA
HETATM   14  C   UNL     1      27.830  44.663  52.876  1.00  0.00     0.089 A 
HETATM   15  C   UNL     1      27.258  45.851  53.315  1.00  0.00     0.000 A 
HETATM   16  C   UNL     1      28.632  43.883  53.704  1.00  0.00     0.039 A 
HETATM   17  C   UNL     1      27.497  46.273  54.625  1.00  0.00     0.033 A 
HETATM   18  C   UNL     1      26.412  46.596  52.400  1.00  0.00     0.034 A 
HETATM   19  C   UNL     1      28.301  45.497  55.465  1.00  0.00     0.012 A 
HETATM   20  C   UNL     1      28.870  44.305  55.011  1.00  0.00     0.022 A 
HETATM   21 BR   UNL     1      28.623  46.068  57.239  1.00  0.00    -0.051 Br
ENDBRANCH   8  10
ENDBRANCH   2   5
BRANCH   1  22
HETATM   22  N   UNL     1      21.017  48.707  49.518  1.00  0.00    -0.364 N 
HETATM   23  H   UNL     1      21.799  48.790  50.174  1.00  0.00     0.165 HD
BRANCH  22  24
HETATM   24  C   UNL     1      20.151  49.810  49.485  1.00  0.00     0.032 A 
HETATM   25  C   UNL     1      18.911  49.702  50.129  1.00  0.00     0.032 A 
HETATM   26  C   UNL     1      17.996  50.758  50.119  1.00  0.00     0.039 A 
HETATM   27  C   UNL     1      18.303  51.951  49.469  1.00  0.00     0.068 A 
HETATM   28  C   UNL     1      19.516  52.062  48.793  1.00  0.00     0.039 A 
HETATM   29  C   UNL     1      20.427  50.995  48.795  1.00  0.00     0.032 A 
BRANCH  27  30
HETATM   30  O   UNL     1      17.339  52.916  49.552  1.00  0.00    -0.352 OA
BRANCH  30  31
HETATM   31  C   UNL     1      15.988  52.481  49.406  1.00  0.00     0.171 C 
HETATM   32  C   UNL     1      15.708  52.322  47.922  1.00  0.00     0.034 C 
ENDBRANCH  30  31
ENDBRANCH  27  30
ENDBRANCH  22  24
ENDBRANCH   1  22
TORSDOF 6
ENDMDL
MODEL 10
REMARK VINA RESULT:      -8.4      5.610      9.655
REMARK  6 active torsions:
REMARK  status: ('A' for Active; 'I' for Inactive)
REMARK    1  A    between atoms: C_2  and  O_3 
REMARK    2  A    between atoms: O_3  and  C_4 
REMARK    3  A    between atoms: C_7  and  N_8 
REMARK    4  A    between atoms: N_8  and  C_9 
REMARK    5  A    between atoms: C_10  and  C_11 
REMARK    6  A    between atoms: C_14  and  C_15 
ROOT
HETATM    1  C   UNL     1      23.043  49.999  49.121  1.00  0.00     0.113 C 
HETATM    2  C   UNL     1      24.125  49.214  48.951  1.00  0.00     0.082 C 
HETATM    3  C   UNL     1      25.376  49.789  48.306  1.00  0.00     0.024 C 
HETATM    4  N   UNL     1      26.414  50.266  47.770  1.00  0.00    -0.096 N 
ENDROOT
BRANCH   2   5
HETATM    5  C   UNL     1      24.100  47.824  49.317  1.00  0.00     0.119 A 
HETATM    6  S   UNL     1      22.804  46.793  48.783  1.00  0.00    -0.078 SA
HETATM    7  C   UNL     1      23.500  45.465  49.601  1.00  0.00     0.084 A 
HETATM    8  C   UNL     1      24.670  45.847  50.218  1.00  0.00     0.081 A 
HETATM    9  N   UNL     1      25.007  47.186  50.045  1.00  0.00    -0.239 NA
BRANCH   8  10
HETATM   10  C   UNL     1      25.513  45.023  51.047  1.00  0.00     0.070 A 
HETATM   11  C   UNL     1      25.517  43.535  50.856  1.00  0.00     0.301 A 
HETATM   12  O   UNL     1      24.872  42.974  49.976  1.00  0.00    -0.259 OA
HETATM   13  O   UNL     1      26.295  42.779  51.731  1.00  0.00    -0.274 OA
HETATM   14  C   UNL     1      27.089  43.370  52.726  1.00  0.00     0.089 A 
HETATM   15  C   UNL     1      27.122  44.751  52.873  1.00  0.00     0.000 A 
HETATM   16  C   UNL     1      27.834  42.524  53.544  1.00  0.00     0.039 A 
HETATM   17  C   UNL     1      27.928  45.305  53.870  1.00  0.00     0.033 A 
HETATM   18  C   UNL     1      26.298  45.564  51.997  1.00  0.00     0.034 A 
HETATM   19  C   UNL     1      28.680  44.466  54.697  1.00  0.00     0.012 A 
HETATM   20  C   UNL     1      28.637  43.079  54.539  1.00  0.00     0.022 A 
HETATM   21 BR   UNL     1      29.768  45.218  56.049  1.00  0.00    -0.051 Br
ENDBRANCH   8  10
ENDBRANCH   2   5
BRANCH   1  22
HETATM   22  N   UNL     1      21.809  49.629  49.606  1.00  0.00    -0.364 N 
HETATM   23  H   UNL     1      21.819  48.790  50.194  1.00  0.00     0.165 HD
BRANCH  22  24
HETATM   24  C   UNL     1      20.580  50.301  49.554  1.00  0.00     0.032 A 
HETATM   25  C   UNL     1      20.495  51.475  48.793  1.00  0.00     0.032 A 
HETATM   26  C   UNL     1      19.304  52.202  48.712  1.00  0.00     0.039 A 
HETATM   27  C   UNL     1      18.165  51.766  49.387  1.00  0.00     0.068 A 
HETATM   28  C   UNL     1      18.242  50.621  50.177  1.00  0.00     0.039 A 
HETATM   29  C   UNL     1      19.443  49.901  50.265  1.00  0.00     0.032 A 
BRANCH  27  30
HETATM   30  O   UNL     1      17.058  52.547  49.211  1.00  0.00    -0.352 OA
BRANCH  30  31
HETATM   31  C   UNL     1      15.798  51.937  49.486  1.00  0.00     0.171 C 
HETATM   32  C   UNL     1      14.770  53.044  49.644  1.00  0.00     0.034 C 
ENDBRANCH  30  31
ENDBRANCH  27  30
ENDBRANCH  22  24
ENDBRANCH   1  22
TORSDOF 6
ENDMDL
