MODEL 1
REMARK VINA RESULT:      -8.1      0.000      0.000
REMARK  5 active torsions:
REMARK  status: ('A' for Active; 'I' for Inactive)
REMARK    1  A    between atoms: C_2  and  O_3 
REMARK    2  A    between atoms: C_2  and  C_5 
REMARK    3  A    between atoms: C_7  and  N_8 
REMARK    4  A    between atoms: N_8  and  C_9 
REMARK    5  A    between atoms: C_9  and  C_10 
ROOT
HETATM    1  N   UNL     1      25.390  47.201  52.569  1.00  0.00    -0.289 NA
HETATM    2  H   UNL     1      25.400  48.220  52.539  1.00  0.00     0.128 HD
ENDROOT
BRANCH   1   3
HETATM    3  C   UNL     1      26.336  46.740  53.502  1.00  0.00     0.009 A 
HETATM    4  C   UNL     1      27.001  45.531  53.237  1.00  0.00     0.033 A 
HETATM    5  C   UNL     1      28.011  45.031  54.083  1.00  0.00    -0.028 A 
HETATM    6  C   UNL     1      28.354  45.774  55.216  1.00  0.00     0.010 A 
HETATM    7  C   UNL     1      27.749  47.006  55.462  1.00  0.00     0.002 A 
HETATM    8  C   UNL     1      26.765  47.492  54.598  1.00  0.00     0.023 A 
BRANCH   5   9
HETATM    9  C   UNL     1      28.657  43.695  53.762  1.00  0.00     0.149 C 
HETATM   10  C   UNL     1      29.902  43.400  54.601  1.00  0.00     0.045 C 
BRANCH   9  11
HETATM   11  O   UNL     1      27.659  42.692  53.971  1.00  0.00    -0.386 OA
HETATM   12  C   UNL     1      28.019  41.421  53.451  1.00  0.00     0.202 C 
ENDBRANCH   9  11
ENDBRANCH   5   9
ENDBRANCH   1   3
BRANCH   1  13
HETATM   13  C   UNL     1      25.431  46.657  51.205  1.00  0.00     0.133 C 
BRANCH  13  14
HETATM   14  C   UNL     1      25.510  47.727  50.137  1.00  0.00    -0.016 A 
HETATM   15  C   UNL     1      24.413  48.333  49.501  1.00  0.00     0.069 A 
HETATM   16  C   UNL     1      24.520  49.348  48.558  1.00  0.00     0.012 A 
HETATM   17  N   UNL     1      23.064  48.104  49.623  1.00  0.00    -0.277 N 
HETATM   18  C   UNL     1      23.186  49.651  48.208  1.00  0.00     0.152 A 
HETATM   19  C   UNL     1      25.793  49.813  48.191  1.00  0.00     0.015 A 
HETATM   20  N   UNL     1      22.294  48.902  48.859  1.00  0.00    -0.186 NA
HETATM   21  C   UNL     1      26.914  49.236  48.795  1.00  0.00     0.002 A 
HETATM   22  C   UNL     1      26.772  48.222  49.745  1.00  0.00     0.011 A 
HETATM   23  H   UNL     1      22.634  47.402  50.217  1.00  0.00     0.189 HD
ENDBRANCH  13  14
ENDBRANCH   1  13
TORSDOF 5
ENDMDL
MODEL 2
REMARK VINA RESULT:      -7.9      4.477      7.680
REMARK  5 active torsions:
REMARK  status: ('A' for Active; 'I' for Inactive)
REMARK    1  A    between atoms: C_2  and  O_3 
REMARK    2  A    between atoms: C_2  and  C_5 
REMARK    3  A    between atoms: C_7  and  N_8 
REMARK    4  A    between atoms: N_8  and  C_9 
REMARK    5  A    between atoms: C_9  and  C_10 
ROOT
HETATM    1  N   UNL     1      29.443  41.973  52.514  1.00  0.00    -0.289 NA
HETATM    2  H   UNL     1      29.940  41.139  52.825  1.00  0.00     0.128 HD
ENDROOT
BRANCH   1   3
HETATM    3  C   UNL     1      29.520  42.972  53.500  1.00  0.00     0.009 A 
HETATM    4  C   UNL     1      28.488  43.924  53.571  1.00  0.00     0.033 A 
HETATM    5  C   UNL     1      28.452  44.917  54.570  1.00  0.00    -0.028 A 
HETATM    6  C   UNL     1      29.482  44.942  55.517  1.00  0.00     0.010 A 
HETATM    7  C   UNL     1      30.480  43.969  55.500  1.00  0.00     0.002 A 
HETATM    8  C   UNL     1      30.484  42.981  54.512  1.00  0.00     0.023 A 
BRANCH   5   9
HETATM    9  C   UNL     1      27.333  45.941  54.561  1.00  0.00     0.149 C 
HETATM   10  C   UNL     1      27.813  47.375  54.794  1.00  0.00     0.045 C 
BRANCH   9  11
HETATM   11  O   UNL     1      26.679  45.829  53.294  1.00  0.00    -0.386 OA
HETATM   12  C   UNL     1      26.005  47.015  52.900  1.00  0.00     0.202 C 
ENDBRANCH   9  11
ENDBRANCH   5   9
ENDBRANCH   1   3
BRANCH   1  13
HETATM   13  C   UNL     1      28.119  41.606  51.994  1.00  0.00     0.133 C 
BRANCH  13  14
HETATM   14  C   UNL     1      28.177  40.887  50.663  1.00  0.00    -0.016 A 
HETATM   15  C   UNL     1      28.838  39.672  50.416  1.00  0.00     0.069 A 
HETATM   16  C   UNL     1      28.832  39.015  49.191  1.00  0.00     0.012 A 
HETATM   17  N   UNL     1      29.602  38.881  51.238  1.00  0.00    -0.277 N 
HETATM   18  C   UNL     1      29.600  37.850  49.408  1.00  0.00     0.152 A 
HETATM   19  C   UNL     1      28.135  39.582  48.111  1.00  0.00     0.015 A 
HETATM   20  N   UNL     1      30.066  37.759  50.656  1.00  0.00    -0.186 NA
HETATM   21  C   UNL     1      27.466  40.793  48.310  1.00  0.00     0.002 A 
HETATM   22  C   UNL     1      27.487  41.425  49.555  1.00  0.00     0.011 A 
HETATM   23  H   UNL     1      29.834  39.083  52.206  1.00  0.00     0.189 HD
ENDBRANCH  13  14
ENDBRANCH   1  13
TORSDOF 5
ENDMDL
MODEL 3
REMARK VINA RESULT:      -7.8      2.858      7.532
REMARK  5 active torsions:
REMARK  status: ('A' for Active; 'I' for Inactive)
REMARK    1  A    between atoms: C_2  and  O_3 
REMARK    2  A    between atoms: C_2  and  C_5 
REMARK    3  A    between atoms: C_7  and  N_8 
REMARK    4  A    between atoms: N_8  and  C_9 
REMARK    5  A    between atoms: C_9  and  C_10 
ROOT
HETATM    1  N   UNL     1      26.227  46.426  50.828  1.00  0.00    -0.289 NA
HETATM    2  H   UNL     1      27.212  46.283  51.048  1.00  0.00     0.128 HD
ENDROOT
BRANCH   1   3
HETATM    3  C   UNL     1      26.085  47.530  49.969  1.00  0.00     0.009 A 
HETATM    4  C   UNL     1      24.789  48.002  49.696  1.00  0.00     0.033 A 
HETATM    5  C   UNL     1      24.559  49.143  48.902  1.00  0.00    -0.028 A 
HETATM    6  C   UNL     1      25.666  49.819  48.378  1.00  0.00     0.010 A 
HETATM    7  C   UNL     1      26.960  49.403  48.689  1.00  0.00     0.002 A 
HETATM    8  C   UNL     1      27.164  48.282  49.497  1.00  0.00     0.023 A 
BRANCH   5   9
HETATM    9  C   UNL     1      23.133  49.571  48.608  1.00  0.00     0.149 C 
HETATM   10  C   UNL     1      22.982  51.073  48.365  1.00  0.00     0.045 C 
BRANCH   9  11
HETATM   11  O   UNL     1      22.706  48.829  47.463  1.00  0.00    -0.386 OA
HETATM   12  C   UNL     1      21.574  48.009  47.711  1.00  0.00     0.202 C 
ENDBRANCH   9  11
ENDBRANCH   5   9
ENDBRANCH   1   3
BRANCH   1  13
HETATM   13  C   UNL     1      25.427  46.390  52.059  1.00  0.00     0.133 C 
BRANCH  13  14
HETATM   14  C   UNL     1      26.260  46.510  53.317  1.00  0.00    -0.016 A 
HETATM   15  C   UNL     1      27.284  45.630  53.710  1.00  0.00     0.069 A 
HETATM   16  C   UNL     1      28.061  45.796  54.849  1.00  0.00     0.012 A 
HETATM   17  N   UNL     1      27.745  44.473  53.131  1.00  0.00    -0.277 N 
HETATM   18  C   UNL     1      28.953  44.700  54.834  1.00  0.00     0.152 A 
HETATM   19  C   UNL     1      27.829  46.900  55.685  1.00  0.00     0.015 A 
HETATM   20  N   UNL     1      28.770  43.895  53.785  1.00  0.00    -0.186 NA
HETATM   21  C   UNL     1      26.817  47.799  55.337  1.00  0.00     0.002 A 
HETATM   22  C   UNL     1      26.056  47.608  54.181  1.00  0.00     0.011 A 
HETATM   23  H   UNL     1      27.375  44.044  52.288  1.00  0.00     0.189 HD
ENDBRANCH  13  14
ENDBRANCH   1  13
TORSDOF 5
ENDMDL
MODEL 4
REMARK VINA RESULT:      -7.7      3.762      7.886
REMARK  5 active torsions:
REMARK  status: ('A' for Active; 'I' for Inactive)
REMARK    1  A    between atoms: C_2  and  O_3 
REMARK    2  A    between atoms: C_2  and  C_5 
REMARK    3  A    between atoms: C_7  and  N_8 
REMARK    4  A    between atoms: N_8  and  C_9 
REMARK    5  A    between atoms: C_9  and  C_10 
ROOT
HETATM    1  N   UNL     1      28.366  43.172  53.972  1.00  0.00    -0.289 NA
HETATM    2  H   UNL     1      28.087  42.202  54.118  1.00  0.00     0.128 HD
ENDROOT
BRANCH   1   3
HETATM    3  C   UNL     1      27.715  43.692  52.838  1.00  0.00     0.009 A 
HETATM    4  C   UNL     1      26.926  44.844  52.991  1.00  0.00     0.033 A 
HETATM    5  C   UNL     1      26.295  45.470  51.897  1.00  0.00    -0.028 A 
HETATM    6  C   UNL     1      26.471  44.916  50.625  1.00  0.00     0.010 A 
HETATM    7  C   UNL     1      27.300  43.809  50.446  1.00  0.00     0.002 A 
HETATM    8  C   UNL     1      27.933  43.219  51.542  1.00  0.00     0.023 A 
BRANCH   5   9
HETATM    9  C   UNL     1      25.419  46.685  52.139  1.00  0.00     0.149 C 
HETATM   10  C   UNL     1      25.705  47.392  53.465  1.00  0.00     0.045 C 
BRANCH   9  11
HETATM   11  O   UNL     1      25.631  47.573  51.038  1.00  0.00    -0.386 OA
HETATM   12  C   UNL     1      24.496  47.708  50.195  1.00  0.00     0.202 C 
ENDBRANCH   9  11
ENDBRANCH   5   9
ENDBRANCH   1   3
BRANCH   1  13
HETATM   13  C   UNL     1      29.828  43.293  54.054  1.00  0.00     0.133 C 
BRANCH  13  14
HETATM   14  C   UNL     1      30.312  43.775  55.405  1.00  0.00    -0.016 A 
HETATM   15  C   UNL     1      29.742  44.817  56.156  1.00  0.00     0.069 A 
HETATM   16  C   UNL     1      30.184  45.203  57.415  1.00  0.00     0.012 A 
HETATM   17  N   UNL     1      28.697  45.661  55.873  1.00  0.00    -0.277 N 
HETATM   18  C   UNL     1      29.323  46.261  57.786  1.00  0.00     0.152 A 
HETATM   19  C   UNL     1      31.272  44.534  57.998  1.00  0.00     0.015 A 
HETATM   20  N   UNL     1      28.410  46.539  56.852  1.00  0.00    -0.186 NA
HETATM   21  C   UNL     1      31.873  43.493  57.285  1.00  0.00     0.002 A 
HETATM   22  C   UNL     1      31.402  43.124  56.022  1.00  0.00     0.011 A 
HETATM   23  H   UNL     1      28.158  45.668  55.012  1.00  0.00     0.189 HD
ENDBRANCH  13  14
ENDBRANCH   1  13
TORSDOF 5
ENDMDL
MODEL 5
REMARK VINA RESULT:      -7.7      3.185      7.330
REMARK  5 active torsions:
REMARK  status: ('A' for Active; 'I' for Inactive)
REMARK    1  A    between atoms: C_2  and  O_3 
REMARK    2  A    between atoms: C_2  and  C_5 
REMARK    3  A    between atoms: C_7  and  N_8 
REMARK    4  A    between atoms: N_8  and  C_9 
REMARK    5  A    between atoms: C_9  and  C_10 
ROOT
HETATM    1  N   UNL     1      26.290  43.463  53.165  1.00  0.00    -0.289 NA
HETATM    2  H   UNL     1      25.798  42.653  53.541  1.00  0.00     0.128 HD
ENDROOT
BRANCH   1   3
HETATM    3  C   UNL     1      25.518  44.063  52.153  1.00  0.00     0.009 A 
HETATM    4  C   UNL     1      25.721  45.426  51.878  1.00  0.00     0.033 A 
HETATM    5  C   UNL     1      25.041  46.090  50.838  1.00  0.00    -0.028 A 
HETATM    6  C   UNL     1      24.140  45.354  50.060  1.00  0.00     0.010 A 
HETATM    7  C   UNL     1      23.973  43.987  50.278  1.00  0.00     0.002 A 
HETATM    8  C   UNL     1      24.674  43.346  51.302  1.00  0.00     0.023 A 
BRANCH   5   9
HETATM    9  C   UNL     1      25.273  47.574  50.625  1.00  0.00     0.149 C 
HETATM   10  C   UNL     1      26.417  47.882  49.657  1.00  0.00     0.045 C 
BRANCH   9  11
HETATM   11  O   UNL     1      24.043  48.120  50.141  1.00  0.00    -0.386 OA
HETATM   12  C   UNL     1      24.194  48.894  48.960  1.00  0.00     0.202 C 
ENDBRANCH   9  11
ENDBRANCH   5   9
ENDBRANCH   1   3
BRANCH   1  13
HETATM   13  C   UNL     1      27.684  43.111  52.864  1.00  0.00     0.133 C 
BRANCH  13  14
HETATM   14  C   UNL     1      28.662  43.595  53.913  1.00  0.00    -0.016 A 
HETATM   15  C   UNL     1      28.521  44.756  54.691  1.00  0.00     0.069 A 
HETATM   16  C   UNL     1      29.416  45.146  55.680  1.00  0.00     0.012 A 
HETATM   17  N   UNL     1      27.556  45.733  54.682  1.00  0.00    -0.277 N 
HETATM   18  C   UNL     1      28.876  46.345  56.197  1.00  0.00     0.152 A 
HETATM   19  C   UNL     1      30.547  44.353  55.935  1.00  0.00     0.015 A 
HETATM   20  N   UNL     1      27.738  46.703  55.598  1.00  0.00    -0.186 NA
HETATM   21  C   UNL     1      30.730  43.190  55.182  1.00  0.00     0.002 A 
HETATM   22  C   UNL     1      29.808  42.822  54.199  1.00  0.00     0.011 A 
HETATM   23  H   UNL     1      26.757  45.770  54.055  1.00  0.00     0.189 HD
ENDBRANCH  13  14
ENDBRANCH   1  13
TORSDOF 5
ENDMDL
MODEL 6
REMARK VINA RESULT:      -7.7      2.884      4.130
REMARK  5 active torsions:
REMARK  status: ('A' for Active; 'I' for Inactive)
REMARK    1  A    between atoms: C_2  and  O_3 
REMARK    2  A    between atoms: C_2  and  C_5 
REMARK    3  A    between atoms: C_7  and  N_8 
REMARK    4  A    between atoms: N_8  and  C_9 
REMARK    5  A    between atoms: C_9  and  C_10 
ROOT
HETATM    1  N   UNL     1      25.931  43.407  53.819  1.00  0.00    -0.289 NA
HETATM    2  H   UNL     1      25.650  42.943  54.682  1.00  0.00     0.128 HD
ENDROOT
BRANCH   1   3
HETATM    3  C   UNL     1      27.300  43.189  53.581  1.00  0.00     0.009 A 
HETATM    4  C   UNL     1      28.228  43.705  54.501  1.00  0.00     0.033 A 
HETATM    5  C   UNL     1      29.613  43.476  54.377  1.00  0.00    -0.028 A 
HETATM    6  C   UNL     1      30.062  42.705  53.301  1.00  0.00     0.010 A 
HETATM    7  C   UNL     1      29.152  42.132  52.413  1.00  0.00     0.002 A 
HETATM    8  C   UNL     1      27.782  42.356  52.568  1.00  0.00     0.023 A 
BRANCH   5   9
HETATM    9  C   UNL     1      30.564  44.102  55.381  1.00  0.00     0.149 C 
HETATM   10  C   UNL     1      29.932  45.223  56.207  1.00  0.00     0.045 C 
BRANCH   9  11
HETATM   11  O   UNL     1      31.022  43.047  56.230  1.00  0.00    -0.386 OA
HETATM   12  C   UNL     1      31.734  43.508  57.369  1.00  0.00     0.202 C 
ENDBRANCH   9  11
ENDBRANCH   5   9
ENDBRANCH   1   3
BRANCH   1  13
HETATM   13  C   UNL     1      25.430  44.788  53.803  1.00  0.00     0.133 C 
BRANCH  13  14
HETATM   14  C   UNL     1      25.481  45.427  52.432  1.00  0.00    -0.016 A 
HETATM   15  C   UNL     1      25.025  44.843  51.238  1.00  0.00     0.069 A 
HETATM   16  C   UNL     1      25.044  45.478  50.002  1.00  0.00     0.012 A 
HETATM   17  N   UNL     1      24.493  43.602  50.990  1.00  0.00    -0.277 N 
HETATM   18  C   UNL     1      24.488  44.536  49.109  1.00  0.00     0.152 A 
HETATM   19  C   UNL     1      25.553  46.784  49.908  1.00  0.00     0.015 A 
HETATM   20  N   UNL     1      24.143  43.393  49.707  1.00  0.00    -0.186 NA
HETATM   21  C   UNL     1      26.022  47.403  51.070  1.00  0.00     0.002 A 
HETATM   22  C   UNL     1      25.984  46.740  52.299  1.00  0.00     0.011 A 
HETATM   23  H   UNL     1      24.360  42.867  51.678  1.00  0.00     0.189 HD
ENDBRANCH  13  14
ENDBRANCH   1  13
TORSDOF 5
ENDMDL
MODEL 7
REMARK VINA RESULT:      -7.7      5.132      7.275
REMARK  5 active torsions:
REMARK  status: ('A' for Active; 'I' for Inactive)
REMARK    1  A    between atoms: C_2  and  O_3 
REMARK    2  A    between atoms: C_2  and  C_5 
REMARK    3  A    between atoms: C_7  and  N_8 
REMARK    4  A    between atoms: N_8  and  C_9 
REMARK    5  A    between atoms: C_9  and  C_10 
ROOT
HETATM    1  N   UNL     1      27.351  41.918  53.552  1.00  0.00    -0.289 NA
HETATM    2  H   UNL     1      26.557  41.939  52.913  1.00  0.00     0.128 HD
ENDROOT
BRANCH   1   3
HETATM    3  C   UNL     1      27.606  43.212  54.040  1.00  0.00     0.009 A 
HETATM    4  C   UNL     1      28.820  43.447  54.708  1.00  0.00     0.033 A 
HETATM    5  C   UNL     1      29.186  44.727  55.169  1.00  0.00    -0.028 A 
HETATM    6  C   UNL     1      28.304  45.789  54.944  1.00  0.00     0.010 A 
HETATM    7  C   UNL     1      27.124  45.587  54.229  1.00  0.00     0.002 A 
HETATM    8  C   UNL     1      26.792  44.313  53.763  1.00  0.00     0.023 A 
BRANCH   5   9
HETATM    9  C   UNL     1      30.492  44.902  55.923  1.00  0.00     0.149 C 
HETATM   10  C   UNL     1      30.311  45.446  57.341  1.00  0.00     0.045 C 
BRANCH   9  11
HETATM   11  O   UNL     1      31.128  43.622  55.951  1.00  0.00    -0.386 OA
HETATM   12  C   UNL     1      31.771  43.338  57.185  1.00  0.00     0.202 C 
ENDBRANCH   9  11
ENDBRANCH   5   9
ENDBRANCH   1   3
BRANCH   1  13
HETATM   13  C   UNL     1      28.461  41.166  52.951  1.00  0.00     0.133 C 
BRANCH  13  14
HETATM   14  C   UNL     1      28.288  40.932  51.465  1.00  0.00    -0.016 A 
HETATM   15  C   UNL     1      28.769  39.822  50.749  1.00  0.00     0.069 A 
HETATM   16  C   UNL     1      28.551  39.616  49.392  1.00  0.00     0.012 A 
HETATM   17  N   UNL     1      29.519  38.747  51.155  1.00  0.00    -0.277 N 
HETATM   18  C   UNL     1      29.195  38.390  49.111  1.00  0.00     0.152 A 
HETATM   19  C   UNL     1      27.814  40.562  48.662  1.00  0.00     0.015 A 
HETATM   20  N   UNL     1      29.779  37.851  50.184  1.00  0.00    -0.186 NA
HETATM   21  C   UNL     1      27.320  41.685  49.333  1.00  0.00     0.002 A 
HETATM   22  C   UNL     1      27.551  41.861  50.699  1.00  0.00     0.011 A 
HETATM   23  H   UNL     1      29.876  38.594  52.094  1.00  0.00     0.189 HD
ENDBRANCH  13  14
ENDBRANCH   1  13
TORSDOF 5
ENDMDL
MODEL 8
REMARK VINA RESULT:      -7.5      2.212      3.328
REMARK  5 active torsions:
REMARK  status: ('A' for Active; 'I' for Inactive)
REMARK    1  A    between atoms: C_2  and  O_3 
REMARK    2  A    between atoms: C_2  and  C_5 
REMARK    3  A    between atoms: C_7  and  N_8 
REMARK    4  A    between atoms: N_8  and  C_9 
REMARK    5  A    between atoms: C_9  and  C_10 
ROOT
HETATM    1  N   UNL     1      25.290  44.668  53.529  1.00  0.00    -0.289 NA
HETATM    2  H   UNL     1      24.667  45.463  53.392  1.00  0.00     0.128 HD
ENDROOT
BRANCH   1   3
HETATM    3  C   UNL     1      26.476  45.092  54.156  1.00  0.00     0.009 A 
HETATM    4  C   UNL     1      27.538  44.179  54.264  1.00  0.00     0.033 A 
HETATM    5  C   UNL     1      28.783  44.540  54.816  1.00  0.00    -0.028 A 
HETATM    6  C   UNL     1      28.953  45.854  55.264  1.00  0.00     0.010 A 
HETATM    7  C   UNL     1      27.931  46.790  55.108  1.00  0.00     0.002 A 
HETATM    8  C   UNL     1      26.713  46.415  54.538  1.00  0.00     0.023 A 
BRANCH   5   9
HETATM    9  C   UNL     1      29.873  43.492  54.945  1.00  0.00     0.149 C 
HETATM   10  C   UNL     1      30.331  42.916  53.604  1.00  0.00     0.045 C 
BRANCH   9  11
HETATM   11  O   UNL     1      30.966  44.113  55.626  1.00  0.00    -0.386 OA
HETATM   12  C   UNL     1      31.414  43.382  56.759  1.00  0.00     0.202 C 
ENDBRANCH   9  11
ENDBRANCH   5   9
ENDBRANCH   1   3
BRANCH   1  13
HETATM   13  C   UNL     1      25.397  43.893  52.285  1.00  0.00     0.133 C 
BRANCH  13  14
HETATM   14  C   UNL     1      24.562  44.457  51.156  1.00  0.00    -0.016 A 
HETATM   15  C   UNL     1      24.582  45.790  50.708  1.00  0.00     0.069 A 
HETATM   16  C   UNL     1      23.836  46.264  49.636  1.00  0.00     0.012 A 
HETATM   17  N   UNL     1      25.272  46.882  51.171  1.00  0.00    -0.277 N 
HETATM   18  C   UNL     1      24.176  47.632  49.544  1.00  0.00     0.152 A 
HETATM   19  C   UNL     1      22.995  45.381  48.940  1.00  0.00     0.015 A 
HETATM   20  N   UNL     1      25.057  48.013  50.472  1.00  0.00    -0.186 NA
HETATM   21  C   UNL     1      22.941  44.047  49.352  1.00  0.00     0.002 A 
HETATM   22  C   UNL     1      23.707  43.599  50.431  1.00  0.00     0.011 A 
HETATM   23  H   UNL     1      25.899  46.893  51.971  1.00  0.00     0.189 HD
ENDBRANCH  13  14
ENDBRANCH   1  13
TORSDOF 5
ENDMDL
MODEL 9
REMARK VINA RESULT:      -7.5      4.366      5.726
REMARK  5 active torsions:
REMARK  status: ('A' for Active; 'I' for Inactive)
REMARK    1  A    between atoms: C_2  and  O_3 
REMARK    2  A    between atoms: C_2  and  C_5 
REMARK    3  A    between atoms: C_7  and  N_8 
REMARK    4  A    between atoms: N_8  and  C_9 
REMARK    5  A    between atoms: C_9  and  C_10 
ROOT
HETATM    1  N   UNL     1      28.240  43.172  51.817  1.00  0.00    -0.289 NA
HETATM    2  H   UNL     1      28.742  43.544  51.011  1.00  0.00     0.128 HD
ENDROOT
BRANCH   1   3
HETATM    3  C   UNL     1      28.924  43.502  53.001  1.00  0.00     0.009 A 
HETATM    4  C   UNL     1      28.365  44.475  53.846  1.00  0.00     0.033 A 
HETATM    5  C   UNL     1      28.948  44.817  55.083  1.00  0.00    -0.028 A 
HETATM    6  C   UNL     1      30.118  44.155  55.469  1.00  0.00     0.010 A 
HETATM    7  C   UNL     1      30.652  43.142  54.673  1.00  0.00     0.002 A 
HETATM    8  C   UNL     1      30.045  42.806  53.460  1.00  0.00     0.023 A 
BRANCH   5   9
HETATM    9  C   UNL     1      28.318  45.910  55.926  1.00  0.00     0.149 C 
HETATM   10  C   UNL     1      28.990  46.098  57.287  1.00  0.00     0.045 C 
BRANCH   9  11
HETATM   11  O   UNL     1      28.386  47.115  55.159  1.00  0.00    -0.386 OA
HETATM   12  C   UNL     1      27.152  47.815  55.096  1.00  0.00     0.202 C 
ENDBRANCH   9  11
ENDBRANCH   5   9
ENDBRANCH   1   3
BRANCH   1  13
HETATM   13  C   UNL     1      27.884  41.766  51.583  1.00  0.00     0.133 C 
BRANCH  13  14
HETATM   14  C   UNL     1      26.706  41.594  50.648  1.00  0.00    -0.016 A 
HETATM   15  C   UNL     1      25.493  42.299  50.720  1.00  0.00     0.069 A 
HETATM   16  C   UNL     1      24.449  42.150  49.816  1.00  0.00     0.012 A 
HETATM   17  N   UNL     1      25.048  43.233  51.624  1.00  0.00    -0.277 N 
HETATM   18  C   UNL     1      23.456  43.050  50.266  1.00  0.00     0.152 A 
HETATM   19  C   UNL     1      24.583  41.240  48.755  1.00  0.00     0.015 A 
HETATM   20  N   UNL     1      23.820  43.718  51.363  1.00  0.00    -0.186 NA
HETATM   21  C   UNL     1      25.772  40.513  48.646  1.00  0.00     0.002 A 
HETATM   22  C   UNL     1      26.806  40.690  49.568  1.00  0.00     0.011 A 
HETATM   23  H   UNL     1      25.560  43.559  52.439  1.00  0.00     0.189 HD
ENDBRANCH  13  14
ENDBRANCH   1  13
TORSDOF 5
ENDMDL
MODEL 10
REMARK VINA RESULT:      -7.4      4.150      8.262
REMARK  5 active torsions:
REMARK  status: ('A' for Active; 'I' for Inactive)
REMARK    1  A    between atoms: C_2  and  O_3 
REMARK    2  A    between atoms: C_2  and  C_5 
REMARK    3  A    between atoms: C_7  and  N_8 
REMARK    4  A    between atoms: N_8  and  C_9 
REMARK    5  A    between atoms: C_9  and  C_10 
ROOT
HETATM    1  N   UNL     1      28.797  42.216  53.638  1.00  0.00    -0.289 NA
HETATM    2  H   UNL     1      28.979  41.245  53.885  1.00  0.00     0.128 HD
ENDROOT
BRANCH   1   3
HETATM    3  C   UNL     1      28.196  42.282  52.367  1.00  0.00     0.009 A 
HETATM    4  C   UNL     1      27.663  43.511  51.942  1.00  0.00     0.033 A 
HETATM    5  C   UNL     1      27.105  43.682  50.660  1.00  0.00    -0.028 A 
HETATM    6  C   UNL     1      27.091  42.585  49.792  1.00  0.00     0.010 A 
HETATM    7  C   UNL     1      27.671  41.376  50.173  1.00  0.00     0.002 A 
HETATM    8  C   UNL     1      28.238  41.236  51.442  1.00  0.00     0.023 A 
BRANCH   5   9
HETATM    9  C   UNL     1      26.506  45.024  50.282  1.00  0.00     0.149 C 
HETATM   10  C   UNL     1      25.360  44.920  49.273  1.00  0.00     0.045 C 
BRANCH   9  11
HETATM   11  O   UNL     1      26.055  45.632  51.495  1.00  0.00    -0.386 OA
HETATM   12  C   UNL     1      25.988  47.049  51.425  1.00  0.00     0.202 C 
ENDBRANCH   9  11
ENDBRANCH   5   9
ENDBRANCH   1   3
BRANCH   1  13
HETATM   13  C   UNL     1      29.992  43.032  53.888  1.00  0.00     0.133 C 
BRANCH  13  14
HETATM   14  C   UNL     1      29.807  44.037  55.005  1.00  0.00    -0.016 A 
HETATM   15  C   UNL     1      30.578  44.111  56.178  1.00  0.00     0.069 A 
HETATM   16  C   UNL     1      30.410  45.077  57.162  1.00  0.00     0.012 A 
HETATM   17  N   UNL     1      31.604  43.319  56.630  1.00  0.00    -0.277 N 
HETATM   18  C   UNL     1      31.394  44.774  58.130  1.00  0.00     0.152 A 
HETATM   19  C   UNL     1      29.411  46.051  57.006  1.00  0.00     0.015 A 
HETATM   20  N   UNL     1      32.130  43.708  57.807  1.00  0.00    -0.186 NA
HETATM   21  C   UNL     1      28.616  46.014  55.857  1.00  0.00     0.002 A 
HETATM   22  C   UNL     1      28.814  45.033  54.882  1.00  0.00     0.011 A 
HETATM   23  H   UNL     1      31.969  42.496  56.159  1.00  0.00     0.189 HD
ENDBRANCH  13  14
ENDBRANCH   1  13
TORSDOF 5
ENDMDL
