MODEL 1
REMARK VINA RESULT:      -9.8      0.000      0.000
REMARK  5 active torsions:
REMARK  status: ('A' for Active; 'I' for Inactive)
REMARK    1  A    between atoms: C_2  and  C_3 
REMARK    2  A    between atoms: N_12  and  N_13 
REMARK       I    between atoms: N_13  and  C_14 
REMARK    3  A    between atoms: C_14  and  C_15 
REMARK    4  A    between atoms: C_15  and  N_16 
REMARK       I    between atoms: N_16  and  C_17 
REMARK    5  A    between atoms: C_17  and  C_18 
ROOT
HETATM    1  N   UNL     1      26.113  47.178  51.769  1.00  0.00    -0.255 N 
HETATM    2  C   UNL     1      25.118  46.772  50.901  1.00  0.00     0.254 C 
HETATM    3  O   UNL     1      24.284  45.906  51.160  1.00  0.00    -0.270 OA
HETATM    4  H   UNL     1      26.943  47.634  51.379  1.00  0.00     0.191 HD
ENDROOT
BRANCH   1   5
HETATM    5  N   UNL     1      26.291  46.453  52.933  1.00  0.00    -0.167 N 
HETATM    6  C   UNL     1      26.089  46.965  54.185  1.00  0.00     0.345 A 
HETATM    7  N   UNL     1      26.453  45.996  55.099  1.00  0.00    -0.319 N 
HETATM    8  O   UNL     1      25.672  48.071  54.492  1.00  0.00    -0.245 OA
HETATM    9  C   UNL     1      27.062  44.839  54.462  1.00  0.00     0.141 A 
HETATM   10  H   UNL     1      26.535  46.228  56.079  1.00  0.00     0.166 HD
HETATM   11  C   UNL     1      26.215  43.583  54.707  1.00  0.00     0.055 C 
HETATM   12  C   UNL     1      26.892  45.219  52.969  1.00  0.00     0.279 A 
HETATM   13  O   UNL     1      27.222  44.530  52.010  1.00  0.00    -0.268 OA
BRANCH   9  14
HETATM   14  C   UNL     1      28.505  44.697  54.937  1.00  0.00    -0.021 A 
HETATM   15  C   UNL     1      29.249  43.546  54.608  1.00  0.00     0.010 A 
HETATM   16  C   UNL     1      30.565  43.381  55.046  1.00  0.00     0.001 A 
HETATM   17  C   UNL     1      31.164  44.358  55.833  1.00  0.00     0.000 A 
HETATM   18  C   UNL     1      30.445  45.494  56.188  1.00  0.00     0.001 A 
HETATM   19  C   UNL     1      29.126  45.660  55.751  1.00  0.00     0.010 A 
ENDBRANCH   9  14
ENDBRANCH   1   5
BRANCH   2  20
HETATM   20  C   UNL     1      25.127  47.530  49.573  1.00  0.00     0.227 C 
BRANCH  20  21
HETATM   21  N   UNL     1      23.813  48.031  49.198  1.00  0.00    -0.348 N 
HETATM   22  C   UNL     1      23.586  49.379  49.030  1.00  0.00     0.252 C 
HETATM   23  O   UNL     1      24.504  50.196  49.045  1.00  0.00    -0.268 OA
HETATM   24  H   UNL     1      23.035  47.394  49.299  1.00  0.00     0.163 HD
BRANCH  22  25
HETATM   25  C   UNL     1      22.176  49.822  48.852  1.00  0.00     0.033 A 
HETATM   26  C   UNL     1      21.169  48.852  48.939  1.00  0.00     0.036 A 
HETATM   27  C   UNL     1      19.835  49.217  48.761  1.00  0.00     0.012 A 
HETATM   28 BR   UNL     1      18.479  47.904  48.869  1.00  0.00    -0.051 Br
HETATM   29  C   UNL     1      19.492  50.543  48.502  1.00  0.00     0.019 A 
HETATM   30  C   UNL     1      20.490  51.516  48.432  1.00  0.00     0.002 A 
HETATM   31  C   UNL     1      21.830  51.160  48.612  1.00  0.00     0.017 A 
ENDBRANCH  22  25
ENDBRANCH  20  21
ENDBRANCH   2  20
TORSDOF 5
ENDMDL
MODEL 2
REMARK VINA RESULT:      -9.7      1.933      2.135
REMARK  5 active torsions:
REMARK  status: ('A' for Active; 'I' for Inactive)
REMARK    1  A    between atoms: C_2  and  C_3 
REMARK    2  A    between atoms: N_12  and  N_13 
REMARK       I    between atoms: N_13  and  C_14 
REMARK    3  A    between atoms: C_14  and  C_15 
REMARK    4  A    between atoms: C_15  and  N_16 
REMARK       I    between atoms: N_16  and  C_17 
REMARK    5  A    between atoms: C_17  and  C_18 
ROOT
HETATM    1  N   UNL     1      25.580  45.001  51.313  1.00  0.00    -0.255 N 
HETATM    2  C   UNL     1      24.558  44.450  50.564  1.00  0.00     0.254 C 
HETATM    3  O   UNL     1      23.967  43.413  50.856  1.00  0.00    -0.270 OA
HETATM    4  H   UNL     1      26.228  45.647  50.853  1.00  0.00     0.191 HD
ENDROOT
BRANCH   1   5
HETATM    5  N   UNL     1      26.085  44.257  52.364  1.00  0.00    -0.167 N 
HETATM    6  C   UNL     1      25.469  44.144  53.579  1.00  0.00     0.345 A 
HETATM    7  N   UNL     1      26.299  43.411  54.404  1.00  0.00    -0.319 N 
HETATM    8  O   UNL     1      24.388  44.595  53.925  1.00  0.00    -0.245 OA
HETATM    9  C   UNL     1      27.588  43.137  53.787  1.00  0.00     0.141 A 
HETATM   10  H   UNL     1      26.107  43.351  55.395  1.00  0.00     0.166 HD
HETATM   11  C   UNL     1      27.791  41.626  53.613  1.00  0.00     0.055 C 
HETATM   12  C   UNL     1      27.353  43.731  52.374  1.00  0.00     0.279 A 
HETATM   13  O   UNL     1      28.153  43.713  51.446  1.00  0.00    -0.268 OA
BRANCH   9  14
HETATM   14  C   UNL     1      28.693  43.806  54.599  1.00  0.00    -0.021 A 
HETATM   15  C   UNL     1      29.885  43.108  54.882  1.00  0.00     0.010 A 
HETATM   16  C   UNL     1      30.905  43.688  55.640  1.00  0.00     0.001 A 
HETATM   17  C   UNL     1      30.753  44.976  56.141  1.00  0.00     0.000 A 
HETATM   18  C   UNL     1      29.579  45.679  55.891  1.00  0.00     0.001 A 
HETATM   19  C   UNL     1      28.556  45.099  55.134  1.00  0.00     0.010 A 
ENDBRANCH   9  14
ENDBRANCH   1   5
BRANCH   2  20
HETATM   20  C   UNL     1      24.201  45.277  49.328  1.00  0.00     0.227 C 
BRANCH  20  21
HETATM   21  N   UNL     1      23.458  46.486  49.651  1.00  0.00    -0.348 N 
HETATM   22  C   UNL     1      22.728  47.152  48.691  1.00  0.00     0.252 C 
HETATM   23  O   UNL     1      22.553  46.680  47.569  1.00  0.00    -0.268 OA
HETATM   24  H   UNL     1      23.686  46.944  50.522  1.00  0.00     0.163 HD
BRANCH  22  25
HETATM   25  C   UNL     1      22.171  48.485  49.051  1.00  0.00     0.033 A 
HETATM   26  C   UNL     1      20.785  48.590  49.226  1.00  0.00     0.036 A 
HETATM   27  C   UNL     1      20.217  49.822  49.546  1.00  0.00     0.012 A 
HETATM   28 BR   UNL     1      18.345  49.964  49.771  1.00  0.00    -0.051 Br
HETATM   29  C   UNL     1      21.018  50.953  49.700  1.00  0.00     0.019 A 
HETATM   30  C   UNL     1      22.401  50.849  49.546  1.00  0.00     0.002 A 
HETATM   31  C   UNL     1      22.980  49.617  49.227  1.00  0.00     0.017 A 
ENDBRANCH  22  25
ENDBRANCH  20  21
ENDBRANCH   2  20
TORSDOF 5
ENDMDL
MODEL 3
REMARK VINA RESULT:      -9.6      1.994      2.636
REMARK  5 active torsions:
REMARK  status: ('A' for Active; 'I' for Inactive)
REMARK    1  A    between atoms: C_2  and  C_3 
REMARK    2  A    between atoms: N_12  and  N_13 
REMARK       I    between atoms: N_13  and  C_14 
REMARK    3  A    between atoms: C_14  and  C_15 
REMARK    4  A    between atoms: C_15  and  N_16 
REMARK       I    between atoms: N_16  and  C_17 
REMARK    5  A    between atoms: C_17  and  C_18 
ROOT
HETATM    1  N   UNL     1      25.370  45.890  49.974  1.00  0.00    -0.255 N 
HETATM    2  C   UNL     1      25.420  47.153  50.531  1.00  0.00     0.254 C 
HETATM    3  O   UNL     1      25.958  47.415  51.605  1.00  0.00    -0.270 OA
HETATM    4  H   UNL     1      24.642  45.691  49.282  1.00  0.00     0.191 HD
ENDROOT
BRANCH   1   5
HETATM    5  N   UNL     1      25.801  44.826  50.746  1.00  0.00    -0.167 N 
HETATM    6  C   UNL     1      25.046  44.244  51.725  1.00  0.00     0.345 A 
HETATM    7  N   UNL     1      25.826  43.287  52.344  1.00  0.00    -0.319 N 
HETATM    8  O   UNL     1      23.892  44.492  52.040  1.00  0.00    -0.245 OA
HETATM    9  C   UNL     1      27.204  43.312  51.877  1.00  0.00     0.141 A 
HETATM   10  H   UNL     1      25.513  42.854  53.202  1.00  0.00     0.166 HD
HETATM   11  C   UNL     1      27.566  41.985  51.198  1.00  0.00     0.055 C 
HETATM   12  C   UNL     1      27.100  44.382  50.760  1.00  0.00     0.279 A 
HETATM   13  O   UNL     1      28.013  44.742  50.024  1.00  0.00    -0.268 OA
BRANCH   9  14
HETATM   14  C   UNL     1      28.128  43.669  53.037  1.00  0.00    -0.021 A 
HETATM   15  C   UNL     1      29.321  42.946  53.241  1.00  0.00     0.010 A 
HETATM   16  C   UNL     1      30.175  43.238  54.306  1.00  0.00     0.001 A 
HETATM   17  C   UNL     1      29.853  44.253  55.199  1.00  0.00     0.000 A 
HETATM   18  C   UNL     1      28.672  44.970  55.031  1.00  0.00     0.001 A 
HETATM   19  C   UNL     1      27.814  44.677  53.965  1.00  0.00     0.010 A 
ENDBRANCH   9  14
ENDBRANCH   1   5
BRANCH   2  20
HETATM   20  C   UNL     1      24.758  48.224  49.663  1.00  0.00     0.227 C 
BRANCH  20  21
HETATM   21  N   UNL     1      23.305  48.199  49.744  1.00  0.00    -0.348 N 
HETATM   22  C   UNL     1      22.526  48.708  48.728  1.00  0.00     0.252 C 
HETATM   23  O   UNL     1      23.013  49.066  47.657  1.00  0.00    -0.268 OA
HETATM   24  H   UNL     1      22.900  48.023  50.653  1.00  0.00     0.163 HD
BRANCH  22  25
HETATM   25  C   UNL     1      21.064  48.833  48.979  1.00  0.00     0.033 A 
HETATM   26  C   UNL     1      20.540  50.119  49.167  1.00  0.00     0.036 A 
HETATM   27  C   UNL     1      19.179  50.284  49.424  1.00  0.00     0.012 A 
HETATM   28 BR   UNL     1      18.477  52.019  49.688  1.00  0.00    -0.051 Br
HETATM   29  C   UNL     1      18.332  49.179  49.488  1.00  0.00     0.019 A 
HETATM   30  C   UNL     1      18.846  47.898  49.282  1.00  0.00     0.002 A 
HETATM   31  C   UNL     1      20.209  47.723  49.022  1.00  0.00     0.017 A 
ENDBRANCH  22  25
ENDBRANCH  20  21
ENDBRANCH   2  20
TORSDOF 5
ENDMDL
MODEL 4
REMARK VINA RESULT:      -9.2      1.653      2.320
REMARK  5 active torsions:
REMARK  status: ('A' for Active; 'I' for Inactive)
REMARK    1  A    between atoms: C_2  and  C_3 
REMARK    2  A    between atoms: N_12  and  N_13 
REMARK       I    between atoms: N_13  and  C_14 
REMARK    3  A    between atoms: C_14  and  C_15 
REMARK    4  A    between atoms: C_15  and  N_16 
REMARK       I    between atoms: N_16  and  C_17 
REMARK    5  A    between atoms: C_17  and  C_18 
ROOT
HETATM    1  N   UNL     1      24.564  46.881  51.570  1.00  0.00    -0.255 N 
HETATM    2  C   UNL     1      25.366  47.212  50.495  1.00  0.00     0.254 C 
HETATM    3  O   UNL     1      26.535  46.855  50.367  1.00  0.00    -0.270 OA
HETATM    4  H   UNL     1      23.750  47.470  51.770  1.00  0.00     0.191 HD
ENDROOT
BRANCH   1   5
HETATM    5  N   UNL     1      25.157  46.253  52.650  1.00  0.00    -0.167 N 
HETATM    6  C   UNL     1      25.829  46.917  53.639  1.00  0.00     0.345 A 
HETATM    7  N   UNL     1      26.366  45.971  54.490  1.00  0.00    -0.319 N 
HETATM    8  O   UNL     1      25.965  48.122  53.784  1.00  0.00    -0.245 OA
HETATM    9  C   UNL     1      26.185  44.616  53.993  1.00  0.00     0.141 A 
HETATM   10  H   UNL     1      27.036  46.245  55.195  1.00  0.00     0.166 HD
HETATM   11  C   UNL     1      25.319  43.799  54.961  1.00  0.00     0.055 C 
HETATM   12  C   UNL     1      25.323  44.893  52.734  1.00  0.00     0.279 A 
HETATM   13  O   UNL     1      24.867  44.044  51.975  1.00  0.00    -0.268 OA
BRANCH   9  14
HETATM   14  C   UNL     1      27.548  43.986  53.723  1.00  0.00    -0.021 A 
HETATM   15  C   UNL     1      28.560  44.043  54.702  1.00  0.00     0.010 A 
HETATM   16  C   UNL     1      29.823  43.493  54.475  1.00  0.00     0.001 A 
HETATM   17  C   UNL     1      30.107  42.881  53.259  1.00  0.00     0.000 A 
HETATM   18  C   UNL     1      29.131  42.828  52.269  1.00  0.00     0.001 A 
HETATM   19  C   UNL     1      27.866  43.380  52.495  1.00  0.00     0.010 A 
ENDBRANCH   9  14
ENDBRANCH   1   5
BRANCH   2  20
HETATM   20  C   UNL     1      24.647  48.056  49.441  1.00  0.00     0.227 C 
BRANCH  20  21
HETATM   21  N   UNL     1      23.204  48.084  49.626  1.00  0.00    -0.348 N 
HETATM   22  C   UNL     1      22.374  48.638  48.676  1.00  0.00     0.252 C 
HETATM   23  O   UNL     1      22.797  48.997  47.579  1.00  0.00    -0.268 OA
HETATM   24  H   UNL     1      22.858  47.905  50.559  1.00  0.00     0.163 HD
BRANCH  22  25
HETATM   25  C   UNL     1      20.939  48.813  49.034  1.00  0.00     0.033 A 
HETATM   26  C   UNL     1      20.448  50.120  49.149  1.00  0.00     0.036 A 
HETATM   27  C   UNL     1      19.115  50.332  49.500  1.00  0.00     0.012 A 
HETATM   28 BR   UNL     1      18.457  52.097  49.664  1.00  0.00    -0.051 Br
HETATM   29  C   UNL     1      18.263  49.254  49.732  1.00  0.00     0.019 A 
HETATM   30  C   UNL     1      18.744  47.951  49.601  1.00  0.00     0.002 A 
HETATM   31  C   UNL     1      20.078  47.728  49.247  1.00  0.00     0.017 A 
ENDBRANCH  22  25
ENDBRANCH  20  21
ENDBRANCH   2  20
TORSDOF 5
ENDMDL
MODEL 5
REMARK VINA RESULT:      -8.9      2.395      3.302
REMARK  5 active torsions:
REMARK  status: ('A' for Active; 'I' for Inactive)
REMARK    1  A    between atoms: C_2  and  C_3 
REMARK    2  A    between atoms: N_12  and  N_13 
REMARK       I    between atoms: N_13  and  C_14 
REMARK    3  A    between atoms: C_14  and  C_15 
REMARK    4  A    between atoms: C_15  and  N_16 
REMARK       I    between atoms: N_16  and  C_17 
REMARK    5  A    between atoms: C_17  and  C_18 
ROOT
HETATM    1  N   UNL     1      24.815  44.502  49.297  1.00  0.00    -0.255 N 
HETATM    2  C   UNL     1      24.110  45.674  49.494  1.00  0.00     0.254 C 
HETATM    3  O   UNL     1      24.183  46.364  50.508  1.00  0.00    -0.270 OA
HETATM    4  H   UNL     1      24.461  43.831  48.608  1.00  0.00     0.191 HD
ENDROOT
BRANCH   1   5
HETATM    5  N   UNL     1      25.516  43.982  50.369  1.00  0.00    -0.167 N 
HETATM    6  C   UNL     1      24.940  43.249  51.369  1.00  0.00     0.345 A 
HETATM    7  N   UNL     1      25.916  42.982  52.309  1.00  0.00    -0.319 N 
HETATM    8  O   UNL     1      23.781  42.878  51.464  1.00  0.00    -0.245 OA
HETATM    9  C   UNL     1      27.162  43.676  52.023  1.00  0.00     0.141 A 
HETATM   10  H   UNL     1      25.663  42.592  53.207  1.00  0.00     0.166 HD
HETATM   11  C   UNL     1      28.292  42.669  51.770  1.00  0.00     0.055 C 
HETATM   12  C   UNL     1      26.814  44.324  50.658  1.00  0.00     0.279 A 
HETATM   13  O   UNL     1      27.572  44.998  49.970  1.00  0.00    -0.268 OA
BRANCH   9  14
HETATM   14  C   UNL     1      27.469  44.657  53.150  1.00  0.00    -0.021 A 
HETATM   15  C   UNL     1      26.706  45.835  53.292  1.00  0.00     0.010 A 
HETATM   16  C   UNL     1      26.977  46.759  54.302  1.00  0.00     0.001 A 
HETATM   17  C   UNL     1      28.024  46.534  55.189  1.00  0.00     0.000 A 
HETATM   18  C   UNL     1      28.804  45.390  55.060  1.00  0.00     0.001 A 
HETATM   19  C   UNL     1      28.534  44.463  54.047  1.00  0.00     0.010 A 
ENDBRANCH   9  14
ENDBRANCH   1   5
BRANCH   2  20
HETATM   20  C   UNL     1      23.233  46.060  48.301  1.00  0.00     0.227 C 
BRANCH  20  21
HETATM   21  N   UNL     1      21.994  46.713  48.697  1.00  0.00    -0.348 N 
HETATM   22  C   UNL     1      21.673  47.971  48.236  1.00  0.00     0.252 C 
HETATM   23  O   UNL     1      22.338  48.529  47.366  1.00  0.00    -0.268 OA
HETATM   24  H   UNL     1      21.506  46.324  49.492  1.00  0.00     0.163 HD
BRANCH  22  25
HETATM   25  C   UNL     1      20.497  48.648  48.849  1.00  0.00     0.033 A 
HETATM   26  C   UNL     1      20.242  49.976  48.481  1.00  0.00     0.036 A 
HETATM   27  C   UNL     1      19.163  50.657  49.043  1.00  0.00     0.012 A 
HETATM   28 BR   UNL     1      18.826  52.451  48.553  1.00  0.00    -0.051 Br
HETATM   29  C   UNL     1      18.329  50.026  49.964  1.00  0.00     0.019 A 
HETATM   30  C   UNL     1      18.569  48.698  50.319  1.00  0.00     0.002 A 
HETATM   31  C   UNL     1      19.647  48.006  49.760  1.00  0.00     0.017 A 
ENDBRANCH  22  25
ENDBRANCH  20  21
ENDBRANCH   2  20
TORSDOF 5
ENDMDL
MODEL 6
REMARK VINA RESULT:      -8.7      3.672      9.498
REMARK  5 active torsions:
REMARK  status: ('A' for Active; 'I' for Inactive)
REMARK    1  A    between atoms: C_2  and  C_3 
REMARK    2  A    between atoms: N_12  and  N_13 
REMARK       I    between atoms: N_13  and  C_14 
REMARK    3  A    between atoms: C_14  and  C_15 
REMARK    4  A    between atoms: C_15  and  N_16 
REMARK       I    between atoms: N_16  and  C_17 
REMARK    5  A    between atoms: C_17  and  C_18 
ROOT
HETATM    1  N   UNL     1      23.735  44.701  50.509  1.00  0.00    -0.255 N 
HETATM    2  C   UNL     1      24.881  44.021  50.145  1.00  0.00     0.254 C 
HETATM    3  O   UNL     1      25.496  44.211  49.098  1.00  0.00    -0.270 OA
HETATM    4  H   UNL     1      23.113  44.271  51.200  1.00  0.00     0.191 HD
ENDROOT
BRANCH   1   5
HETATM    5  N   UNL     1      23.146  45.524  49.567  1.00  0.00    -0.167 N 
HETATM    6  C   UNL     1      23.480  46.838  49.392  1.00  0.00     0.345 A 
HETATM    7  N   UNL     1      22.628  47.365  48.442  1.00  0.00    -0.319 N 
HETATM    8  O   UNL     1      24.356  47.478  49.953  1.00  0.00    -0.245 OA
HETATM    9  C   UNL     1      21.582  46.429  48.059  1.00  0.00     0.141 A 
HETATM   10  H   UNL     1      22.598  48.363  48.284  1.00  0.00     0.166 HD
HETATM   11  C   UNL     1      21.695  46.076  46.570  1.00  0.00     0.055 C 
HETATM   12  C   UNL     1      22.022  45.176  48.859  1.00  0.00     0.279 A 
HETATM   13  O   UNL     1      21.469  44.082  48.841  1.00  0.00    -0.268 OA
BRANCH   9  14
HETATM   14  C   UNL     1      20.221  47.002  48.442  1.00  0.00    -0.021 A 
HETATM   15  C   UNL     1      19.038  46.364  48.015  1.00  0.00     0.010 A 
HETATM   16  C   UNL     1      17.780  46.877  48.335  1.00  0.00     0.001 A 
HETATM   17  C   UNL     1      17.673  48.046  49.079  1.00  0.00     0.000 A 
HETATM   18  C   UNL     1      18.825  48.705  49.497  1.00  0.00     0.001 A 
HETATM   19  C   UNL     1      20.086  48.193  49.176  1.00  0.00     0.010 A 
ENDBRANCH   9  14
ENDBRANCH   1   5
BRANCH   2  20
HETATM   20  C   UNL     1      25.344  43.010  51.195  1.00  0.00     0.227 C 
BRANCH  20  21
HETATM   21  N   UNL     1      26.333  43.558  52.112  1.00  0.00    -0.348 N 
HETATM   22  C   UNL     1      25.951  44.273  53.226  1.00  0.00     0.252 C 
HETATM   23  O   UNL     1      24.775  44.355  53.571  1.00  0.00    -0.268 OA
HETATM   24  H   UNL     1      27.287  43.602  51.783  1.00  0.00     0.163 HD
BRANCH  22  25
HETATM   25  C   UNL     1      27.020  44.972  53.993  1.00  0.00     0.033 A 
HETATM   26  C   UNL     1      28.139  44.226  54.385  1.00  0.00     0.036 A 
HETATM   27  C   UNL     1      29.155  44.833  55.121  1.00  0.00     0.012 A 
HETATM   28 BR   UNL     1      30.659  43.821  55.658  1.00  0.00    -0.051 Br
HETATM   29  C   UNL     1      29.072  46.181  55.466  1.00  0.00     0.019 A 
HETATM   30  C   UNL     1      27.968  46.933  55.061  1.00  0.00     0.002 A 
HETATM   31  C   UNL     1      26.945  46.333  54.321  1.00  0.00     0.017 A 
ENDBRANCH  22  25
ENDBRANCH  20  21
ENDBRANCH   2  20
TORSDOF 5
ENDMDL
MODEL 7
REMARK VINA RESULT:      -8.6      2.234      3.227
REMARK  5 active torsions:
REMARK  status: ('A' for Active; 'I' for Inactive)
REMARK    1  A    between atoms: C_2  and  C_3 
REMARK    2  A    between atoms: N_12  and  N_13 
REMARK       I    between atoms: N_13  and  C_14 
REMARK    3  A    between atoms: C_14  and  C_15 
REMARK    4  A    between atoms: C_15  and  N_16 
REMARK       I    between atoms: N_16  and  C_17 
REMARK    5  A    between atoms: C_17  and  C_18 
ROOT
HETATM    1  N   UNL     1      23.999  45.692  50.524  1.00  0.00    -0.255 N 
HETATM    2  C   UNL     1      24.400  45.000  49.397  1.00  0.00     0.254 C 
HETATM    3  O   UNL     1      25.477  44.416  49.289  1.00  0.00    -0.270 OA
HETATM    4  H   UNL     1      23.275  46.408  50.423  1.00  0.00     0.191 HD
ENDROOT
BRANCH   1   5
HETATM    5  N   UNL     1      24.930  45.885  51.528  1.00  0.00    -0.167 N 
HETATM    6  C   UNL     1      25.856  46.890  51.522  1.00  0.00     0.345 A 
HETATM    7  N   UNL     1      26.671  46.717  52.623  1.00  0.00    -0.319 N 
HETATM    8  O   UNL     1      25.986  47.795  50.712  1.00  0.00    -0.245 OA
HETATM    9  C   UNL     1      26.393  45.474  53.326  1.00  0.00     0.141 A 
HETATM   10  H   UNL     1      27.521  47.257  52.716  1.00  0.00     0.166 HD
HETATM   11  C   UNL     1      25.913  45.761  54.755  1.00  0.00     0.055 C 
HETATM   12  C   UNL     1      25.165  44.970  52.525  1.00  0.00     0.279 A 
HETATM   13  O   UNL     1      24.523  43.952  52.760  1.00  0.00    -0.268 OA
BRANCH   9  14
HETATM   14  C   UNL     1      27.622  44.572  53.271  1.00  0.00    -0.021 A 
HETATM   15  C   UNL     1      28.464  44.454  54.394  1.00  0.00     0.010 A 
HETATM   16  C   UNL     1      29.606  43.650  54.365  1.00  0.00     0.001 A 
HETATM   17  C   UNL     1      29.938  42.954  53.209  1.00  0.00     0.000 A 
HETATM   18  C   UNL     1      29.133  43.068  52.080  1.00  0.00     0.001 A 
HETATM   19  C   UNL     1      27.990  43.874  52.107  1.00  0.00     0.010 A 
ENDBRANCH   9  14
ENDBRANCH   1   5
BRANCH   2  20
HETATM   20  C   UNL     1      23.353  45.000  48.283  1.00  0.00     0.227 C 
BRANCH  20  21
HETATM   21  N   UNL     1      22.396  46.089  48.405  1.00  0.00    -0.348 N 
HETATM   22  C   UNL     1      21.060  45.841  48.632  1.00  0.00     0.252 C 
HETATM   23  O   UNL     1      20.645  44.711  48.884  1.00  0.00    -0.268 OA
HETATM   24  H   UNL     1      22.695  47.000  48.086  1.00  0.00     0.163 HD
BRANCH  22  25
HETATM   25  C   UNL     1      20.120  46.993  48.538  1.00  0.00     0.033 A 
HETATM   26  C   UNL     1      20.662  48.284  48.585  1.00  0.00     0.036 A 
HETATM   27  C   UNL     1      19.820  49.393  48.519  1.00  0.00     0.012 A 
HETATM   28 BR   UNL     1      20.552  51.134  48.592  1.00  0.00    -0.051 Br
HETATM   29  C   UNL     1      18.441  49.229  48.400  1.00  0.00     0.019 A 
HETATM   30  C   UNL     1      17.899  47.945  48.334  1.00  0.00     0.002 A 
HETATM   31  C   UNL     1      18.736  46.827  48.398  1.00  0.00     0.017 A 
ENDBRANCH  22  25
ENDBRANCH  20  21
ENDBRANCH   2  20
TORSDOF 5
ENDMDL
MODEL 8
REMARK VINA RESULT:      -8.6      2.974      3.788
REMARK  5 active torsions:
REMARK  status: ('A' for Active; 'I' for Inactive)
REMARK    1  A    between atoms: C_2  and  C_3 
REMARK    2  A    between atoms: N_12  and  N_13 
REMARK       I    between atoms: N_13  and  C_14 
REMARK    3  A    between atoms: C_14  and  C_15 
REMARK    4  A    between atoms: C_15  and  N_16 
REMARK       I    between atoms: N_16  and  C_17 
REMARK    5  A    between atoms: C_17  and  C_18 
ROOT
HETATM    1  N   UNL     1      25.625  45.025  51.795  1.00  0.00    -0.255 N 
HETATM    2  C   UNL     1      25.708  46.390  51.984  1.00  0.00     0.254 C 
HETATM    3  O   UNL     1      26.402  46.930  52.843  1.00  0.00    -0.270 OA
HETATM    4  H   UNL     1      24.803  44.648  51.314  1.00  0.00     0.191 HD
ENDROOT
BRANCH   1   5
HETATM    5  N   UNL     1      26.225  44.205  52.734  1.00  0.00    -0.167 N 
HETATM    6  C   UNL     1      25.674  43.914  53.951  1.00  0.00     0.345 A 
HETATM    7  N   UNL     1      26.587  43.154  54.655  1.00  0.00    -0.319 N 
HETATM    8  O   UNL     1      24.582  44.245  54.386  1.00  0.00    -0.245 OA
HETATM    9  C   UNL     1      27.862  43.043  53.963  1.00  0.00     0.141 A 
HETATM   10  H   UNL     1      26.444  42.970  55.638  1.00  0.00     0.166 HD
HETATM   11  C   UNL     1      28.157  41.579  53.609  1.00  0.00     0.055 C 
HETATM   12  C   UNL     1      27.525  43.773  52.637  1.00  0.00     0.279 A 
HETATM   13  O   UNL     1      28.282  43.916  51.683  1.00  0.00    -0.268 OA
BRANCH   9  14
HETATM   14  C   UNL     1      28.956  43.694  54.804  1.00  0.00    -0.021 A 
HETATM   15  C   UNL     1      28.829  45.036  55.216  1.00  0.00     0.010 A 
HETATM   16  C   UNL     1      29.824  45.662  55.970  1.00  0.00     0.001 A 
HETATM   17  C   UNL     1      30.974  44.964  56.322  1.00  0.00     0.000 A 
HETATM   18  C   UNL     1      31.132  43.644  55.912  1.00  0.00     0.001 A 
HETATM   19  C   UNL     1      30.137  43.016  55.155  1.00  0.00     0.010 A 
ENDBRANCH   9  14
ENDBRANCH   1   5
BRANCH   2  20
HETATM   20  C   UNL     1      24.863  47.191  50.991  1.00  0.00     0.227 C 
BRANCH  20  21
HETATM   21  N   UNL     1      23.931  46.360  50.243  1.00  0.00    -0.348 N 
HETATM   22  C   UNL     1      24.359  45.582  49.189  1.00  0.00     0.252 C 
HETATM   23  O   UNL     1      25.552  45.443  48.931  1.00  0.00    -0.268 OA
HETATM   24  H   UNL     1      22.947  46.554  50.364  1.00  0.00     0.163 HD
BRANCH  22  25
HETATM   25  C   UNL     1      23.317  44.928  48.350  1.00  0.00     0.033 A 
HETATM   26  C   UNL     1      22.388  45.751  47.700  1.00  0.00     0.036 A 
HETATM   27  C   UNL     1      21.383  45.182  46.919  1.00  0.00     0.012 A 
HETATM   28 BR   UNL     1      20.124  46.295  46.052  1.00  0.00    -0.051 Br
HETATM   29  C   UNL     1      21.297  43.799  46.773  1.00  0.00     0.019 A 
HETATM   30  C   UNL     1      22.231  42.976  47.404  1.00  0.00     0.002 A 
HETATM   31  C   UNL     1      23.244  43.538  48.187  1.00  0.00     0.017 A 
ENDBRANCH  22  25
ENDBRANCH  20  21
ENDBRANCH   2  20
TORSDOF 5
ENDMDL
MODEL 9
REMARK VINA RESULT:      -8.6      4.309      9.451
REMARK  5 active torsions:
REMARK  status: ('A' for Active; 'I' for Inactive)
REMARK    1  A    between atoms: C_2  and  C_3 
REMARK    2  A    between atoms: N_12  and  N_13 
REMARK       I    between atoms: N_13  and  C_14 
REMARK    3  A    between atoms: C_14  and  C_15 
REMARK    4  A    between atoms: C_15  and  N_16 
REMARK       I    between atoms: N_16  and  C_17 
REMARK    5  A    between atoms: C_17  and  C_18 
ROOT
HETATM    1  N   UNL     1      25.269  44.632  51.769  1.00  0.00    -0.255 N 
HETATM    2  C   UNL     1      25.231  46.012  51.821  1.00  0.00     0.254 C 
HETATM    3  O   UNL     1      24.847  46.729  50.900  1.00  0.00    -0.270 OA
HETATM    4  H   UNL     1      25.895  44.137  52.412  1.00  0.00     0.191 HD
ENDROOT
BRANCH   1   5
HETATM    5  N   UNL     1      25.022  44.024  50.552  1.00  0.00    -0.167 N 
HETATM    6  C   UNL     1      25.940  43.948  49.541  1.00  0.00     0.345 A 
HETATM    7  N   UNL     1      25.319  43.365  48.453  1.00  0.00    -0.319 N 
HETATM    8  O   UNL     1      27.104  44.317  49.546  1.00  0.00    -0.245 OA
HETATM    9  C   UNL     1      23.894  43.170  48.671  1.00  0.00     0.141 A 
HETATM   10  H   UNL     1      25.773  43.365  47.550  1.00  0.00     0.166 HD
HETATM   11  C   UNL     1      23.543  41.677  48.629  1.00  0.00     0.055 C 
HETATM   12  C   UNL     1      23.771  43.627  50.147  1.00  0.00     0.279 A 
HETATM   13  O   UNL     1      22.747  43.613  50.820  1.00  0.00    -0.268 OA
BRANCH   9  14
HETATM   14  C   UNL     1      23.107  44.004  47.664  1.00  0.00    -0.021 A 
HETATM   15  C   UNL     1      22.828  43.489  46.382  1.00  0.00     0.010 A 
HETATM   16  C   UNL     1      22.127  44.237  45.434  1.00  0.00     0.001 A 
HETATM   17  C   UNL     1      21.697  45.523  45.743  1.00  0.00     0.000 A 
HETATM   18  C   UNL     1      21.976  46.062  46.994  1.00  0.00     0.001 A 
HETATM   19  C   UNL     1      22.679  45.314  47.944  1.00  0.00     0.010 A 
ENDBRANCH   9  14
ENDBRANCH   1   5
BRANCH   2  20
HETATM   20  C   UNL     1      25.692  46.579  53.164  1.00  0.00     0.227 C 
BRANCH  20  21
HETATM   21  N   UNL     1      26.990  46.069  53.579  1.00  0.00    -0.348 N 
HETATM   22  C   UNL     1      27.093  44.962  54.393  1.00  0.00     0.252 C 
HETATM   23  O   UNL     1      26.113  44.277  54.680  1.00  0.00    -0.268 OA
HETATM   24  H   UNL     1      27.784  46.681  53.453  1.00  0.00     0.163 HD
BRANCH  22  25
HETATM   25  C   UNL     1      28.439  44.631  54.937  1.00  0.00     0.033 A 
HETATM   26  C   UNL     1      28.886  45.345  56.056  1.00  0.00     0.036 A 
HETATM   27  C   UNL     1      30.147  45.082  56.589  1.00  0.00     0.012 A 
HETATM   28 BR   UNL     1      30.752  46.054  58.094  1.00  0.00    -0.051 Br
HETATM   29  C   UNL     1      30.968  44.109  56.021  1.00  0.00     0.019 A 
HETATM   30  C   UNL     1      30.519  43.383  54.917  1.00  0.00     0.002 A 
HETATM   31  C   UNL     1      29.255  43.638  54.377  1.00  0.00     0.017 A 
ENDBRANCH  22  25
ENDBRANCH  20  21
ENDBRANCH   2  20
TORSDOF 5
ENDMDL
MODEL 10
REMARK VINA RESULT:      -8.4      6.178      7.669
REMARK  5 active torsions:
REMARK  status: ('A' for Active; 'I' for Inactive)
REMARK    1  A    between atoms: C_2  and  C_3 
REMARK    2  A    between atoms: N_12  and  N_13 
REMARK       I    between atoms: N_13  and  C_14 
REMARK    3  A    between atoms: C_14  and  C_15 
REMARK    4  A    between atoms: C_15  and  N_16 
REMARK       I    between atoms: N_16  and  C_17 
REMARK    5  A    between atoms: C_17  and  C_18 
ROOT
HETATM    1  N   UNL     1      28.051  41.374  50.887  1.00  0.00    -0.255 N 
HETATM    2  C   UNL     1      27.016  40.566  50.457  1.00  0.00     0.254 C 
HETATM    3  O   UNL     1      25.829  40.771  50.703  1.00  0.00    -0.270 OA
HETATM    4  H   UNL     1      28.993  40.974  50.936  1.00  0.00     0.191 HD
ENDROOT
BRANCH   1   5
HETATM    5  N   UNL     1      27.754  42.379  51.789  1.00  0.00    -0.167 N 
HETATM    6  C   UNL     1      27.659  43.700  51.450  1.00  0.00     0.345 A 
HETATM    7  N   UNL     1      27.448  44.418  52.611  1.00  0.00    -0.319 N 
HETATM    8  O   UNL     1      27.744  44.205  50.341  1.00  0.00    -0.245 OA
HETATM    9  C   UNL     1      27.548  43.585  53.800  1.00  0.00     0.141 A 
HETATM   10  H   UNL     1      27.512  45.426  52.602  1.00  0.00     0.166 HD
HETATM   11  C   UNL     1      26.210  43.556  54.550  1.00  0.00     0.055 C 
HETATM   12  C   UNL     1      27.737  42.190  53.149  1.00  0.00     0.279 A 
HETATM   13  O   UNL     1      27.834  41.126  53.749  1.00  0.00    -0.268 OA
BRANCH   9  14
HETATM   14  C   UNL     1      28.713  44.065  54.660  1.00  0.00    -0.021 A 
HETATM   15  C   UNL     1      28.673  45.341  55.258  1.00  0.00     0.010 A 
HETATM   16  C   UNL     1      29.733  45.814  56.034  1.00  0.00     0.001 A 
HETATM   17  C   UNL     1      30.863  45.026  56.222  1.00  0.00     0.000 A 
HETATM   18  C   UNL     1      30.936  43.771  55.628  1.00  0.00     0.001 A 
HETATM   19  C   UNL     1      29.875  43.297  54.849  1.00  0.00     0.010 A 
ENDBRANCH   9  14
ENDBRANCH   1   5
BRANCH   2  20
HETATM   20  C   UNL     1      27.484  39.385  49.606  1.00  0.00     0.227 C 
BRANCH  20  21
HETATM   21  N   UNL     1      27.115  39.515  48.204  1.00  0.00    -0.348 N 
HETATM   22  C   UNL     1      27.745  40.426  47.384  1.00  0.00     0.252 C 
HETATM   23  O   UNL     1      28.733  41.056  47.755  1.00  0.00    -0.268 OA
HETATM   24  H   UNL     1      26.240  39.098  47.921  1.00  0.00     0.163 HD
BRANCH  22  25
HETATM   25  C   UNL     1      27.171  40.641  46.027  1.00  0.00     0.033 A 
HETATM   26  C   UNL     1      28.057  40.706  44.944  1.00  0.00     0.036 A 
HETATM   27  C   UNL     1      27.566  40.925  43.657  1.00  0.00     0.012 A 
HETATM   28 BR   UNL     1      28.765  41.023  42.199  1.00  0.00    -0.051 Br
HETATM   29  C   UNL     1      26.198  41.073  43.436  1.00  0.00     0.019 A 
HETATM   30  C   UNL     1      25.310  40.990  44.510  1.00  0.00     0.002 A 
HETATM   31  C   UNL     1      25.793  40.769  45.803  1.00  0.00     0.017 A 
ENDBRANCH  22  25
ENDBRANCH  20  21
ENDBRANCH   2  20
TORSDOF 5
ENDMDL
