MODEL 1
REMARK VINA RESULT:      -6.8      0.000      0.000
REMARK  10 active torsions:
REMARK  status: ('A' for Active; 'I' for Inactive)
REMARK    1  A    between atoms: C_6  and  C_7 
REMARK    2  A    between atoms: C_9  and  C_10 
REMARK    3  A    between atoms: C_10  and  C_11 
REMARK       I    between atoms: C_11  and  N_12 
REMARK    4  A    between atoms: N_12  and  C_13 
REMARK    5  A    between atoms: C_13  and  C_14 
REMARK    6  A    between atoms: C_14  and  N_15 
REMARK    7  A    between atoms: C_26  and  C_27 
REMARK    8  A    between atoms: C_27  and  O_28 
REMARK    9  A    between atoms: O_28  and  C_29 
REMARK   10  A    between atoms: C_29  and  C_30 
ROOT
HETATM    1  C   UNL     1      17.745  49.934  46.720  1.00  0.00     0.166 C 
HETATM    2  N   UNL     1      19.025  50.205  47.404  1.00  0.00    -0.318 N 
HETATM    3  C   UNL     1      19.553  51.211  48.022  1.00  0.00     0.011 C 
HETATM    4  C   UNL     1      19.871  48.926  47.651  1.00  0.00     0.170 C 
HETATM    5  S   UNL     1      21.495  49.318  48.119  1.00  0.00    -0.086 SA
HETATM    6  C   UNL     1      20.993  51.031  48.459  1.00  0.00     0.135 C 
HETATM    7  N   UNL     1      19.413  47.725  47.620  1.00  0.00    -0.229 NA
HETATM    8  C   UNL     1      18.043  47.571  47.506  1.00  0.00     0.048 C 
HETATM    9  C   UNL     1      17.554  46.198  47.905  1.00  0.00     0.071 C 
HETATM   10  C   UNL     1      17.230  48.583  47.136  1.00  0.00     0.069 C 
ENDROOT
BRANCH   3  11
HETATM   11  C   UNL     1      18.758  52.415  48.425  1.00  0.00     0.156 C 
BRANCH  11  12
HETATM   12  C   UNL     1      17.624  52.202  49.394  1.00  0.00     0.223 C 
HETATM   13  N   UNL     1      16.632  53.147  49.290  1.00  0.00    -0.359 N 
HETATM   14  H   UNL     1      16.783  53.920  48.644  1.00  0.00     0.162 HD
HETATM   15  O   UNL     1      17.618  51.293  50.217  1.00  0.00    -0.273 OA
BRANCH  13  16
HETATM   16  C   UNL     1      15.576  53.395  50.274  1.00  0.00     0.150 C 
BRANCH  16  17
HETATM   17  C   UNL     1      14.397  54.286  49.835  1.00  0.00     0.253 C 
BRANCH  17  18
HETATM   18  N   UNL     1      14.837  55.634  49.304  1.00  0.00    -0.077 N 
HETATM   19  H   UNL     1      15.679  55.465  48.720  1.00  0.00     0.279 HD
HETATM   20  C   UNL     1      13.823  56.308  48.421  1.00  0.00     0.269 C 
HETATM   21  C   UNL     1      15.264  56.550  50.419  1.00  0.00     0.269 C 
ENDBRANCH  17  18
ENDBRANCH  16  17
ENDBRANCH  13  16
ENDBRANCH  11  12
ENDBRANCH   3  11
BRANCH   1  22
HETATM   22  C   UNL     1      17.772  50.085  45.177  1.00  0.00    -0.024 C 
HETATM   23  C   UNL     1      17.733  51.285  44.423  1.00  0.00    -0.053 C 
HETATM   24  C   UNL     1      18.181  51.276  43.080  1.00  0.00     0.014 C 
HETATM   25  C   UNL     1      17.297  52.637  44.913  1.00  0.00     0.049 C 
HETATM   26  C   UNL     1      18.608  50.112  42.444  1.00  0.00    -0.061 C 
HETATM   27  C   UNL     1      19.225  50.165  41.075  1.00  0.00     0.048 C 
HETATM   28  C   UNL     1      18.506  48.911  43.131  1.00  0.00     0.007 C 
HETATM   29  C   UNL     1      18.081  48.898  44.463  1.00  0.00     0.011 C 
ENDBRANCH   1  22
BRANCH  10  30
HETATM   30  C   UNL     1      15.784  48.492  47.439  1.00  0.00     0.294 C 
HETATM   31  O   UNL     1      15.312  48.985  48.448  1.00  0.00    -0.259 OA
BRANCH  30  32
HETATM   32  O   UNL     1      15.111  47.947  46.409  1.00  0.00    -0.313 OA
BRANCH  32  33
HETATM   33  C   UNL     1      13.913  48.638  46.010  1.00  0.00     0.217 C 
BRANCH  33  34
HETATM   34  C   UNL     1      14.172  49.407  44.737  1.00  0.00    -0.034 A 
HETATM   35  C   UNL     1      14.645  48.756  43.588  1.00  0.00     0.009 A 
HETATM   36  C   UNL     1      14.857  49.470  42.405  1.00  0.00     0.001 A 
HETATM   37  C   UNL     1      14.605  50.840  42.361  1.00  0.00     0.000 A 
HETATM   38  C   UNL     1      14.147  51.499  43.499  1.00  0.00     0.001 A 
HETATM   39  C   UNL     1      13.935  50.789  44.682  1.00  0.00     0.009 A 
ENDBRANCH  33  34
ENDBRANCH  32  33
ENDBRANCH  30  32
ENDBRANCH  10  30
TORSDOF 10
ENDMDL
MODEL 2
REMARK VINA RESULT:      -6.6     10.379     13.943
REMARK  10 active torsions:
REMARK  status: ('A' for Active; 'I' for Inactive)
REMARK    1  A    between atoms: C_6  and  C_7 
REMARK    2  A    between atoms: C_9  and  C_10 
REMARK    3  A    between atoms: C_10  and  C_11 
REMARK       I    between atoms: C_11  and  N_12 
REMARK    4  A    between atoms: N_12  and  C_13 
REMARK    5  A    between atoms: C_13  and  C_14 
REMARK    6  A    between atoms: C_14  and  N_15 
REMARK    7  A    between atoms: C_26  and  C_27 
REMARK    8  A    between atoms: C_27  and  O_28 
REMARK    9  A    between atoms: O_28  and  C_29 
REMARK   10  A    between atoms: C_29  and  C_30 
ROOT
HETATM    1  C   UNL     1      27.706  49.415  40.427  1.00  0.00     0.166 C 
HETATM    2  N   UNL     1      26.809  48.826  39.414  1.00  0.00    -0.318 N 
HETATM    3  C   UNL     1      25.744  48.092  39.431  1.00  0.00     0.011 C 
HETATM    4  C   UNL     1      27.044  49.388  37.986  1.00  0.00     0.170 C 
HETATM    5  S   UNL     1      26.238  48.431  36.784  1.00  0.00    -0.086 SA
HETATM    6  C   UNL     1      25.244  47.629  38.077  1.00  0.00     0.135 C 
HETATM    7  N   UNL     1      27.665  50.482  37.719  1.00  0.00    -0.229 NA
HETATM    8  C   UNL     1      28.019  51.287  38.787  1.00  0.00     0.048 C 
HETATM    9  C   UNL     1      28.339  52.709  38.392  1.00  0.00     0.071 C 
HETATM   10  C   UNL     1      28.006  50.843  40.063  1.00  0.00     0.069 C 
ENDROOT
BRANCH   3  11
HETATM   11  C   UNL     1      24.959  47.842  40.683  1.00  0.00     0.156 C 
BRANCH  11  12
HETATM   12  C   UNL     1      23.458  47.918  40.584  1.00  0.00     0.223 C 
HETATM   13  N   UNL     1      23.000  49.140  40.152  1.00  0.00    -0.359 N 
HETATM   14  H   UNL     1      23.688  49.880  40.018  1.00  0.00     0.162 HD
HETATM   15  O   UNL     1      22.725  46.987  40.897  1.00  0.00    -0.273 OA
BRANCH  13  16
HETATM   16  C   UNL     1      21.621  49.623  40.249  1.00  0.00     0.150 C 
BRANCH  16  17
HETATM   17  C   UNL     1      21.409  51.047  40.799  1.00  0.00     0.253 C 
BRANCH  17  18
HETATM   18  N   UNL     1      19.979  51.529  40.665  1.00  0.00    -0.077 N 
HETATM   19  H   UNL     1      20.008  52.566  40.716  1.00  0.00     0.279 HD
HETATM   20  C   UNL     1      19.332  51.176  39.354  1.00  0.00     0.269 C 
HETATM   21  C   UNL     1      19.133  51.064  41.819  1.00  0.00     0.269 C 
ENDBRANCH  17  18
ENDBRANCH  16  17
ENDBRANCH  13  16
ENDBRANCH  11  12
ENDBRANCH   3  11
BRANCH   1  22
HETATM   22  C   UNL     1      29.003  48.613  40.711  1.00  0.00    -0.024 C 
HETATM   23  C   UNL     1      29.785  47.873  39.788  1.00  0.00    -0.053 C 
HETATM   24  C   UNL     1      31.128  47.561  40.109  1.00  0.00     0.014 C 
HETATM   25  C   UNL     1      29.355  47.400  38.428  1.00  0.00     0.049 C 
HETATM   26  C   UNL     1      31.702  47.904  41.332  1.00  0.00    -0.061 C 
HETATM   27  C   UNL     1      33.169  47.699  41.578  1.00  0.00     0.048 C 
HETATM   28  C   UNL     1      30.895  48.494  42.295  1.00  0.00     0.007 C 
HETATM   29  C   UNL     1      29.570  48.825  41.995  1.00  0.00     0.011 C 
ENDBRANCH   1  22
BRANCH  10  30
HETATM   30  C   UNL     1      27.972  51.828  41.166  1.00  0.00     0.294 C 
HETATM   31  O   UNL     1      26.967  52.472  41.416  1.00  0.00    -0.259 OA
BRANCH  30  32
HETATM   32  O   UNL     1      29.106  51.780  41.890  1.00  0.00    -0.313 OA
BRANCH  32  33
HETATM   33  C   UNL     1      30.076  52.801  41.601  1.00  0.00     0.217 C 
BRANCH  33  34
HETATM   34  C   UNL     1      31.385  52.159  41.207  1.00  0.00    -0.034 A 
HETATM   35  C   UNL     1      32.387  51.926  42.161  1.00  0.00     0.009 A 
HETATM   36  C   UNL     1      33.585  51.306  41.795  1.00  0.00     0.001 A 
HETATM   37  C   UNL     1      33.796  50.920  40.472  1.00  0.00     0.000 A 
HETATM   38  C   UNL     1      32.814  51.158  39.514  1.00  0.00     0.001 A 
HETATM   39  C   UNL     1      31.616  51.778  39.877  1.00  0.00     0.009 A 
ENDBRANCH  33  34
ENDBRANCH  32  33
ENDBRANCH  30  32
ENDBRANCH  10  30
TORSDOF 10
ENDMDL
MODEL 3
REMARK VINA RESULT:      -6.6     11.081     15.192
REMARK  10 active torsions:
REMARK  status: ('A' for Active; 'I' for Inactive)
REMARK    1  A    between atoms: C_6  and  C_7 
REMARK    2  A    between atoms: C_9  and  C_10 
REMARK    3  A    between atoms: C_10  and  C_11 
REMARK       I    between atoms: C_11  and  N_12 
REMARK    4  A    between atoms: N_12  and  C_13 
REMARK    5  A    between atoms: C_13  and  C_14 
REMARK    6  A    between atoms: C_14  and  N_15 
REMARK    7  A    between atoms: C_26  and  C_27 
REMARK    8  A    between atoms: C_27  and  O_28 
REMARK    9  A    between atoms: O_28  and  C_29 
REMARK   10  A    between atoms: C_29  and  C_30 
ROOT
HETATM    1  C   UNL     1      27.820  49.512  40.428  1.00  0.00     0.166 C 
HETATM    2  N   UNL     1      26.881  48.872  39.486  1.00  0.00    -0.318 N 
HETATM    3  C   UNL     1      25.805  48.162  39.586  1.00  0.00     0.011 C 
HETATM    4  C   UNL     1      27.082  49.330  38.015  1.00  0.00     0.170 C 
HETATM    5  S   UNL     1      26.222  48.307  36.908  1.00  0.00    -0.086 SA
HETATM    6  C   UNL     1      25.255  47.616  38.282  1.00  0.00     0.135 C 
HETATM    7  N   UNL     1      27.714  50.390  37.655  1.00  0.00    -0.229 NA
HETATM    8  C   UNL     1      28.114  51.259  38.654  1.00  0.00     0.048 C 
HETATM    9  C   UNL     1      28.447  52.645  38.150  1.00  0.00     0.071 C 
HETATM   10  C   UNL     1      28.133  50.905  39.957  1.00  0.00     0.069 C 
ENDROOT
BRANCH   3  11
HETATM   11  C   UNL     1      25.054  48.014  40.874  1.00  0.00     0.156 C 
BRANCH  11  12
HETATM   12  C   UNL     1      24.929  46.626  41.446  1.00  0.00     0.223 C 
HETATM   13  N   UNL     1      26.138  46.049  41.748  1.00  0.00    -0.359 N 
HETATM   14  H   UNL     1      26.982  46.562  41.496  1.00  0.00     0.162 HD
HETATM   15  O   UNL     1      23.849  46.064  41.587  1.00  0.00    -0.273 OA
BRANCH  13  16
HETATM   16  C   UNL     1      26.368  44.628  42.017  1.00  0.00     0.150 C 
BRANCH  16  17
HETATM   17  C   UNL     1      26.365  43.671  40.809  1.00  0.00     0.253 C 
BRANCH  17  18
HETATM   18  N   UNL     1      27.619  43.775  39.966  1.00  0.00    -0.077 N 
HETATM   19  H   UNL     1      28.301  44.336  40.513  1.00  0.00     0.279 HD
HETATM   20  C   UNL     1      28.277  42.453  39.677  1.00  0.00     0.269 C 
HETATM   21  C   UNL     1      27.361  44.531  38.691  1.00  0.00     0.269 C 
ENDBRANCH  17  18
ENDBRANCH  16  17
ENDBRANCH  13  16
ENDBRANCH  11  12
ENDBRANCH   3  11
BRANCH   1  22
HETATM   22  C   UNL     1      29.110  48.707  40.729  1.00  0.00    -0.024 C 
HETATM   23  C   UNL     1      29.916  47.986  39.812  1.00  0.00    -0.053 C 
HETATM   24  C   UNL     1      31.251  47.670  40.161  1.00  0.00     0.014 C 
HETATM   25  C   UNL     1      29.522  47.539  38.433  1.00  0.00     0.049 C 
HETATM   26  C   UNL     1      31.794  47.988  41.404  1.00  0.00    -0.061 C 
HETATM   27  C   UNL     1      33.255  47.781  41.683  1.00  0.00     0.048 C 
HETATM   28  C   UNL     1      30.962  48.558  42.358  1.00  0.00     0.007 C 
HETATM   29  C   UNL     1      29.645  48.894  42.031  1.00  0.00     0.011 C 
ENDBRANCH   1  22
BRANCH  10  30
HETATM   30  C   UNL     1      28.150  51.965  40.989  1.00  0.00     0.294 C 
HETATM   31  O   UNL     1      27.189  52.169  41.710  1.00  0.00    -0.259 OA
BRANCH  30  32
HETATM   32  O   UNL     1      29.373  52.517  41.092  1.00  0.00    -0.313 OA
BRANCH  32  33
HETATM   33  C   UNL     1      29.935  52.552  42.416  1.00  0.00     0.217 C 
BRANCH  33  34
HETATM   34  C   UNL     1      31.382  52.124  42.364  1.00  0.00    -0.034 A 
HETATM   35  C   UNL     1      32.109  51.906  43.543  1.00  0.00     0.009 A 
HETATM   36  C   UNL     1      33.441  51.483  43.488  1.00  0.00     0.001 A 
HETATM   37  C   UNL     1      34.058  51.279  42.255  1.00  0.00     0.000 A 
HETATM   38  C   UNL     1      33.349  51.503  41.077  1.00  0.00     0.001 A 
HETATM   39  C   UNL     1      32.020  51.927  41.130  1.00  0.00     0.009 A 
ENDBRANCH  33  34
ENDBRANCH  32  33
ENDBRANCH  30  32
ENDBRANCH  10  30
TORSDOF 10
ENDMDL
MODEL 4
REMARK VINA RESULT:      -6.4     27.974     31.071
REMARK  10 active torsions:
REMARK  status: ('A' for Active; 'I' for Inactive)
REMARK    1  A    between atoms: C_6  and  C_7 
REMARK    2  A    between atoms: C_9  and  C_10 
REMARK    3  A    between atoms: C_10  and  C_11 
REMARK       I    between atoms: C_11  and  N_12 
REMARK    4  A    between atoms: N_12  and  C_13 
REMARK    5  A    between atoms: C_13  and  C_14 
REMARK    6  A    between atoms: C_14  and  N_15 
REMARK    7  A    between atoms: C_26  and  C_27 
REMARK    8  A    between atoms: C_27  and  O_28 
REMARK    9  A    between atoms: O_28  and  C_29 
REMARK   10  A    between atoms: C_29  and  C_30 
ROOT
HETATM    1  C   UNL     1      38.700  45.118  65.976  1.00  0.00     0.166 C 
HETATM    2  N   UNL     1      38.861  46.063  67.099  1.00  0.00    -0.318 N 
HETATM    3  C   UNL     1      39.438  47.206  67.275  1.00  0.00     0.011 C 
HETATM    4  C   UNL     1      37.938  45.741  68.306  1.00  0.00     0.170 C 
HETATM    5  S   UNL     1      38.404  46.635  69.718  1.00  0.00    -0.086 SA
HETATM    6  C   UNL     1      39.426  47.736  68.696  1.00  0.00     0.135 C 
HETATM    7  N   UNL     1      36.894  44.992  68.255  1.00  0.00    -0.229 NA
HETATM    8  C   UNL     1      36.481  44.564  67.006  1.00  0.00     0.048 C 
HETATM    9  C   UNL     1      35.052  44.074  66.977  1.00  0.00     0.071 C 
HETATM   10  C   UNL     1      37.272  44.648  65.914  1.00  0.00     0.069 C 
ENDROOT
BRANCH   3  11
HETATM   11  C   UNL     1      39.949  48.034  66.136  1.00  0.00     0.156 C 
BRANCH  11  12
HETATM   12  C   UNL     1      41.088  47.470  65.328  1.00  0.00     0.223 C 
HETATM   13  N   UNL     1      42.149  47.053  66.095  1.00  0.00    -0.359 N 
HETATM   14  H   UNL     1      42.102  47.228  67.098  1.00  0.00     0.162 HD
HETATM   15  O   UNL     1      41.074  47.428  64.103  1.00  0.00    -0.273 OA
BRANCH  13  16
HETATM   16  C   UNL     1      43.498  46.757  65.607  1.00  0.00     0.150 C 
BRANCH  16  17
HETATM   17  C   UNL     1      44.169  45.470  66.125  1.00  0.00     0.253 C 
BRANCH  17  18
HETATM   18  N   UNL     1      45.178  44.893  65.154  1.00  0.00    -0.077 N 
HETATM   19  H   UNL     1      44.637  44.510  64.354  1.00  0.00     0.279 HD
HETATM   20  C   UNL     1      46.133  45.907  64.585  1.00  0.00     0.269 C 
HETATM   21  C   UNL     1      45.926  43.738  65.762  1.00  0.00     0.269 C 
ENDBRANCH  17  18
ENDBRANCH  16  17
ENDBRANCH  13  16
ENDBRANCH  11  12
ENDBRANCH   3  11
BRANCH   1  22
HETATM   22  C   UNL     1      39.695  43.928  65.962  1.00  0.00    -0.024 C 
HETATM   23  C   UNL     1      40.698  43.649  65.000  1.00  0.00    -0.053 C 
HETATM   24  C   UNL     1      41.769  42.789  65.344  1.00  0.00     0.014 C 
HETATM   25  C   UNL     1      40.791  44.217  63.612  1.00  0.00     0.049 C 
HETATM   26  C   UNL     1      41.848  42.154  66.582  1.00  0.00    -0.061 C 
HETATM   27  C   UNL     1      43.073  41.378  66.972  1.00  0.00     0.048 C 
HETATM   28  C   UNL     1      40.792  42.307  67.469  1.00  0.00     0.007 C 
HETATM   29  C   UNL     1      39.731  43.163  67.157  1.00  0.00     0.011 C 
ENDBRANCH   1  22
BRANCH  10  30
HETATM   30  C   UNL     1      36.654  44.585  64.572  1.00  0.00     0.294 C 
HETATM   31  O   UNL     1      36.409  45.594  63.933  1.00  0.00    -0.259 OA
BRANCH  30  32
HETATM   32  O   UNL     1      36.561  43.312  64.145  1.00  0.00    -0.313 OA
BRANCH  32  33
HETATM   33  C   UNL     1      37.438  42.948  63.064  1.00  0.00     0.217 C 
BRANCH  33  34
HETATM   34  C   UNL     1      38.170  41.675  63.412  1.00  0.00    -0.034 A 
HETATM   35  C   UNL     1      39.032  41.065  62.487  1.00  0.00     0.009 A 
HETATM   36  C   UNL     1      39.727  39.901  62.826  1.00  0.00     0.001 A 
HETATM   37  C   UNL     1      39.565  39.332  64.088  1.00  0.00     0.000 A 
HETATM   38  C   UNL     1      38.703  39.922  65.010  1.00  0.00     0.001 A 
HETATM   39  C   UNL     1      38.006  41.084  64.674  1.00  0.00     0.009 A 
ENDBRANCH  33  34
ENDBRANCH  32  33
ENDBRANCH  30  32
ENDBRANCH  10  30
TORSDOF 10
ENDMDL
MODEL 5
REMARK VINA RESULT:      -6.3      4.153      7.886
REMARK  10 active torsions:
REMARK  status: ('A' for Active; 'I' for Inactive)
REMARK    1  A    between atoms: C_6  and  C_7 
REMARK    2  A    between atoms: C_9  and  C_10 
REMARK    3  A    between atoms: C_10  and  C_11 
REMARK       I    between atoms: C_11  and  N_12 
REMARK    4  A    between atoms: N_12  and  C_13 
REMARK    5  A    between atoms: C_13  and  C_14 
REMARK    6  A    between atoms: C_14  and  N_15 
REMARK    7  A    between atoms: C_26  and  C_27 
REMARK    8  A    between atoms: C_27  and  O_28 
REMARK    9  A    between atoms: O_28  and  C_29 
REMARK   10  A    between atoms: C_29  and  C_30 
ROOT
HETATM    1  C   UNL     1      19.789  46.886  47.938  1.00  0.00     0.166 C 
HETATM    2  N   UNL     1      20.687  46.078  47.089  1.00  0.00    -0.318 N 
HETATM    3  C   UNL     1      21.565  45.150  47.286  1.00  0.00     0.011 C 
HETATM    4  C   UNL     1      20.359  46.187  45.574  1.00  0.00     0.170 C 
HETATM    5  S   UNL     1      21.633  45.526  44.599  1.00  0.00    -0.086 SA
HETATM    6  C   UNL     1      22.338  44.705  46.060  1.00  0.00     0.135 C 
HETATM    7  N   UNL     1      19.247  46.613  45.091  1.00  0.00    -0.229 NA
HETATM    8  C   UNL     1      18.217  46.850  45.984  1.00  0.00     0.048 C 
HETATM    9  C   UNL     1      16.856  46.922  45.332  1.00  0.00     0.071 C 
HETATM   10  C   UNL     1      18.421  46.937  47.316  1.00  0.00     0.069 C 
ENDROOT
BRANCH   3  11
HETATM   11  C   UNL     1      21.709  44.443  48.600  1.00  0.00     0.156 C 
BRANCH  11  12
HETATM   12  C   UNL     1      23.029  44.571  49.313  1.00  0.00     0.223 C 
HETATM   13  N   UNL     1      23.368  45.869  49.607  1.00  0.00    -0.359 N 
HETATM   14  H   UNL     1      22.755  46.606  49.261  1.00  0.00     0.162 HD
HETATM   15  O   UNL     1      23.741  43.605  49.566  1.00  0.00    -0.273 OA
BRANCH  13  16
HETATM   16  C   UNL     1      24.696  46.341  50.004  1.00  0.00     0.150 C 
BRANCH  16  17
HETATM   17  C   UNL     1      25.041  46.300  51.506  1.00  0.00     0.253 C 
BRANCH  17  18
HETATM   18  N   UNL     1      26.073  45.247  51.850  1.00  0.00    -0.077 N 
HETATM   19  H   UNL     1      26.741  45.688  52.512  1.00  0.00     0.279 HD
HETATM   20  C   UNL     1      25.509  44.037  52.544  1.00  0.00     0.269 C 
HETATM   21  C   UNL     1      26.870  44.843  50.639  1.00  0.00     0.269 C 
ENDBRANCH  17  18
ENDBRANCH  16  17
ENDBRANCH  13  16
ENDBRANCH  11  12
ENDBRANCH   3  11
BRANCH   1  22
HETATM   22  C   UNL     1      20.310  48.303  48.292  1.00  0.00    -0.024 C 
HETATM   23  C   UNL     1      20.184  48.990  49.527  1.00  0.00    -0.053 C 
HETATM   24  C   UNL     1      21.056  50.067  49.813  1.00  0.00     0.014 C 
HETATM   25  C   UNL     1      19.225  48.666  50.637  1.00  0.00     0.049 C 
HETATM   26  C   UNL     1      22.004  50.525  48.899  1.00  0.00    -0.061 C 
HETATM   27  C   UNL     1      23.015  51.562  49.294  1.00  0.00     0.048 C 
HETATM   28  C   UNL     1      22.027  49.953  47.635  1.00  0.00     0.007 C 
HETATM   29  C   UNL     1      21.186  48.877  47.334  1.00  0.00     0.011 C 
ENDBRANCH   1  22
BRANCH  10  30
HETATM   30  C   UNL     1      17.272  46.763  48.232  1.00  0.00     0.294 C 
HETATM   31  O   UNL     1      16.807  45.662  48.471  1.00  0.00    -0.259 OA
BRANCH  30  32
HETATM   32  O   UNL     1      16.954  47.925  48.831  1.00  0.00    -0.313 OA
BRANCH  32  33
HETATM   33  C   UNL     1      16.370  48.929  47.981  1.00  0.00     0.217 C 
BRANCH  33  34
HETATM   34  C   UNL     1      17.158  50.211  48.096  1.00  0.00    -0.034 A 
HETATM   35  C   UNL     1      17.093  50.993  49.259  1.00  0.00     0.009 A 
HETATM   36  C   UNL     1      17.847  52.165  49.370  1.00  0.00     0.001 A 
HETATM   37  C   UNL     1      18.667  52.570  48.318  1.00  0.00     0.000 A 
HETATM   38  C   UNL     1      18.731  51.808  47.153  1.00  0.00     0.001 A 
HETATM   39  C   UNL     1      17.978  50.638  47.040  1.00  0.00     0.009 A 
ENDBRANCH  33  34
ENDBRANCH  32  33
ENDBRANCH  30  32
ENDBRANCH  10  30
TORSDOF 10
ENDMDL
MODEL 6
REMARK VINA RESULT:      -6.3     10.854     15.567
REMARK  10 active torsions:
REMARK  status: ('A' for Active; 'I' for Inactive)
REMARK    1  A    between atoms: C_6  and  C_7 
REMARK    2  A    between atoms: C_9  and  C_10 
REMARK    3  A    between atoms: C_10  and  C_11 
REMARK       I    between atoms: C_11  and  N_12 
REMARK    4  A    between atoms: N_12  and  C_13 
REMARK    5  A    between atoms: C_13  and  C_14 
REMARK    6  A    between atoms: C_14  and  N_15 
REMARK    7  A    between atoms: C_26  and  C_27 
REMARK    8  A    between atoms: C_27  and  O_28 
REMARK    9  A    between atoms: O_28  and  C_29 
REMARK   10  A    between atoms: C_29  and  C_30 
ROOT
HETATM    1  C   UNL     1      26.637  44.679  50.784  1.00  0.00     0.166 C 
HETATM    2  N   UNL     1      25.834  43.556  50.263  1.00  0.00    -0.318 N 
HETATM    3  C   UNL     1      26.061  42.513  49.532  1.00  0.00     0.011 C 
HETATM    4  C   UNL     1      24.428  43.453  50.915  1.00  0.00     0.170 C 
HETATM    5  S   UNL     1      23.399  42.366  50.038  1.00  0.00    -0.086 SA
HETATM    6  C   UNL     1      24.840  41.696  49.158  1.00  0.00     0.135 C 
HETATM    7  N   UNL     1      24.088  44.012  52.022  1.00  0.00    -0.229 NA
HETATM    8  C   UNL     1      25.088  44.624  52.756  1.00  0.00     0.048 C 
HETATM    9  C   UNL     1      24.715  44.866  54.200  1.00  0.00     0.071 C 
HETATM   10  C   UNL     1      26.300  44.909  52.232  1.00  0.00     0.069 C 
ENDROOT
BRANCH   3  11
HETATM   11  C   UNL     1      27.446  42.045  49.205  1.00  0.00     0.156 C 
BRANCH  11  12
HETATM   12  C   UNL     1      27.926  40.784  49.874  1.00  0.00     0.223 C 
HETATM   13  N   UNL     1      28.884  40.113  49.152  1.00  0.00    -0.359 N 
HETATM   14  H   UNL     1      29.118  40.475  48.229  1.00  0.00     0.162 HD
HETATM   15  O   UNL     1      27.471  40.386  50.940  1.00  0.00    -0.273 OA
BRANCH  13  16
HETATM   16  C   UNL     1      29.314  38.731  49.373  1.00  0.00     0.150 C 
BRANCH  16  17
HETATM   17  C   UNL     1      29.138  37.742  48.204  1.00  0.00     0.253 C 
BRANCH  17  18
HETATM   18  N   UNL     1      27.810  37.015  48.235  1.00  0.00    -0.077 N 
HETATM   19  H   UNL     1      27.999  36.035  47.947  1.00  0.00     0.279 HD
HETATM   20  C   UNL     1      27.174  36.953  49.597  1.00  0.00     0.269 C 
HETATM   21  C   UNL     1      26.850  37.583  47.225  1.00  0.00     0.269 C 
ENDBRANCH  17  18
ENDBRANCH  16  17
ENDBRANCH  13  16
ENDBRANCH  11  12
ENDBRANCH   3  11
BRANCH   1  22
HETATM   22  C   UNL     1      26.553  45.992  49.963  1.00  0.00    -0.024 C 
HETATM   23  C   UNL     1      25.433  46.848  49.810  1.00  0.00    -0.053 C 
HETATM   24  C   UNL     1      25.634  48.185  49.390  1.00  0.00     0.014 C 
HETATM   25  C   UNL     1      23.998  46.506  50.097  1.00  0.00     0.049 C 
HETATM   26  C   UNL     1      26.894  48.683  49.061  1.00  0.00    -0.061 C 
HETATM   27  C   UNL     1      27.093  50.144  48.774  1.00  0.00     0.048 C 
HETATM   28  C   UNL     1      27.969  47.807  49.066  1.00  0.00     0.007 C 
HETATM   29  C   UNL     1      27.797  46.486  49.492  1.00  0.00     0.011 C 
ENDBRANCH   1  22
BRANCH  10  30
HETATM   30  C   UNL     1      27.438  45.156  53.145  1.00  0.00     0.294 C 
HETATM   31  O   UNL     1      27.787  46.287  53.438  1.00  0.00    -0.259 OA
BRANCH  30  32
HETATM   32  O   UNL     1      27.886  44.005  53.678  1.00  0.00    -0.313 OA
BRANCH  32  33
HETATM   33  C   UNL     1      29.305  43.786  53.593  1.00  0.00     0.217 C 
BRANCH  33  34
HETATM   34  C   UNL     1      29.931  43.993  54.952  1.00  0.00    -0.034 A 
HETATM   35  C   UNL     1      29.674  45.156  55.692  1.00  0.00     0.009 A 
HETATM   36  C   UNL     1      30.235  45.329  56.961  1.00  0.00     0.001 A 
HETATM   37  C   UNL     1      31.062  44.344  57.499  1.00  0.00     0.000 A 
HETATM   38  C   UNL     1      31.334  43.189  56.768  1.00  0.00     0.001 A 
HETATM   39  C   UNL     1      30.776  43.016  55.500  1.00  0.00     0.009 A 
ENDBRANCH  33  34
ENDBRANCH  32  33
ENDBRANCH  30  32
ENDBRANCH  10  30
TORSDOF 10
ENDMDL
MODEL 7
REMARK VINA RESULT:      -6.3      1.903      2.634
REMARK  10 active torsions:
REMARK  status: ('A' for Active; 'I' for Inactive)
REMARK    1  A    between atoms: C_6  and  C_7 
REMARK    2  A    between atoms: C_9  and  C_10 
REMARK    3  A    between atoms: C_10  and  C_11 
REMARK       I    between atoms: C_11  and  N_12 
REMARK    4  A    between atoms: N_12  and  C_13 
REMARK    5  A    between atoms: C_13  and  C_14 
REMARK    6  A    between atoms: C_14  and  N_15 
REMARK    7  A    between atoms: C_26  and  C_27 
REMARK    8  A    between atoms: C_27  and  O_28 
REMARK    9  A    between atoms: O_28  and  C_29 
REMARK   10  A    between atoms: C_29  and  C_30 
ROOT
HETATM    1  C   UNL     1      16.217  50.743  46.912  1.00  0.00     0.166 C 
HETATM    2  N   UNL     1      17.019  51.343  47.996  1.00  0.00    -0.318 N 
HETATM    3  C   UNL     1      16.779  52.079  49.032  1.00  0.00     0.011 C 
HETATM    4  C   UNL     1      18.470  50.792  48.061  1.00  0.00     0.170 C 
HETATM    5  S   UNL     1      19.473  51.761  49.093  1.00  0.00    -0.086 SA
HETATM    6  C   UNL     1      17.998  52.554  49.798  1.00  0.00     0.135 C 
HETATM    7  N   UNL     1      18.867  49.699  47.512  1.00  0.00    -0.229 NA
HETATM    8  C   UNL     1      17.900  48.884  46.950  1.00  0.00     0.048 C 
HETATM    9  C   UNL     1      18.364  47.465  46.723  1.00  0.00     0.071 C 
HETATM   10  C   UNL     1      16.646  49.318  46.699  1.00  0.00     0.069 C 
ENDROOT
BRANCH   3  11
HETATM   11  C   UNL     1      15.391  52.320  49.543  1.00  0.00     0.156 C 
BRANCH  11  12
HETATM   12  C   UNL     1      15.064  53.709  50.025  1.00  0.00     0.223 C 
HETATM   13  N   UNL     1      14.891  53.788  51.386  1.00  0.00    -0.359 N 
HETATM   14  H   UNL     1      14.921  52.918  51.916  1.00  0.00     0.162 HD
HETATM   15  O   UNL     1      14.931  54.660  49.264  1.00  0.00    -0.273 OA
BRANCH  13  16
HETATM   16  C   UNL     1      14.273  54.901  52.110  1.00  0.00     0.150 C 
BRANCH  16  17
HETATM   17  C   UNL     1      15.217  55.928  52.765  1.00  0.00     0.253 C 
BRANCH  17  18
HETATM   18  N   UNL     1      15.181  57.284  52.091  1.00  0.00    -0.077 N 
HETATM   19  H   UNL     1      16.038  57.350  51.507  1.00  0.00     0.279 HD
HETATM   20  C   UNL     1      14.010  57.481  51.168  1.00  0.00     0.269 C 
HETATM   21  C   UNL     1      15.260  58.399  53.098  1.00  0.00     0.269 C 
ENDBRANCH  17  18
ENDBRANCH  16  17
ENDBRANCH  13  16
ENDBRANCH  11  12
ENDBRANCH   3  11
BRANCH   1  22
HETATM   22  C   UNL     1      16.198  51.540  45.582  1.00  0.00    -0.024 C 
HETATM   23  C   UNL     1      15.574  52.788  45.327  1.00  0.00    -0.053 C 
HETATM   24  C   UNL     1      15.996  53.560  44.218  1.00  0.00     0.014 C 
HETATM   25  C   UNL     1      14.504  53.439  46.156  1.00  0.00     0.049 C 
HETATM   26  C   UNL     1      16.967  53.115  43.324  1.00  0.00    -0.061 C 
HETATM   27  C   UNL     1      17.503  54.023  42.254  1.00  0.00     0.048 C 
HETATM   28  C   UNL     1      17.471  51.832  43.484  1.00  0.00     0.007 C 
HETATM   29  C   UNL     1      17.081  51.057  44.581  1.00  0.00     0.011 C 
ENDBRANCH   1  22
BRANCH  10  30
HETATM   30  C   UNL     1      15.566  48.323  46.510  1.00  0.00     0.294 C 
HETATM   31  O   UNL     1      14.819  48.011  47.421  1.00  0.00    -0.259 OA
BRANCH  30  32
HETATM   32  O   UNL     1      15.461  47.968  45.216  1.00  0.00    -0.313 OA
BRANCH  32  33
HETATM   33  C   UNL     1      14.124  47.924  44.687  1.00  0.00     0.217 C 
BRANCH  33  34
HETATM   34  C   UNL     1      13.811  49.227  43.992  1.00  0.00    -0.034 A 
HETATM   35  C   UNL     1      14.438  49.566  42.783  1.00  0.00     0.009 A 
HETATM   36  C   UNL     1      14.124  50.762  42.131  1.00  0.00     0.001 A 
HETATM   37  C   UNL     1      13.186  51.632  42.683  1.00  0.00     0.000 A 
HETATM   38  C   UNL     1      12.565  51.313  43.888  1.00  0.00     0.001 A 
HETATM   39  C   UNL     1      12.879  50.120  44.542  1.00  0.00     0.009 A 
ENDBRANCH  33  34
ENDBRANCH  32  33
ENDBRANCH  30  32
ENDBRANCH  10  30
TORSDOF 10
ENDMDL
MODEL 8
REMARK VINA RESULT:      -6.2     10.126     13.770
REMARK  10 active torsions:
REMARK  status: ('A' for Active; 'I' for Inactive)
REMARK    1  A    between atoms: C_6  and  C_7 
REMARK    2  A    between atoms: C_9  and  C_10 
REMARK    3  A    between atoms: C_10  and  C_11 
REMARK       I    between atoms: C_11  and  N_12 
REMARK    4  A    between atoms: N_12  and  C_13 
REMARK    5  A    between atoms: C_13  and  C_14 
REMARK    6  A    between atoms: C_14  and  N_15 
REMARK    7  A    between atoms: C_26  and  C_27 
REMARK    8  A    between atoms: C_27  and  O_28 
REMARK    9  A    between atoms: O_28  and  C_29 
REMARK   10  A    between atoms: C_29  and  C_30 
ROOT
HETATM    1  C   UNL     1      27.512  47.044  39.686  1.00  0.00     0.166 C 
HETATM    2  N   UNL     1      27.378  45.632  40.092  1.00  0.00    -0.318 N 
HETATM    3  C   UNL     1      26.850  44.998  41.088  1.00  0.00     0.011 C 
HETATM    4  C   UNL     1      27.753  44.632  38.964  1.00  0.00     0.170 C 
HETATM    5  S   UNL     1      27.929  43.018  39.577  1.00  0.00    -0.086 SA
HETATM    6  C   UNL     1      27.089  43.501  41.115  1.00  0.00     0.135 C 
HETATM    7  N   UNL     1      27.824  44.925  37.714  1.00  0.00    -0.229 NA
HETATM    8  C   UNL     1      27.392  46.183  37.333  1.00  0.00     0.048 C 
HETATM    9  C   UNL     1      27.100  46.299  35.855  1.00  0.00     0.071 C 
HETATM   10  C   UNL     1      27.191  47.179  38.222  1.00  0.00     0.069 C 
ENDROOT
BRANCH   3  11
HETATM   11  C   UNL     1      25.931  45.661  42.068  1.00  0.00     0.156 C 
BRANCH  11  12
HETATM   12  C   UNL     1      24.463  45.688  41.730  1.00  0.00     0.223 C 
HETATM   13  N   UNL     1      24.192  46.278  40.519  1.00  0.00    -0.359 N 
HETATM   14  H   UNL     1      24.972  46.698  40.015  1.00  0.00     0.162 HD
HETATM   15  O   UNL     1      23.602  45.255  42.487  1.00  0.00    -0.273 OA
BRANCH  13  16
HETATM   16  C   UNL     1      22.877  46.730  40.060  1.00  0.00     0.150 C 
BRANCH  16  17
HETATM   17  C   UNL     1      22.499  48.199  40.333  1.00  0.00     0.253 C 
BRANCH  17  18
HETATM   18  N   UNL     1      22.517  49.059  39.087  1.00  0.00    -0.077 N 
HETATM   19  H   UNL     1      23.463  48.961  38.669  1.00  0.00     0.279 HD
HETATM   20  C   UNL     1      21.530  48.635  38.033  1.00  0.00     0.269 C 
HETATM   21  C   UNL     1      22.344  50.516  39.424  1.00  0.00     0.269 C 
ENDBRANCH  17  18
ENDBRANCH  16  17
ENDBRANCH  13  16
ENDBRANCH  11  12
ENDBRANCH   3  11
BRANCH   1  22
HETATM   22  C   UNL     1      28.868  47.710  40.037  1.00  0.00    -0.024 C 
HETATM   23  C   UNL     1      29.155  48.571  41.126  1.00  0.00    -0.053 C 
HETATM   24  C   UNL     1      30.499  48.746  41.536  1.00  0.00     0.014 C 
HETATM   25  C   UNL     1      28.157  49.315  41.966  1.00  0.00     0.049 C 
HETATM   26  C   UNL     1      31.567  48.149  40.870  1.00  0.00    -0.061 C 
HETATM   27  C   UNL     1      32.961  48.227  41.425  1.00  0.00     0.048 C 
HETATM   28  C   UNL     1      31.301  47.429  39.714  1.00  0.00     0.007 C 
HETATM   29  C   UNL     1      29.981  47.229  39.299  1.00  0.00     0.011 C 
ENDBRANCH   1  22
BRANCH  10  30
HETATM   30  C   UNL     1      26.343  48.329  37.835  1.00  0.00     0.294 C 
HETATM   31  O   UNL     1      25.131  48.299  37.962  1.00  0.00    -0.259 OA
BRANCH  30  32
HETATM   32  O   UNL     1      27.098  49.388  37.492  1.00  0.00    -0.313 OA
BRANCH  32  33
HETATM   33  C   UNL     1      26.863  50.593  38.243  1.00  0.00     0.217 C 
BRANCH  33  34
HETATM   34  C   UNL     1      28.179  51.150  38.731  1.00  0.00    -0.034 A 
HETATM   35  C   UNL     1      28.218  52.117  39.747  1.00  0.00     0.009 A 
HETATM   36  C   UNL     1      29.441  52.608  40.213  1.00  0.00     0.001 A 
HETATM   37  C   UNL     1      30.635  52.143  39.665  1.00  0.00     0.000 A 
HETATM   38  C   UNL     1      30.609  51.191  38.648  1.00  0.00     0.001 A 
HETATM   39  C   UNL     1      29.388  50.700  38.180  1.00  0.00     0.009 A 
ENDBRANCH  33  34
ENDBRANCH  32  33
ENDBRANCH  30  32
ENDBRANCH  10  30
TORSDOF 10
ENDMDL
MODEL 9
REMARK VINA RESULT:      -6.2      3.077      7.527
REMARK  10 active torsions:
REMARK  status: ('A' for Active; 'I' for Inactive)
REMARK    1  A    between atoms: C_6  and  C_7 
REMARK    2  A    between atoms: C_9  and  C_10 
REMARK    3  A    between atoms: C_10  and  C_11 
REMARK       I    between atoms: C_11  and  N_12 
REMARK    4  A    between atoms: N_12  and  C_13 
REMARK    5  A    between atoms: C_13  and  C_14 
REMARK    6  A    between atoms: C_14  and  N_15 
REMARK    7  A    between atoms: C_26  and  C_27 
REMARK    8  A    between atoms: C_27  and  O_28 
REMARK    9  A    between atoms: O_28  and  C_29 
REMARK   10  A    between atoms: C_29  and  C_30 
ROOT
HETATM    1  C   UNL     1      16.736  49.351  45.487  1.00  0.00     0.166 C 
HETATM    2  N   UNL     1      17.088  48.887  44.131  1.00  0.00    -0.318 N 
HETATM    3  C   UNL     1      16.727  47.914  43.360  1.00  0.00     0.011 C 
HETATM    4  C   UNL     1      17.924  49.920  43.328  1.00  0.00     0.170 C 
HETATM    5  S   UNL     1      18.614  49.210  41.903  1.00  0.00    -0.086 SA
HETATM    6  C   UNL     1      17.495  47.787  42.059  1.00  0.00     0.135 C 
HETATM    7  N   UNL     1      18.015  51.171  43.611  1.00  0.00    -0.229 NA
HETATM    8  C   UNL     1      17.194  51.656  44.612  1.00  0.00     0.048 C 
HETATM    9  C   UNL     1      17.041  53.159  44.593  1.00  0.00     0.071 C 
HETATM   10  C   UNL     1      16.546  50.843  45.474  1.00  0.00     0.069 C 
ENDROOT
BRANCH   3  11
HETATM   11  C   UNL     1      15.528  47.061  43.647  1.00  0.00     0.156 C 
BRANCH  11  12
HETATM   12  C   UNL     1      15.777  45.684  44.204  1.00  0.00     0.223 C 
HETATM   13  N   UNL     1      16.940  45.590  44.929  1.00  0.00    -0.359 N 
HETATM   14  H   UNL     1      17.544  46.410  44.959  1.00  0.00     0.162 HD
HETATM   15  O   UNL     1      15.027  44.738  43.991  1.00  0.00    -0.273 OA
BRANCH  13  16
HETATM   16  C   UNL     1      17.607  44.347  45.325  1.00  0.00     0.150 C 
BRANCH  16  17
HETATM   17  C   UNL     1      18.560  44.412  46.534  1.00  0.00     0.253 C 
BRANCH  17  18
HETATM   18  N   UNL     1      19.963  43.941  46.211  1.00  0.00    -0.077 N 
HETATM   19  H   UNL     1      20.449  43.805  47.118  1.00  0.00     0.279 HD
HETATM   20  C   UNL     1      20.017  42.623  45.487  1.00  0.00     0.269 C 
HETATM   21  C   UNL     1      20.736  44.992  45.461  1.00  0.00     0.269 C 
ENDBRANCH  17  18
ENDBRANCH  16  17
ENDBRANCH  13  16
ENDBRANCH  11  12
ENDBRANCH   3  11
BRANCH   1  22
HETATM   22  C   UNL     1      17.705  48.908  46.613  1.00  0.00    -0.024 C 
HETATM   23  C   UNL     1      17.403  48.136  47.764  1.00  0.00    -0.053 C 
HETATM   24  C   UNL     1      18.451  47.478  48.453  1.00  0.00     0.014 C 
HETATM   25  C   UNL     1      16.038  47.882  48.339  1.00  0.00     0.049 C 
HETATM   26  C   UNL     1      19.787  47.606  48.078  1.00  0.00    -0.061 C 
HETATM   27  C   UNL     1      20.852  46.772  48.729  1.00  0.00     0.048 C 
HETATM   28  C   UNL     1      20.100  48.480  47.047  1.00  0.00     0.007 C 
HETATM   29  C   UNL     1      19.081  49.128  46.342  1.00  0.00     0.011 C 
ENDBRANCH   1  22
BRANCH  10  30
HETATM   30  C   UNL     1      15.382  51.369  46.221  1.00  0.00     0.294 C 
HETATM   31  O   UNL     1      14.368  51.731  45.650  1.00  0.00    -0.259 OA
BRANCH  30  32
HETATM   32  O   UNL     1      15.565  51.240  47.548  1.00  0.00    -0.313 OA
BRANCH  32  33
HETATM   33  C   UNL     1      16.220  52.343  48.200  1.00  0.00     0.217 C 
BRANCH  33  34
HETATM   34  C   UNL     1      17.579  51.906  48.692  1.00  0.00    -0.034 A 
HETATM   35  C   UNL     1      18.750  52.359  48.066  1.00  0.00     0.009 A 
HETATM   36  C   UNL     1      20.005  51.972  48.544  1.00  0.00     0.001 A 
HETATM   37  C   UNL     1      20.102  51.125  49.646  1.00  0.00     0.000 A 
HETATM   38  C   UNL     1      18.946  50.659  50.269  1.00  0.00     0.001 A 
HETATM   39  C   UNL     1      17.691  51.043  49.793  1.00  0.00     0.009 A 
ENDBRANCH  33  34
ENDBRANCH  32  33
ENDBRANCH  30  32
ENDBRANCH  10  30
TORSDOF 10
ENDMDL
MODEL 10
REMARK VINA RESULT:      -6.2      6.600     10.914
REMARK  10 active torsions:
REMARK  status: ('A' for Active; 'I' for Inactive)
REMARK    1  A    between atoms: C_6  and  C_7 
REMARK    2  A    between atoms: C_9  and  C_10 
REMARK    3  A    between atoms: C_10  and  C_11 
REMARK       I    between atoms: C_11  and  N_12 
REMARK    4  A    between atoms: N_12  and  C_13 
REMARK    5  A    between atoms: C_13  and  C_14 
REMARK    6  A    between atoms: C_14  and  N_15 
REMARK    7  A    between atoms: C_26  and  C_27 
REMARK    8  A    between atoms: C_27  and  O_28 
REMARK    9  A    between atoms: O_28  and  C_29 
REMARK   10  A    between atoms: C_29  and  C_30 
ROOT
HETATM    1  C   UNL     1      21.879  44.870  48.022  1.00  0.00     0.166 C 
HETATM    2  N   UNL     1      22.488  44.135  46.896  1.00  0.00    -0.318 N 
HETATM    3  C   UNL     1      22.889  42.923  46.686  1.00  0.00     0.011 C 
HETATM    4  C   UNL     1      22.442  44.919  45.556  1.00  0.00     0.170 C 
HETATM    5  S   UNL     1      23.469  44.194  44.360  1.00  0.00    -0.086 SA
HETATM    6  C   UNL     1      23.582  42.681  45.359  1.00  0.00     0.135 C 
HETATM    7  N   UNL     1      21.668  45.917  45.314  1.00  0.00    -0.229 NA
HETATM    8  C   UNL     1      20.706  46.217  46.261  1.00  0.00     0.048 C 
HETATM    9  C   UNL     1      19.589  47.087  45.733  1.00  0.00     0.071 C 
HETATM   10  C   UNL     1      20.742  45.715  47.514  1.00  0.00     0.069 C 
ENDROOT
BRANCH   3  11
HETATM   11  C   UNL     1      22.558  41.794  47.614  1.00  0.00     0.156 C 
BRANCH  11  12
HETATM   12  C   UNL     1      23.556  40.670  47.717  1.00  0.00     0.223 C 
HETATM   13  N   UNL     1      24.581  40.929  48.594  1.00  0.00    -0.359 N 
HETATM   14  H   UNL     1      24.615  41.854  49.020  1.00  0.00     0.162 HD
HETATM   15  O   UNL     1      23.470  39.645  47.051  1.00  0.00    -0.273 OA
BRANCH  13  16
HETATM   16  C   UNL     1      25.843  40.190  48.682  1.00  0.00     0.150 C 
BRANCH  16  17
HETATM   17  C   UNL     1      26.332  39.792  50.088  1.00  0.00     0.253 C 
BRANCH  17  18
HETATM   18  N   UNL     1      27.381  38.700  50.065  1.00  0.00    -0.077 N 
HETATM   19  H   UNL     1      27.677  38.549  51.050  1.00  0.00     0.279 HD
HETATM   20  C   UNL     1      26.880  37.376  49.555  1.00  0.00     0.269 C 
HETATM   21  C   UNL     1      28.607  39.134  49.309  1.00  0.00     0.269 C 
ENDBRANCH  17  18
ENDBRANCH  16  17
ENDBRANCH  13  16
ENDBRANCH  11  12
ENDBRANCH   3  11
BRANCH   1  22
HETATM   22  C   UNL     1      22.866  45.698  48.885  1.00  0.00    -0.024 C 
HETATM   23  C   UNL     1      23.839  45.213  49.796  1.00  0.00    -0.053 C 
HETATM   24  C   UNL     1      24.914  46.052  50.174  1.00  0.00     0.014 C 
HETATM   25  C   UNL     1      23.894  43.838  50.398  1.00  0.00     0.049 C 
HETATM   26  C   UNL     1      25.027  47.368  49.729  1.00  0.00    -0.061 C 
HETATM   27  C   UNL     1      26.258  48.176  50.021  1.00  0.00     0.048 C 
HETATM   28  C   UNL     1      23.998  47.892  48.960  1.00  0.00     0.007 C 
HETATM   29  C   UNL     1      22.933  47.078  48.561  1.00  0.00     0.011 C 
ENDBRANCH   1  22
BRANCH  10  30
HETATM   30  C   UNL     1      19.505  45.715  48.325  1.00  0.00     0.294 C 
HETATM   31  O   UNL     1      18.704  44.798  48.268  1.00  0.00    -0.259 OA
BRANCH  30  32
HETATM   32  O   UNL     1      19.496  46.748  49.187  1.00  0.00    -0.313 OA
BRANCH  32  33
HETATM   33  C   UNL     1      18.410  47.680  49.036  1.00  0.00     0.217 C 
BRANCH  33  34
HETATM   34  C   UNL     1      18.946  49.091  49.067  1.00  0.00    -0.034 A 
HETATM   35  C   UNL     1      20.065  49.452  48.303  1.00  0.00     0.009 A 
HETATM   36  C   UNL     1      20.540  50.767  48.316  1.00  0.00     0.001 A 
HETATM   37  C   UNL     1      19.904  51.731  49.096  1.00  0.00     0.000 A 
HETATM   38  C   UNL     1      18.798  51.382  49.868  1.00  0.00     0.001 A 
HETATM   39  C   UNL     1      18.323  50.069  49.858  1.00  0.00     0.009 A 
ENDBRANCH  33  34
ENDBRANCH  32  33
ENDBRANCH  30  32
ENDBRANCH  10  30
TORSDOF 10
ENDMDL
