MODEL 1
REMARK VINA RESULT:      -9.0      0.000      0.000
REMARK  4 active torsions:
REMARK  status: ('A' for Active; 'I' for Inactive)
REMARK    1  A    between atoms: N_4  and  C_5 
REMARK    2  A    between atoms: C_16  and  C_17 
REMARK    3  A    between atoms: C_24  and  C_25 
REMARK    4  A    between atoms: C_25  and  O_26 
ROOT
HETATM    1  C   UNL     1      38.111  51.294  40.638  1.00  0.00     0.073 C 
HETATM    2  C   UNL     1      37.493  51.819  41.882  1.00  0.00     0.065 A 
HETATM    3  N   UNL     1      38.219  52.539  42.740  1.00  0.00    -0.170 NA
HETATM    4  N   UNL     1      37.368  52.847  43.766  1.00  0.00    -0.215 N 
HETATM    5  C   UNL     1      36.089  52.344  43.523  1.00  0.00     0.165 A 
HETATM    6  C   UNL     1      36.162  51.650  42.323  1.00  0.00     0.039 A 
HETATM    7  N   UNL     1      34.982  52.461  44.291  1.00  0.00    -0.216 NA
HETATM    8  C   UNL     1      33.900  51.809  43.817  1.00  0.00     0.137 A 
HETATM    9 CL   UNL     1      32.555  51.998  44.880  1.00  0.00    -0.062 Cl
HETATM   10  C   UNL     1      33.838  51.056  42.644  1.00  0.00     0.011 A 
HETATM   11  C   UNL     1      35.010  50.988  41.866  1.00  0.00     0.030 A 
ENDROOT
BRANCH  10  12
HETATM   12  C   UNL     1      32.598  50.292  42.218  1.00  0.00     0.164 C 
HETATM   13  N   UNL     1      32.981  48.906  41.986  1.00  0.00    -0.330 N 
HETATM   14  C   UNL     1      32.488  48.121  40.999  1.00  0.00     0.321 C 
HETATM   15  H   UNL     1      33.460  48.397  42.716  1.00  0.00     0.165 HD
HETATM   16  O   UNL     1      32.712  46.916  40.968  1.00  0.00    -0.247 OA
HETATM   17  N   UNL     1      31.760  48.746  40.035  1.00  0.00    -0.312 N 
HETATM   18  C   UNL     1      31.476  50.092  39.994  1.00  0.00     0.024 C 
HETATM   19  H   UNL     1      31.439  48.135  39.292  1.00  0.00     0.170 HD
HETATM   20  C   UNL     1      30.676  50.541  38.802  1.00  0.00     0.069 C 
HETATM   21  C   UNL     1      31.881  50.861  41.021  1.00  0.00     0.067 C 
BRANCH  21  22
HETATM   22  C   UNL     1      31.603  52.314  41.024  1.00  0.00     0.293 C 
HETATM   23  O   UNL     1      32.162  53.123  40.302  1.00  0.00    -0.259 OA
BRANCH  22  24
HETATM   24  O   UNL     1      30.647  52.585  41.945  1.00  0.00    -0.323 OA
HETATM   25  C   UNL     1      29.332  52.701  41.397  1.00  0.00     0.213 C 
ENDBRANCH  22  24
ENDBRANCH  21  22
ENDBRANCH  10  12
BRANCH   4  26
HETATM   26  C   UNL     1      37.861  53.566  44.899  1.00  0.00     0.060 A 
HETATM   27  C   UNL     1      38.118  54.943  44.777  1.00  0.00     0.031 A 
HETATM   28  C   UNL     1      38.628  55.671  45.856  1.00  0.00     0.002 A 
HETATM   29  C   UNL     1      38.880  55.035  47.069  1.00  0.00     0.000 A 
HETATM   30  C   UNL     1      38.621  53.674  47.204  1.00  0.00     0.002 A 
HETATM   31  C   UNL     1      38.114  52.939  46.126  1.00  0.00     0.031 A 
ENDBRANCH   4  26
TORSDOF 4
ENDMDL
MODEL 2
REMARK VINA RESULT:      -8.8     13.507     14.911
REMARK  4 active torsions:
REMARK  status: ('A' for Active; 'I' for Inactive)
REMARK    1  A    between atoms: N_4  and  C_5 
REMARK    2  A    between atoms: C_16  and  C_17 
REMARK    3  A    between atoms: C_24  and  C_25 
REMARK    4  A    between atoms: C_25  and  O_26 
ROOT
HETATM    1  C   UNL     1      26.180  48.568  55.601  1.00  0.00     0.073 C 
HETATM    2  C   UNL     1      26.971  47.368  55.226  1.00  0.00     0.065 A 
HETATM    3  N   UNL     1      27.866  46.863  56.078  1.00  0.00    -0.170 NA
HETATM    4  N   UNL     1      28.419  45.793  55.429  1.00  0.00    -0.215 N 
HETATM    5  C   UNL     1      27.833  45.610  54.176  1.00  0.00     0.165 A 
HETATM    6  C   UNL     1      26.917  46.640  54.018  1.00  0.00     0.039 A 
HETATM    7  N   UNL     1      28.099  44.653  53.258  1.00  0.00    -0.216 NA
HETATM    8  C   UNL     1      27.407  44.775  52.106  1.00  0.00     0.137 A 
HETATM    9 CL   UNL     1      27.837  43.527  50.996  1.00  0.00    -0.062 Cl
HETATM   10  C   UNL     1      26.478  45.770  51.802  1.00  0.00     0.011 A 
HETATM   11  C   UNL     1      26.217  46.727  52.802  1.00  0.00     0.030 A 
ENDROOT
BRANCH  10  12
HETATM   12  C   UNL     1      25.794  45.878  50.452  1.00  0.00     0.164 C 
HETATM   13  N   UNL     1      25.500  47.283  50.207  1.00  0.00    -0.330 N 
HETATM   14  C   UNL     1      24.381  47.746  49.602  1.00  0.00     0.321 C 
HETATM   15  H   UNL     1      26.247  47.962  50.266  1.00  0.00     0.165 HD
HETATM   16  O   UNL     1      24.275  48.919  49.263  1.00  0.00    -0.247 OA
HETATM   17  N   UNL     1      23.375  46.848  49.420  1.00  0.00    -0.312 N 
HETATM   18  C   UNL     1      23.414  45.521  49.782  1.00  0.00     0.024 C 
HETATM   19  H   UNL     1      22.539  47.237  48.999  1.00  0.00     0.170 HD
HETATM   20  C   UNL     1      22.157  44.744  49.499  1.00  0.00     0.069 C 
HETATM   21  C   UNL     1      24.557  45.032  50.296  1.00  0.00     0.067 C 
BRANCH  21  22
HETATM   22  C   UNL     1      24.648  43.613  50.704  1.00  0.00     0.293 C 
HETATM   23  O   UNL     1      24.305  43.187  51.794  1.00  0.00    -0.259 OA
BRANCH  22  24
HETATM   24  O   UNL     1      25.170  42.887  49.686  1.00  0.00    -0.323 OA
HETATM   25  C   UNL     1      24.360  41.778  49.291  1.00  0.00     0.213 C 
ENDBRANCH  22  24
ENDBRANCH  21  22
ENDBRANCH  10  12
BRANCH   4  26
HETATM   26  C   UNL     1      29.478  45.061  56.052  1.00  0.00     0.060 A 
HETATM   27  C   UNL     1      29.935  45.464  57.320  1.00  0.00     0.031 A 
HETATM   28  C   UNL     1      30.988  44.789  57.944  1.00  0.00     0.002 A 
HETATM   29  C   UNL     1      31.592  43.703  57.315  1.00  0.00     0.000 A 
HETATM   30  C   UNL     1      31.142  43.291  56.063  1.00  0.00     0.002 A 
HETATM   31  C   UNL     1      30.090  43.965  55.431  1.00  0.00     0.031 A 
ENDBRANCH   4  26
TORSDOF 4
ENDMDL
MODEL 3
REMARK VINA RESULT:      -8.5     12.036     14.850
REMARK  4 active torsions:
REMARK  status: ('A' for Active; 'I' for Inactive)
REMARK    1  A    between atoms: N_4  and  C_5 
REMARK    2  A    between atoms: C_16  and  C_17 
REMARK    3  A    between atoms: C_24  and  C_25 
REMARK    4  A    between atoms: C_25  and  O_26 
ROOT
HETATM    1  C   UNL     1      27.427  50.241  48.595  1.00  0.00     0.073 C 
HETATM    2  C   UNL     1      26.131  49.539  48.777  1.00  0.00     0.065 A 
HETATM    3  N   UNL     1      25.002  50.086  48.319  1.00  0.00    -0.170 NA
HETATM    4  N   UNL     1      24.011  49.206  48.659  1.00  0.00    -0.215 N 
HETATM    5  C   UNL     1      24.536  48.084  49.301  1.00  0.00     0.165 A 
HETATM    6  C   UNL     1      25.902  48.300  49.413  1.00  0.00     0.039 A 
HETATM    7  N   UNL     1      23.875  46.999  49.765  1.00  0.00    -0.216 NA
HETATM    8  C   UNL     1      24.655  46.099  50.401  1.00  0.00     0.137 A 
HETATM    9 CL   UNL     1      23.716  44.771  50.976  1.00  0.00    -0.062 Cl
HETATM   10  C   UNL     1      26.031  46.198  50.607  1.00  0.00     0.011 A 
HETATM   11  C   UNL     1      26.675  47.335  50.081  1.00  0.00     0.030 A 
ENDROOT
BRANCH  10  12
HETATM   12  C   UNL     1      26.824  45.175  51.398  1.00  0.00     0.164 C 
HETATM   13  N   UNL     1      26.673  43.883  50.743  1.00  0.00    -0.330 N 
HETATM   14  C   UNL     1      26.559  42.697  51.386  1.00  0.00     0.321 C 
HETATM   15  H   UNL     1      26.894  43.799  49.760  1.00  0.00     0.165 HD
HETATM   16  O   UNL     1      26.618  41.632  50.780  1.00  0.00    -0.247 OA
HETATM   17  N   UNL     1      26.346  42.754  52.728  1.00  0.00    -0.312 N 
HETATM   18  C   UNL     1      26.257  43.906  53.475  1.00  0.00     0.024 C 
HETATM   19  H   UNL     1      26.228  41.849  53.171  1.00  0.00     0.170 HD
HETATM   20  C   UNL     1      25.987  43.699  54.941  1.00  0.00     0.069 C 
HETATM   21  C   UNL     1      26.466  45.084  52.859  1.00  0.00     0.067 C 
BRANCH  21  22
HETATM   22  C   UNL     1      26.378  46.351  53.617  1.00  0.00     0.293 C 
HETATM   23  O   UNL     1      25.349  46.986  53.781  1.00  0.00    -0.259 OA
BRANCH  22  24
HETATM   24  O   UNL     1      27.607  46.680  54.083  1.00  0.00    -0.323 OA
HETATM   25  C   UNL     1      27.594  47.268  55.385  1.00  0.00     0.213 C 
ENDBRANCH  22  24
ENDBRANCH  21  22
ENDBRANCH  10  12
BRANCH   4  26
HETATM   26  C   UNL     1      22.649  49.532  48.367  1.00  0.00     0.060 A 
HETATM   27  C   UNL     1      22.170  50.817  48.679  1.00  0.00     0.031 A 
HETATM   28  C   UNL     1      20.837  51.158  48.434  1.00  0.00     0.002 A 
HETATM   29  C   UNL     1      19.970  50.226  47.870  1.00  0.00     0.000 A 
HETATM   30  C   UNL     1      20.436  48.953  47.549  1.00  0.00     0.002 A 
HETATM   31  C   UNL     1      21.769  48.604  47.795  1.00  0.00     0.031 A 
ENDBRANCH   4  26
TORSDOF 4
ENDMDL
MODEL 4
REMARK VINA RESULT:      -8.1      3.482      5.132
REMARK  4 active torsions:
REMARK  status: ('A' for Active; 'I' for Inactive)
REMARK    1  A    between atoms: N_4  and  C_5 
REMARK    2  A    between atoms: C_16  and  C_17 
REMARK    3  A    between atoms: C_24  and  C_25 
REMARK    4  A    between atoms: C_25  and  O_26 
ROOT
HETATM    1  C   UNL     1      32.950  51.805  44.812  1.00  0.00     0.073 C 
HETATM    2  C   UNL     1      33.525  51.742  43.445  1.00  0.00     0.065 A 
HETATM    3  N   UNL     1      34.839  51.896  43.263  1.00  0.00    -0.170 NA
HETATM    4  N   UNL     1      35.030  51.800  41.911  1.00  0.00    -0.215 N 
HETATM    5  C   UNL     1      33.827  51.546  41.252  1.00  0.00     0.165 A 
HETATM    6  C   UNL     1      32.840  51.538  42.227  1.00  0.00     0.039 A 
HETATM    7  N   UNL     1      33.618  51.370  39.928  1.00  0.00    -0.216 NA
HETATM    8  C   UNL     1      32.324  51.203  39.583  1.00  0.00     0.137 A 
HETATM    9 CL   UNL     1      32.163  51.014  37.875  1.00  0.00    -0.062 Cl
HETATM   10  C   UNL     1      31.232  51.197  40.451  1.00  0.00     0.011 A 
HETATM   11  C   UNL     1      31.506  51.358  41.823  1.00  0.00     0.030 A 
ENDROOT
BRANCH  10  12
HETATM   12  C   UNL     1      29.797  51.075  39.973  1.00  0.00     0.164 C 
HETATM   13  N   UNL     1      28.999  52.064  40.683  1.00  0.00    -0.330 N 
HETATM   14  C   UNL     1      27.733  51.871  41.121  1.00  0.00     0.321 C 
HETATM   15  H   UNL     1      29.284  53.034  40.662  1.00  0.00     0.165 HD
HETATM   16  O   UNL     1      27.054  52.797  41.548  1.00  0.00    -0.247 OA
HETATM   17  N   UNL     1      27.271  50.591  41.088  1.00  0.00    -0.312 N 
HETATM   18  C   UNL     1      27.974  49.499  40.635  1.00  0.00     0.024 C 
HETATM   19  H   UNL     1      26.334  50.476  41.458  1.00  0.00     0.170 HD
HETATM   20  C   UNL     1      27.247  48.185  40.732  1.00  0.00     0.069 C 
HETATM   21  C   UNL     1      29.197  49.699  40.110  1.00  0.00     0.067 C 
BRANCH  21  22
HETATM   22  C   UNL     1      29.994  48.557  39.612  1.00  0.00     0.293 C 
HETATM   23  O   UNL     1      30.161  48.297  38.432  1.00  0.00    -0.259 OA
BRANCH  22  24
HETATM   24  O   UNL     1      30.492  47.866  40.665  1.00  0.00    -0.323 OA
HETATM   25  C   UNL     1      31.899  47.627  40.589  1.00  0.00     0.213 C 
ENDBRANCH  22  24
ENDBRANCH  21  22
ENDBRANCH  10  12
BRANCH   4  26
HETATM   26  C   UNL     1      36.340  51.989  41.370  1.00  0.00     0.060 A 
HETATM   27  C   UNL     1      37.324  51.011  41.598  1.00  0.00     0.031 A 
HETATM   28  C   UNL     1      38.623  51.179  41.109  1.00  0.00     0.002 A 
HETATM   29  C   UNL     1      38.952  52.319  40.381  1.00  0.00     0.000 A 
HETATM   30  C   UNL     1      37.983  53.291  40.142  1.00  0.00     0.002 A 
HETATM   31  C   UNL     1      36.682  53.130  40.633  1.00  0.00     0.031 A 
ENDBRANCH   4  26
TORSDOF 4
ENDMDL
MODEL 5
REMARK VINA RESULT:      -7.9      3.820      5.385
REMARK  4 active torsions:
REMARK  status: ('A' for Active; 'I' for Inactive)
REMARK    1  A    between atoms: N_4  and  C_5 
REMARK    2  A    between atoms: C_16  and  C_17 
REMARK    3  A    between atoms: C_24  and  C_25 
REMARK    4  A    between atoms: C_25  and  O_26 
ROOT
HETATM    1  C   UNL     1      32.876  51.928  44.710  1.00  0.00     0.073 C 
HETATM    2  C   UNL     1      33.083  51.542  43.291  1.00  0.00     0.065 A 
HETATM    3  N   UNL     1      34.227  51.847  42.674  1.00  0.00    -0.170 NA
HETATM    4  N   UNL     1      34.088  51.372  41.398  1.00  0.00    -0.215 N 
HETATM    5  C   UNL     1      32.859  50.731  41.234  1.00  0.00     0.165 A 
HETATM    6  C   UNL     1      32.185  50.861  42.441  1.00  0.00     0.039 A 
HETATM    7  N   UNL     1      32.372  50.122  40.129  1.00  0.00    -0.216 NA
HETATM    8  C   UNL     1      31.117  49.644  40.261  1.00  0.00     0.137 A 
HETATM    9 CL   UNL     1      30.581  48.913  38.792  1.00  0.00    -0.062 Cl
HETATM   10  C   UNL     1      30.317  49.726  41.401  1.00  0.00     0.011 A 
HETATM   11  C   UNL     1      30.881  50.346  42.533  1.00  0.00     0.030 A 
ENDROOT
BRANCH  10  12
HETATM   12  C   UNL     1      28.885  49.225  41.443  1.00  0.00     0.164 C 
HETATM   13  N   UNL     1      28.901  47.791  41.194  1.00  0.00    -0.330 N 
HETATM   14  C   UNL     1      27.974  47.119  40.471  1.00  0.00     0.321 C 
HETATM   15  H   UNL     1      29.486  47.197  41.766  1.00  0.00     0.165 HD
HETATM   16  O   UNL     1      27.943  45.894  40.450  1.00  0.00    -0.247 OA
HETATM   17  N   UNL     1      27.105  47.877  39.749  1.00  0.00    -0.312 N 
HETATM   18  C   UNL     1      27.084  49.252  39.711  1.00  0.00     0.024 C 
HETATM   19  H   UNL     1      26.450  47.342  39.190  1.00  0.00     0.170 HD
HETATM   20  C   UNL     1      26.040  49.852  38.809  1.00  0.00     0.069 C 
HETATM   21  C   UNL     1      27.940  49.926  40.502  1.00  0.00     0.067 C 
BRANCH  21  22
HETATM   22  C   UNL     1      27.959  51.405  40.496  1.00  0.00     0.293 C 
HETATM   23  O   UNL     1      27.468  52.104  41.367  1.00  0.00    -0.259 OA
BRANCH  22  24
HETATM   24  O   UNL     1      28.595  51.840  39.383  1.00  0.00    -0.323 OA
HETATM   25  C   UNL     1      29.500  52.922  39.618  1.00  0.00     0.213 C 
ENDBRANCH  22  24
ENDBRANCH  21  22
ENDBRANCH  10  12
BRANCH   4  26
HETATM   26  C   UNL     1      35.128  51.599  40.444  1.00  0.00     0.060 A 
HETATM   27  C   UNL     1      36.011  50.550  40.130  1.00  0.00     0.031 A 
HETATM   28  C   UNL     1      37.056  50.747  39.223  1.00  0.00     0.002 A 
HETATM   29  C   UNL     1      37.229  51.988  38.616  1.00  0.00     0.000 A 
HETATM   30  C   UNL     1      36.356  53.031  38.913  1.00  0.00     0.002 A 
HETATM   31  C   UNL     1      35.309  52.842  39.823  1.00  0.00     0.031 A 
ENDBRANCH   4  26
TORSDOF 4
ENDMDL
MODEL 6
REMARK VINA RESULT:      -7.7     12.975     15.832
REMARK  4 active torsions:
REMARK  status: ('A' for Active; 'I' for Inactive)
REMARK    1  A    between atoms: N_4  and  C_5 
REMARK    2  A    between atoms: C_16  and  C_17 
REMARK    3  A    between atoms: C_24  and  C_25 
REMARK    4  A    between atoms: C_25  and  O_26 
ROOT
HETATM    1  C   UNL     1      24.906  49.442  48.496  1.00  0.00     0.073 C 
HETATM    2  C   UNL     1      23.447  49.220  48.333  1.00  0.00     0.065 A 
HETATM    3  N   UNL     1      22.642  50.243  48.039  1.00  0.00    -0.170 NA
HETATM    4  N   UNL     1      21.385  49.708  47.976  1.00  0.00    -0.215 N 
HETATM    5  C   UNL     1      21.415  48.330  48.196  1.00  0.00     0.165 A 
HETATM    6  C   UNL     1      22.739  48.005  48.460  1.00  0.00     0.039 A 
HETATM    7  N   UNL     1      20.382  47.458  48.193  1.00  0.00    -0.216 NA
HETATM    8  C   UNL     1      20.721  46.189  48.503  1.00  0.00     0.137 A 
HETATM    9 CL   UNL     1      19.333  45.164  48.498  1.00  0.00    -0.062 Cl
HETATM   10  C   UNL     1      22.001  45.727  48.813  1.00  0.00     0.011 A 
HETATM   11  C   UNL     1      23.046  46.671  48.776  1.00  0.00     0.030 A 
ENDROOT
BRANCH  10  12
HETATM   12  C   UNL     1      22.286  44.295  49.223  1.00  0.00     0.164 C 
HETATM   13  N   UNL     1      23.104  44.324  50.426  1.00  0.00    -0.330 N 
HETATM   14  C   UNL     1      24.114  43.465  50.699  1.00  0.00     0.321 C 
HETATM   15  H   UNL     1      22.784  44.851  51.228  1.00  0.00     0.165 HD
HETATM   16  O   UNL     1      24.643  43.428  51.804  1.00  0.00    -0.247 OA
HETATM   17  N   UNL     1      24.525  42.670  49.674  1.00  0.00    -0.312 N 
HETATM   18  C   UNL     1      23.991  42.661  48.406  1.00  0.00     0.024 C 
HETATM   19  H   UNL     1      25.307  42.066  49.902  1.00  0.00     0.170 HD
HETATM   20  C   UNL     1      24.646  41.708  47.443  1.00  0.00     0.069 C 
HETATM   21  C   UNL     1      22.926  43.444  48.156  1.00  0.00     0.067 C 
BRANCH  21  22
HETATM   22  C   UNL     1      22.317  43.472  46.808  1.00  0.00     0.293 C 
HETATM   23  O   UNL     1      22.778  44.081  45.857  1.00  0.00    -0.259 OA
BRANCH  22  24
HETATM   24  O   UNL     1      21.185  42.728  46.813  1.00  0.00    -0.323 OA
HETATM   25  C   UNL     1      20.300  43.013  45.727  1.00  0.00     0.213 C 
ENDBRANCH  22  24
ENDBRANCH  21  22
ENDBRANCH  10  12
BRANCH   4  26
HETATM   26  C   UNL     1      20.264  50.565  47.741  1.00  0.00     0.060 A 
HETATM   27  C   UNL     1      20.015  51.625  48.632  1.00  0.00     0.031 A 
HETATM   28  C   UNL     1      18.911  52.463  48.449  1.00  0.00     0.002 A 
HETATM   29  C   UNL     1      18.050  52.259  47.375  1.00  0.00     0.000 A 
HETATM   30  C   UNL     1      18.292  51.218  46.482  1.00  0.00     0.002 A 
HETATM   31  C   UNL     1      19.393  50.372  46.662  1.00  0.00     0.031 A 
ENDBRANCH   4  26
TORSDOF 4
ENDMDL
MODEL 7
REMARK VINA RESULT:      -7.7     13.774     14.781
REMARK  4 active torsions:
REMARK  status: ('A' for Active; 'I' for Inactive)
REMARK    1  A    between atoms: N_4  and  C_5 
REMARK    2  A    between atoms: C_16  and  C_17 
REMARK    3  A    between atoms: C_24  and  C_25 
REMARK    4  A    between atoms: C_25  and  O_26 
ROOT
HETATM    1  C   UNL     1      25.557  48.115  54.511  1.00  0.00     0.073 C 
HETATM    2  C   UNL     1      26.252  46.935  53.938  1.00  0.00     0.065 A 
HETATM    3  N   UNL     1      27.237  46.343  54.616  1.00  0.00    -0.170 NA
HETATM    4  N   UNL     1      27.664  45.319  53.815  1.00  0.00    -0.215 N 
HETATM    5  C   UNL     1      26.909  45.253  52.643  1.00  0.00     0.165 A 
HETATM    6  C   UNL     1      26.013  46.312  52.694  1.00  0.00     0.039 A 
HETATM    7  N   UNL     1      27.018  44.370  51.624  1.00  0.00    -0.216 NA
HETATM    8  C   UNL     1      26.182  44.602  50.591  1.00  0.00     0.137 A 
HETATM    9 CL   UNL     1      26.419  43.442  49.336  1.00  0.00    -0.062 Cl
HETATM   10  C   UNL     1      25.252  45.638  50.497  1.00  0.00     0.011 A 
HETATM   11  C   UNL     1      25.159  46.514  51.597  1.00  0.00     0.030 A 
ENDROOT
BRANCH  10  12
HETATM   12  C   UNL     1      24.398  45.873  49.266  1.00  0.00     0.164 C 
HETATM   13  N   UNL     1      24.230  47.309  49.100  1.00  0.00    -0.330 N 
HETATM   14  C   UNL     1      23.094  47.914  48.678  1.00  0.00     0.321 C 
HETATM   15  H   UNL     1      25.049  47.901  49.064  1.00  0.00     0.165 HD
HETATM   16  O   UNL     1      23.073  49.104  48.386  1.00  0.00    -0.247 OA
HETATM   17  N   UNL     1      21.979  47.137  48.627  1.00  0.00    -0.312 N 
HETATM   18  C   UNL     1      21.920  45.800  48.948  1.00  0.00     0.024 C 
HETATM   19  H   UNL     1      21.139  47.630  48.343  1.00  0.00     0.170 HD
HETATM   20  C   UNL     1      20.556  45.174  48.836  1.00  0.00     0.069 C 
HETATM   21  C   UNL     1      23.064  45.171  49.275  1.00  0.00     0.067 C 
BRANCH  21  22
HETATM   22  C   UNL     1      23.053  43.736  49.632  1.00  0.00     0.293 C 
HETATM   23  O   UNL     1      22.903  43.309  50.765  1.00  0.00    -0.259 OA
BRANCH  22  24
HETATM   24  O   UNL     1      23.239  42.995  48.513  1.00  0.00    -0.323 OA
HETATM   25  C   UNL     1      23.348  41.591  48.759  1.00  0.00     0.213 C 
ENDBRANCH  22  24
ENDBRANCH  21  22
ENDBRANCH  10  12
BRANCH   4  26
HETATM   26  C   UNL     1      28.773  44.516  54.227  1.00  0.00     0.060 A 
HETATM   27  C   UNL     1      29.414  44.807  55.445  1.00  0.00     0.031 A 
HETATM   28  C   UNL     1      30.519  44.061  55.864  1.00  0.00     0.002 A 
HETATM   29  C   UNL     1      30.993  43.015  55.077  1.00  0.00     0.000 A 
HETATM   30  C   UNL     1      30.362  42.713  53.873  1.00  0.00     0.002 A 
HETATM   31  C   UNL     1      29.256  43.458  53.446  1.00  0.00     0.031 A 
ENDBRANCH   4  26
TORSDOF 4
ENDMDL
MODEL 8
REMARK VINA RESULT:      -7.6      3.058      7.887
REMARK  4 active torsions:
REMARK  status: ('A' for Active; 'I' for Inactive)
REMARK    1  A    between atoms: N_4  and  C_5 
REMARK    2  A    between atoms: C_16  and  C_17 
REMARK    3  A    between atoms: C_24  and  C_25 
REMARK    4  A    between atoms: C_25  and  O_26 
ROOT
HETATM    1  C   UNL     1      32.168  52.192  45.135  1.00  0.00     0.073 C 
HETATM    2  C   UNL     1      32.688  51.583  43.885  1.00  0.00     0.065 A 
HETATM    3  N   UNL     1      31.873  50.888  43.088  1.00  0.00    -0.170 NA
HETATM    4  N   UNL     1      32.658  50.460  42.052  1.00  0.00    -0.215 N 
HETATM    5  C   UNL     1      33.966  50.926  42.189  1.00  0.00     0.165 A 
HETATM    6  C   UNL     1      34.008  51.628  43.386  1.00  0.00     0.039 A 
HETATM    7  N   UNL     1      35.017  50.729  41.361  1.00  0.00    -0.216 NA
HETATM    8  C   UNL     1      36.179  51.258  41.797  1.00  0.00     0.137 A 
HETATM    9 CL   UNL     1      37.458  50.930  40.687  1.00  0.00    -0.062 Cl
HETATM   10  C   UNL     1      36.372  51.963  42.985  1.00  0.00     0.011 A 
HETATM   11  C   UNL     1      35.240  52.163  43.800  1.00  0.00     0.030 A 
ENDROOT
BRANCH  10  12
HETATM   12  C   UNL     1      37.731  52.463  43.439  1.00  0.00     0.164 C 
HETATM   13  N   UNL     1      37.879  52.148  44.852  1.00  0.00    -0.330 N 
HETATM   14  C   UNL     1      38.482  52.945  45.766  1.00  0.00     0.321 C 
HETATM   15  H   UNL     1      37.747  51.194  45.161  1.00  0.00     0.165 HD
HETATM   16  O   UNL     1      38.736  52.545  46.896  1.00  0.00    -0.247 OA
HETATM   17  N   UNL     1      38.760  54.216  45.369  1.00  0.00    -0.312 N 
HETATM   18  C   UNL     1      38.497  54.741  44.125  1.00  0.00     0.024 C 
HETATM   19  H   UNL     1      39.176  54.796  46.089  1.00  0.00     0.170 HD
HETATM   20  C   UNL     1      38.875  56.186  43.947  1.00  0.00     0.069 C 
HETATM   21  C   UNL     1      37.986  53.926  43.183  1.00  0.00     0.067 C 
BRANCH  21  22
HETATM   22  C   UNL     1      37.683  54.443  41.831  1.00  0.00     0.293 C 
HETATM   23  O   UNL     1      36.661  55.041  41.535  1.00  0.00    -0.259 OA
BRANCH  22  24
HETATM   24  O   UNL     1      38.706  54.143  40.996  1.00  0.00    -0.323 OA
HETATM   25  C   UNL     1      38.404  54.340  39.613  1.00  0.00     0.213 C 
ENDBRANCH  22  24
ENDBRANCH  21  22
ENDBRANCH  10  12
BRANCH   4  26
HETATM   26  C   UNL     1      32.095  49.618  41.042  1.00  0.00     0.060 A 
HETATM   27  C   UNL     1      31.585  50.204  39.869  1.00  0.00     0.031 A 
HETATM   28  C   UNL     1      31.001  49.413  38.875  1.00  0.00     0.002 A 
HETATM   29  C   UNL     1      30.925  48.032  39.037  1.00  0.00     0.000 A 
HETATM   30  C   UNL     1      31.434  47.441  40.191  1.00  0.00     0.002 A 
HETATM   31  C   UNL     1      32.016  48.228  41.191  1.00  0.00     0.031 A 
ENDBRANCH   4  26
TORSDOF 4
ENDMDL
MODEL 9
REMARK VINA RESULT:      -7.5      4.874     10.748
REMARK  4 active torsions:
REMARK  status: ('A' for Active; 'I' for Inactive)
REMARK    1  A    between atoms: N_4  and  C_5 
REMARK    2  A    between atoms: C_16  and  C_17 
REMARK    3  A    between atoms: C_24  and  C_25 
REMARK    4  A    between atoms: C_25  and  O_26 
ROOT
HETATM    1  C   UNL     1      26.559  45.689  41.671  1.00  0.00     0.073 C 
HETATM    2  C   UNL     1      26.440  46.700  40.590  1.00  0.00     0.065 A 
HETATM    3  N   UNL     1      25.328  46.768  39.854  1.00  0.00    -0.170 NA
HETATM    4  N   UNL     1      25.549  47.776  38.956  1.00  0.00    -0.215 N 
HETATM    5  C   UNL     1      26.798  48.365  39.161  1.00  0.00     0.165 A 
HETATM    6  C   UNL     1      27.399  47.659  40.194  1.00  0.00     0.039 A 
HETATM    7  N   UNL     1      27.359  49.396  38.490  1.00  0.00    -0.216 NA
HETATM    8  C   UNL     1      28.613  49.702  38.882  1.00  0.00     0.137 A 
HETATM    9 CL   UNL     1      29.247  51.008  37.949  1.00  0.00    -0.062 Cl
HETATM   10  C   UNL     1      29.345  49.064  39.884  1.00  0.00     0.011 A 
HETATM   11  C   UNL     1      28.705  48.013  40.571  1.00  0.00     0.030 A 
ENDROOT
BRANCH  10  12
HETATM   12  C   UNL     1      30.781  49.423  40.215  1.00  0.00     0.164 C 
HETATM   13  N   UNL     1      31.523  48.185  40.409  1.00  0.00    -0.330 N 
HETATM   14  C   UNL     1      32.491  47.999  41.336  1.00  0.00     0.321 C 
HETATM   15  H   UNL     1      31.506  47.482  39.683  1.00  0.00     0.165 HD
HETATM   16  O   UNL     1      33.201  46.999  41.329  1.00  0.00    -0.247 OA
HETATM   17  N   UNL     1      32.612  48.964  42.287  1.00  0.00    -0.312 N 
HETATM   18  C   UNL     1      31.849  50.106  42.369  1.00  0.00     0.024 C 
HETATM   19  H   UNL     1      33.321  48.774  42.987  1.00  0.00     0.170 HD
HETATM   20  C   UNL     1      32.161  51.002  43.537  1.00  0.00     0.069 C 
HETATM   21  C   UNL     1      30.950  50.344  41.396  1.00  0.00     0.067 C 
BRANCH  21  22
HETATM   22  C   UNL     1      30.103  51.556  41.440  1.00  0.00     0.293 C 
HETATM   23  O   UNL     1      29.153  51.705  42.191  1.00  0.00    -0.259 OA
BRANCH  22  24
HETATM   24  O   UNL     1      30.549  52.447  40.523  1.00  0.00    -0.323 OA
HETATM   25  C   UNL     1      30.978  53.690  41.084  1.00  0.00     0.213 C 
ENDBRANCH  22  24
ENDBRANCH  21  22
ENDBRANCH  10  12
BRANCH   4  26
HETATM   26  C   UNL     1      24.561  48.065  37.963  1.00  0.00     0.060 A 
HETATM   27  C   UNL     1      23.411  48.785  38.331  1.00  0.00     0.031 A 
HETATM   28  C   UNL     1      22.412  49.059  37.392  1.00  0.00     0.002 A 
HETATM   29  C   UNL     1      22.552  48.624  36.077  1.00  0.00     0.000 A 
HETATM   30  C   UNL     1      23.691  47.917  35.700  1.00  0.00     0.002 A 
HETATM   31  C   UNL     1      24.693  47.636  36.636  1.00  0.00     0.031 A 
ENDBRANCH   4  26
TORSDOF 4
ENDMDL
MODEL 10
REMARK VINA RESULT:      -7.5     13.798     15.321
REMARK  4 active torsions:
REMARK  status: ('A' for Active; 'I' for Inactive)
REMARK    1  A    between atoms: N_4  and  C_5 
REMARK    2  A    between atoms: C_16  and  C_17 
REMARK    3  A    between atoms: C_24  and  C_25 
REMARK    4  A    between atoms: C_25  and  O_26 
ROOT
HETATM    1  C   UNL     1      23.901  43.810  50.520  1.00  0.00     0.073 C 
HETATM    2  C   UNL     1      25.178  43.175  50.932  1.00  0.00     0.065 A 
HETATM    3  N   UNL     1      25.895  43.697  51.930  1.00  0.00    -0.170 NA
HETATM    4  N   UNL     1      26.998  42.895  52.041  1.00  0.00    -0.215 N 
HETATM    5  C   UNL     1      26.946  41.842  51.126  1.00  0.00     0.165 A 
HETATM    6  C   UNL     1      25.790  42.028  50.380  1.00  0.00     0.039 A 
HETATM    7  N   UNL     1      27.837  40.841  50.949  1.00  0.00    -0.216 NA
HETATM    8  C   UNL     1      27.541  40.001  49.935  1.00  0.00     0.137 A 
HETATM    9 CL   UNL     1      28.749  38.780  49.776  1.00  0.00    -0.062 Cl
HETATM   10  C   UNL     1      26.432  40.082  49.093  1.00  0.00     0.011 A 
HETATM   11  C   UNL     1      25.520  41.127  49.336  1.00  0.00     0.030 A 
ENDROOT
BRANCH  10  12
HETATM   12  C   UNL     1      26.209  39.137  47.926  1.00  0.00     0.164 C 
HETATM   13  N   UNL     1      26.143  37.781  48.452  1.00  0.00    -0.330 N 
HETATM   14  C   UNL     1      26.656  36.687  47.841  1.00  0.00     0.321 C 
HETATM   15  H   UNL     1      25.487  37.569  49.191  1.00  0.00     0.165 HD
HETATM   16  O   UNL     1      26.410  35.555  48.242  1.00  0.00    -0.247 OA
HETATM   17  N   UNL     1      27.479  36.915  46.782  1.00  0.00    -0.312 N 
HETATM   18  C   UNL     1      27.812  38.153  46.281  1.00  0.00     0.024 C 
HETATM   19  H   UNL     1      27.875  36.076  46.372  1.00  0.00     0.170 HD
HETATM   20  C   UNL     1      28.768  38.137  45.119  1.00  0.00     0.069 C 
HETATM   21  C   UNL     1      27.230  39.239  46.822  1.00  0.00     0.067 C 
BRANCH  21  22
HETATM   22  C   UNL     1      27.556  40.592  46.321  1.00  0.00     0.293 C 
HETATM   23  O   UNL     1      28.520  41.246  46.683  1.00  0.00    -0.259 OA
BRANCH  22  24
HETATM   24  O   UNL     1      26.622  40.971  45.416  1.00  0.00    -0.323 OA
HETATM   25  C   UNL     1      27.155  41.264  44.123  1.00  0.00     0.213 C 
ENDBRANCH  22  24
ENDBRANCH  21  22
ENDBRANCH  10  12
BRANCH   4  26
HETATM   26  C   UNL     1      28.016  43.224  52.989  1.00  0.00     0.060 A 
HETATM   27  C   UNL     1      27.740  44.176  53.987  1.00  0.00     0.031 A 
HETATM   28  C   UNL     1      28.723  44.543  54.912  1.00  0.00     0.002 A 
HETATM   29  C   UNL     1      29.986  43.961  54.855  1.00  0.00     0.000 A 
HETATM   30  C   UNL     1      30.267  43.011  53.877  1.00  0.00     0.002 A 
HETATM   31  C   UNL     1      29.289  42.642  52.946  1.00  0.00     0.031 A 
ENDBRANCH   4  26
TORSDOF 4
ENDMDL
