MODEL 1
REMARK VINA RESULT:      -8.1      0.000      0.000
REMARK  4 active torsions:
REMARK  status: ('A' for Active; 'I' for Inactive)
REMARK    1  A    between atoms: O_2  and  C_3 
REMARK    2  A    between atoms: C_4  and  C_5 
REMARK    3  A    between atoms: C_9  and  N_10 
REMARK    4  A    between atoms: C_13  and  C_14 
ROOT
HETATM    1  C   UNL     1      25.842  44.257  51.170  1.00  0.00     0.167 C 
HETATM    2  N   UNL     1      25.962  45.670  50.821  1.00  0.00    -0.074 N 
HETATM    3  C   UNL     1      25.931  46.686  51.741  1.00  0.00     0.736 A 
HETATM    4  N   UNL     1      26.216  47.812  51.142  1.00  0.00     0.131 NA
HETATM    5  C   UNL     1      26.465  47.425  49.860  1.00  0.00     0.753 A 
HETATM    6  N   UNL     1      26.341  46.125  49.612  1.00  0.00     0.037 NA
HETATM    7  N   UNL     1      25.692  46.452  53.048  1.00  0.00    -0.214 N 
HETATM    8  C   UNL     1      25.725  45.095  53.577  1.00  0.00     0.135 C 
HETATM    9  C   UNL     1      25.163  44.101  52.545  1.00  0.00     0.063 C 
HETATM   10  H   UNL     1      25.939  47.192  53.699  1.00  0.00     0.178 HD
ENDROOT
BRANCH   1  11
HETATM   11  C   UNL     1      25.102  43.460  50.102  1.00  0.00     0.001 A 
HETATM   12  C   UNL     1      25.805  42.678  49.169  1.00  0.00     0.076 A 
HETATM   13  C   UNL     1      25.110  41.927  48.213  1.00  0.00     0.037 A 
HETATM   14  C   UNL     1      23.717  41.971  48.157  1.00  0.00     0.003 A 
HETATM   15  C   UNL     1      23.010  42.758  49.061  1.00  0.00     0.001 A 
HETATM   16  C   UNL     1      23.695  43.496  50.026  1.00  0.00     0.012 A 
BRANCH  12  17
HETATM   17  O   UNL     1      27.171  42.642  49.282  1.00  0.00    -0.355 OA
HETATM   18  C   UNL     1      27.701  41.377  49.673  1.00  0.00     0.210 C 
ENDBRANCH  12  17
ENDBRANCH   1  11
BRANCH   8  19
HETATM   19  C   UNL     1      27.088  44.687  54.118  1.00  0.00    -0.035 A 
HETATM   20  C   UNL     1      27.831  45.633  54.851  1.00  0.00     0.010 A 
HETATM   21  C   UNL     1      29.080  45.312  55.387  1.00  0.00     0.019 A 
HETATM   22  C   UNL     1      29.602  44.035  55.203  1.00  0.00     0.011 A 
HETATM   23 BR   UNL     1      31.290  43.597  55.930  1.00  0.00    -0.051 Br
HETATM   24  C   UNL     1      28.887  43.082  54.486  1.00  0.00     0.019 A 
HETATM   25  C   UNL     1      27.638  43.406  53.946  1.00  0.00     0.010 A 
ENDBRANCH   8  19
BRANCH   5  26
HETATM   26  N   UNL     1      26.798  48.354  48.967  1.00  0.00    -0.229 N 
HETATM   27  H   UNL     1      26.140  48.512  48.217  1.00  0.00     0.174 HD
HETATM   28  H   UNL     1      27.771  48.384  48.695  1.00  0.00     0.174 HD
ENDBRANCH   5  26
TORSDOF 4
ENDMDL
MODEL 2
REMARK VINA RESULT:      -8.1      3.755      6.739
REMARK  4 active torsions:
REMARK  status: ('A' for Active; 'I' for Inactive)
REMARK    1  A    between atoms: O_2  and  C_3 
REMARK    2  A    between atoms: C_4  and  C_5 
REMARK    3  A    between atoms: C_9  and  N_10 
REMARK    4  A    between atoms: C_13  and  C_14 
ROOT
HETATM    1  C   UNL     1      27.851  44.269  53.301  1.00  0.00     0.167 C 
HETATM    2  N   UNL     1      27.792  43.026  52.536  1.00  0.00    -0.074 N 
HETATM    3  C   UNL     1      26.632  42.498  52.033  1.00  0.00     0.736 A 
HETATM    4  N   UNL     1      26.924  41.476  51.272  1.00  0.00     0.131 NA
HETATM    5  C   UNL     1      28.285  41.448  51.302  1.00  0.00     0.753 A 
HETATM    6  N   UNL     1      28.869  42.384  52.046  1.00  0.00     0.037 NA
HETATM    7  N   UNL     1      25.430  43.053  52.290  1.00  0.00    -0.214 N 
HETATM    8  C   UNL     1      25.337  44.380  52.885  1.00  0.00     0.135 C 
HETATM    9  C   UNL     1      26.470  44.593  53.904  1.00  0.00     0.063 C 
HETATM   10  H   UNL     1      24.659  42.779  51.687  1.00  0.00     0.178 HD
ENDROOT
BRANCH   1  11
HETATM   11  C   UNL     1      28.923  44.229  54.384  1.00  0.00     0.001 A 
HETATM   12  C   UNL     1      29.267  45.387  55.103  1.00  0.00     0.076 A 
HETATM   13  C   UNL     1      30.231  45.328  56.116  1.00  0.00     0.037 A 
HETATM   14  C   UNL     1      30.883  44.128  56.401  1.00  0.00     0.003 A 
HETATM   15  C   UNL     1      30.569  42.980  55.683  1.00  0.00     0.001 A 
HETATM   16  C   UNL     1      29.598  43.027  54.683  1.00  0.00     0.012 A 
BRANCH  12  17
HETATM   17  O   UNL     1      28.578  46.536  54.809  1.00  0.00    -0.355 OA
HETATM   18  C   UNL     1      27.848  47.087  55.904  1.00  0.00     0.210 C 
ENDBRANCH  12  17
ENDBRANCH   1  11
BRANCH   8  19
HETATM   19  C   UNL     1      25.237  45.500  51.860  1.00  0.00    -0.035 A 
HETATM   20  C   UNL     1      26.064  46.630  52.015  1.00  0.00     0.010 A 
HETATM   21  C   UNL     1      26.030  47.682  51.096  1.00  0.00     0.019 A 
HETATM   22  C   UNL     1      25.171  47.615  50.003  1.00  0.00     0.011 A 
HETATM   23 BR   UNL     1      25.125  49.035  48.757  1.00  0.00    -0.051 Br
HETATM   24  C   UNL     1      24.347  46.509  49.825  1.00  0.00     0.019 A 
HETATM   25  C   UNL     1      24.379  45.459  50.748  1.00  0.00     0.010 A 
ENDBRANCH   8  19
BRANCH   5  26
HETATM   26  N   UNL     1      28.919  40.506  50.609  1.00  0.00    -0.229 N 
HETATM   27  H   UNL     1      29.750  40.118  51.033  1.00  0.00     0.174 HD
HETATM   28  H   UNL     1      28.976  40.648  49.610  1.00  0.00     0.174 HD
ENDBRANCH   5  26
TORSDOF 4
ENDMDL
MODEL 3
REMARK VINA RESULT:      -7.7     16.651     18.654
REMARK  4 active torsions:
REMARK  status: ('A' for Active; 'I' for Inactive)
REMARK    1  A    between atoms: O_2  and  C_3 
REMARK    2  A    between atoms: C_4  and  C_5 
REMARK    3  A    between atoms: C_9  and  N_10 
REMARK    4  A    between atoms: C_13  and  C_14 
ROOT
HETATM    1  C   UNL     1      37.978  45.167  65.018  1.00  0.00     0.167 C 
HETATM    2  N   UNL     1      37.017  44.967  66.099  1.00  0.00    -0.074 N 
HETATM    3  C   UNL     1      35.970  44.086  66.033  1.00  0.00     0.736 A 
HETATM    4  N   UNL     1      35.390  44.023  67.203  1.00  0.00     0.131 NA
HETATM    5  C   UNL     1      36.154  44.850  67.970  1.00  0.00     0.753 A 
HETATM    6  N   UNL     1      37.172  45.440  67.351  1.00  0.00     0.037 NA
HETATM    7  N   UNL     1      35.695  43.394  64.907  1.00  0.00    -0.214 N 
HETATM    8  C   UNL     1      36.653  43.352  63.810  1.00  0.00     0.135 C 
HETATM    9  C   UNL     1      37.378  44.703  63.676  1.00  0.00     0.063 C 
HETATM   10  H   UNL     1      35.088  42.585  65.002  1.00  0.00     0.178 HD
ENDROOT
BRANCH   1  11
HETATM   11  C   UNL     1      38.456  46.612  64.931  1.00  0.00     0.001 A 
HETATM   12  C   UNL     1      39.826  46.923  64.990  1.00  0.00     0.076 A 
HETATM   13  C   UNL     1      40.252  48.252  64.879  1.00  0.00     0.037 A 
HETATM   14  C   UNL     1      39.322  49.282  64.738  1.00  0.00     0.003 A 
HETATM   15  C   UNL     1      37.963  48.990  64.701  1.00  0.00     0.001 A 
HETATM   16  C   UNL     1      37.532  47.667  64.796  1.00  0.00     0.012 A 
BRANCH  12  17
HETATM   17  O   UNL     1      40.705  45.876  65.097  1.00  0.00    -0.355 OA
HETATM   18  C   UNL     1      42.064  46.210  64.824  1.00  0.00     0.210 C 
ENDBRANCH  12  17
ENDBRANCH   1  11
BRANCH   8  19
HETATM   19  C   UNL     1      37.606  42.168  63.881  1.00  0.00    -0.035 A 
HETATM   20  C   UNL     1      38.646  42.083  62.935  1.00  0.00     0.010 A 
HETATM   21  C   UNL     1      39.562  41.029  62.961  1.00  0.00     0.019 A 
HETATM   22  C   UNL     1      39.454  40.045  63.939  1.00  0.00     0.011 A 
HETATM   23 BR   UNL     1      40.694  38.619  63.979  1.00  0.00    -0.051 Br
HETATM   24  C   UNL     1      38.438  40.107  64.887  1.00  0.00     0.019 A 
HETATM   25  C   UNL     1      37.519  41.161  64.858  1.00  0.00     0.010 A 
ENDBRANCH   8  19
BRANCH   5  26
HETATM   26  N   UNL     1      35.830  45.010  69.250  1.00  0.00    -0.229 N 
HETATM   27  H   UNL     1      35.880  45.952  69.611  1.00  0.00     0.174 HD
HETATM   28  H   UNL     1      36.150  44.292  69.886  1.00  0.00     0.174 HD
ENDBRANCH   5  26
TORSDOF 4
ENDMDL
MODEL 4
REMARK VINA RESULT:      -7.6      1.039      2.070
REMARK  4 active torsions:
REMARK  status: ('A' for Active; 'I' for Inactive)
REMARK    1  A    between atoms: O_2  and  C_3 
REMARK    2  A    between atoms: C_4  and  C_5 
REMARK    3  A    between atoms: C_9  and  N_10 
REMARK    4  A    between atoms: C_13  and  C_14 
ROOT
HETATM    1  C   UNL     1      26.340  44.276  51.036  1.00  0.00     0.167 C 
HETATM    2  N   UNL     1      26.307  45.689  50.669  1.00  0.00    -0.074 N 
HETATM    3  C   UNL     1      26.022  46.698  51.551  1.00  0.00     0.736 A 
HETATM    4  N   UNL     1      26.222  47.848  50.964  1.00  0.00     0.131 NA
HETATM    5  C   UNL     1      26.681  47.489  49.732  1.00  0.00     0.753 A 
HETATM    6  N   UNL     1      26.769  46.182  49.504  1.00  0.00     0.037 NA
HETATM    7  N   UNL     1      25.655  46.444  52.824  1.00  0.00    -0.214 N 
HETATM    8  C   UNL     1      25.807  45.109  53.388  1.00  0.00     0.135 C 
HETATM    9  C   UNL     1      25.521  44.038  52.320  1.00  0.00     0.063 C 
HETATM   10  H   UNL     1      25.714  47.216  53.482  1.00  0.00     0.178 HD
ENDROOT
BRANCH   1  11
HETATM   11  C   UNL     1      25.856  43.375  49.906  1.00  0.00     0.001 A 
HETATM   12  C   UNL     1      24.547  43.488  49.404  1.00  0.00     0.076 A 
HETATM   13  C   UNL     1      24.127  42.675  48.344  1.00  0.00     0.037 A 
HETATM   14  C   UNL     1      24.990  41.725  47.797  1.00  0.00     0.003 A 
HETATM   15  C   UNL     1      26.279  41.588  48.299  1.00  0.00     0.001 A 
HETATM   16  C   UNL     1      26.711  42.405  49.344  1.00  0.00     0.012 A 
BRANCH  12  17
HETATM   17  O   UNL     1      23.745  44.456  49.951  1.00  0.00    -0.355 OA
HETATM   18  C   UNL     1      23.180  45.363  49.007  1.00  0.00     0.210 C 
ENDBRANCH  12  17
ENDBRANCH   1  11
BRANCH   8  19
HETATM   19  C   UNL     1      27.134  44.899  54.103  1.00  0.00    -0.035 A 
HETATM   20  C   UNL     1      27.746  43.632  54.029  1.00  0.00     0.010 A 
HETATM   21  C   UNL     1      28.973  43.386  54.650  1.00  0.00     0.019 A 
HETATM   22  C   UNL     1      29.609  44.406  55.350  1.00  0.00     0.011 A 
HETATM   23 BR   UNL     1      31.270  44.075  56.189  1.00  0.00    -0.051 Br
HETATM   24  C   UNL     1      29.028  45.667  55.436  1.00  0.00     0.019 A 
HETATM   25  C   UNL     1      27.798  45.912  54.817  1.00  0.00     0.010 A 
ENDBRANCH   8  19
BRANCH   5  26
HETATM   26  N   UNL     1      26.992  48.448  48.864  1.00  0.00    -0.229 N 
HETATM   27  H   UNL     1      27.644  48.198  48.134  1.00  0.00     0.174 HD
HETATM   28  H   UNL     1      27.115  49.376  49.247  1.00  0.00     0.174 HD
ENDBRANCH   5  26
TORSDOF 4
ENDMDL
MODEL 5
REMARK VINA RESULT:      -7.2      6.397      8.345
REMARK  4 active torsions:
REMARK  status: ('A' for Active; 'I' for Inactive)
REMARK    1  A    between atoms: O_2  and  C_3 
REMARK    2  A    between atoms: C_4  and  C_5 
REMARK    3  A    between atoms: C_9  and  N_10 
REMARK    4  A    between atoms: C_13  and  C_14 
ROOT
HETATM    1  C   UNL     1      20.813  48.507  48.860  1.00  0.00     0.167 C 
HETATM    2  N   UNL     1      19.995  47.398  48.375  1.00  0.00    -0.074 N 
HETATM    3  C   UNL     1      20.497  46.331  47.679  1.00  0.00     0.736 A 
HETATM    4  N   UNL     1      19.553  45.440  47.522  1.00  0.00     0.131 NA
HETATM    5  C   UNL     1      18.499  45.990  48.188  1.00  0.00     0.753 A 
HETATM    6  N   UNL     1      18.718  47.178  48.743  1.00  0.00     0.037 NA
HETATM    7  N   UNL     1      21.793  46.272  47.307  1.00  0.00    -0.214 N 
HETATM    8  C   UNL     1      22.766  47.206  47.859  1.00  0.00     0.135 C 
HETATM    9  C   UNL     1      22.128  48.592  48.060  1.00  0.00     0.063 C 
HETATM   10  H   UNL     1      22.152  45.361  47.035  1.00  0.00     0.178 HD
ENDROOT
BRANCH   1  11
HETATM   11  C   UNL     1      20.065  49.835  48.823  1.00  0.00     0.001 A 
HETATM   12  C   UNL     1      19.497  50.375  49.990  1.00  0.00     0.076 A 
HETATM   13  C   UNL     1      18.839  51.610  49.947  1.00  0.00     0.037 A 
HETATM   14  C   UNL     1      18.714  52.302  48.743  1.00  0.00     0.003 A 
HETATM   15  C   UNL     1      19.253  51.768  47.576  1.00  0.00     0.001 A 
HETATM   16  C   UNL     1      19.923  50.546  47.615  1.00  0.00     0.012 A 
BRANCH  12  17
HETATM   17  O   UNL     1      19.671  49.675  51.157  1.00  0.00    -0.355 OA
HETATM   18  C   UNL     1      18.553  48.880  51.545  1.00  0.00     0.210 C 
ENDBRANCH  12  17
ENDBRANCH   1  11
BRANCH   8  19
HETATM   19  C   UNL     1      23.468  46.686  49.105  1.00  0.00    -0.035 A 
HETATM   20  C   UNL     1      23.392  45.309  49.394  1.00  0.00     0.010 A 
HETATM   21  C   UNL     1      24.031  44.771  50.513  1.00  0.00     0.019 A 
HETATM   22  C   UNL     1      24.761  45.601  51.358  1.00  0.00     0.011 A 
HETATM   23 BR   UNL     1      25.628  44.875  52.872  1.00  0.00    -0.051 Br
HETATM   24  C   UNL     1      24.853  46.964  51.093  1.00  0.00     0.019 A 
HETATM   25  C   UNL     1      24.211  47.503  49.974  1.00  0.00     0.010 A 
ENDBRANCH   8  19
BRANCH   5  26
HETATM   26  N   UNL     1      17.351  45.319  48.228  1.00  0.00    -0.229 N 
HETATM   27  H   UNL     1      17.184  44.761  49.053  1.00  0.00     0.174 HD
HETATM   28  H   UNL     1      17.049  44.897  47.360  1.00  0.00     0.174 HD
ENDBRANCH   5  26
TORSDOF 4
ENDMDL
MODEL 6
REMARK VINA RESULT:      -7.2      3.786      6.456
REMARK  4 active torsions:
REMARK  status: ('A' for Active; 'I' for Inactive)
REMARK    1  A    between atoms: O_2  and  C_3 
REMARK    2  A    between atoms: C_4  and  C_5 
REMARK    3  A    between atoms: C_9  and  N_10 
REMARK    4  A    between atoms: C_13  and  C_14 
ROOT
HETATM    1  C   UNL     1      26.816  43.061  50.602  1.00  0.00     0.167 C 
HETATM    2  N   UNL     1      27.728  42.684  51.678  1.00  0.00    -0.074 N 
HETATM    3  C   UNL     1      27.755  41.441  52.253  1.00  0.00     0.736 A 
HETATM    4  N   UNL     1      28.774  41.369  53.069  1.00  0.00     0.131 NA
HETATM    5  C   UNL     1      29.372  42.584  52.921  1.00  0.00     0.753 A 
HETATM    6  N   UNL     1      28.786  43.421  52.070  1.00  0.00     0.037 NA
HETATM    7  N   UNL     1      26.862  40.486  51.919  1.00  0.00    -0.214 N 
HETATM    8  C   UNL     1      26.007  40.646  50.750  1.00  0.00     0.135 C 
HETATM    9  C   UNL     1      25.596  42.119  50.582  1.00  0.00     0.063 C 
HETATM   10  H   UNL     1      27.093  39.531  52.178  1.00  0.00     0.178 HD
ENDROOT
BRANCH   1  11
HETATM   11  C   UNL     1      26.379  44.518  50.700  1.00  0.00     0.001 A 
HETATM   12  C   UNL     1      25.513  44.945  51.722  1.00  0.00     0.076 A 
HETATM   13  C   UNL     1      25.146  46.292  51.817  1.00  0.00     0.037 A 
HETATM   14  C   UNL     1      25.609  47.218  50.883  1.00  0.00     0.003 A 
HETATM   15  C   UNL     1      26.448  46.806  49.854  1.00  0.00     0.001 A 
HETATM   16  C   UNL     1      26.831  45.468  49.761  1.00  0.00     0.012 A 
BRANCH  12  17
HETATM   17  O   UNL     1      25.108  44.006  52.635  1.00  0.00    -0.355 OA
HETATM   18  C   UNL     1      25.386  44.340  53.994  1.00  0.00     0.210 C 
ENDBRANCH  12  17
ENDBRANCH   1  11
BRANCH   8  19
HETATM   19  C   UNL     1      26.592  40.040  49.483  1.00  0.00    -0.035 A 
HETATM   20  C   UNL     1      25.862  40.153  48.283  1.00  0.00     0.010 A 
HETATM   21  C   UNL     1      26.357  39.633  47.085  1.00  0.00     0.019 A 
HETATM   22  C   UNL     1      27.594  38.996  47.068  1.00  0.00     0.011 A 
HETATM   23 BR   UNL     1      28.267  38.293  45.448  1.00  0.00    -0.051 Br
HETATM   24  C   UNL     1      28.336  38.873  48.239  1.00  0.00     0.019 A 
HETATM   25  C   UNL     1      27.838  39.392  49.438  1.00  0.00     0.010 A 
ENDBRANCH   8  19
BRANCH   5  26
HETATM   26  N   UNL     1      30.470  42.843  53.626  1.00  0.00    -0.229 N 
HETATM   27  H   UNL     1      30.934  43.719  53.430  1.00  0.00     0.174 HD
HETATM   28  H   UNL     1      31.089  42.061  53.795  1.00  0.00     0.174 HD
ENDBRANCH   5  26
TORSDOF 4
ENDMDL
MODEL 7
REMARK VINA RESULT:      -7.2     10.618     12.590
REMARK  4 active torsions:
REMARK  status: ('A' for Active; 'I' for Inactive)
REMARK    1  A    between atoms: O_2  and  C_3 
REMARK    2  A    between atoms: C_4  and  C_5 
REMARK    3  A    between atoms: C_9  and  N_10 
REMARK    4  A    between atoms: C_13  and  C_14 
ROOT
HETATM    1  C   UNL     1      17.451  49.668  48.062  1.00  0.00     0.167 C 
HETATM    2  N   UNL     1      18.074  49.427  49.361  1.00  0.00    -0.074 N 
HETATM    3  C   UNL     1      18.627  50.413  50.134  1.00  0.00     0.736 A 
HETATM    4  N   UNL     1      18.960  49.911  51.294  1.00  0.00     0.131 NA
HETATM    5  C   UNL     1      18.543  48.617  51.200  1.00  0.00     0.753 A 
HETATM    6  N   UNL     1      17.979  48.271  50.047  1.00  0.00     0.037 NA
HETATM    7  N   UNL     1      18.716  51.688  49.701  1.00  0.00    -0.214 N 
HETATM    8  C   UNL     1      17.991  52.120  48.513  1.00  0.00     0.135 C 
HETATM    9  C   UNL     1      17.958  50.995  47.464  1.00  0.00     0.063 C 
HETATM   10  H   UNL     1      18.888  52.401  50.405  1.00  0.00     0.178 HD
ENDROOT
BRANCH   1  11
HETATM   11  C   UNL     1      17.672  48.513  47.093  1.00  0.00     0.001 A 
HETATM   12  C   UNL     1      16.607  47.677  46.712  1.00  0.00     0.076 A 
HETATM   13  C   UNL     1      16.819  46.639  45.797  1.00  0.00     0.037 A 
HETATM   14  C   UNL     1      18.092  46.404  45.278  1.00  0.00     0.003 A 
HETATM   15  C   UNL     1      19.158  47.209  45.663  1.00  0.00     0.001 A 
HETATM   16  C   UNL     1      18.952  48.255  46.562  1.00  0.00     0.012 A 
BRANCH  12  17
HETATM   17  O   UNL     1      15.368  47.965  47.224  1.00  0.00    -0.355 OA
HETATM   18  C   UNL     1      14.431  48.459  46.269  1.00  0.00     0.210 C 
ENDBRANCH  12  17
ENDBRANCH   1  11
BRANCH   8  19
HETATM   19  C   UNL     1      16.615  52.694  48.817  1.00  0.00    -0.035 A 
HETATM   20  C   UNL     1      16.319  53.067  50.143  1.00  0.00     0.010 A 
HETATM   21  C   UNL     1      15.080  53.616  50.480  1.00  0.00     0.019 A 
HETATM   22  C   UNL     1      14.118  53.805  49.492  1.00  0.00     0.011 A 
HETATM   23 BR   UNL     1      12.441  54.550  49.944  1.00  0.00    -0.051 Br
HETATM   24  C   UNL     1      14.386  53.448  48.175  1.00  0.00     0.019 A 
HETATM   25  C   UNL     1      15.626  52.896  47.840  1.00  0.00     0.010 A 
ENDBRANCH   8  19
BRANCH   5  26
HETATM   26  N   UNL     1      18.732  47.809  52.240  1.00  0.00    -0.229 N 
HETATM   27  H   UNL     1      17.931  47.275  52.545  1.00  0.00     0.174 HD
HETATM   28  H   UNL     1      19.315  48.168  52.985  1.00  0.00     0.174 HD
ENDBRANCH   5  26
TORSDOF 4
ENDMDL
MODEL 8
REMARK VINA RESULT:      -7.1     11.763     13.022
REMARK  4 active torsions:
REMARK  status: ('A' for Active; 'I' for Inactive)
REMARK    1  A    between atoms: O_2  and  C_3 
REMARK    2  A    between atoms: C_4  and  C_5 
REMARK    3  A    between atoms: C_9  and  N_10 
REMARK    4  A    between atoms: C_13  and  C_14 
ROOT
HETATM    1  C   UNL     1      31.322  49.678  41.309  1.00  0.00     0.167 C 
HETATM    2  N   UNL     1      30.692  50.959  41.001  1.00  0.00    -0.074 N 
HETATM    3  C   UNL     1      30.781  52.063  41.808  1.00  0.00     0.736 A 
HETATM    4  N   UNL     1      30.249  53.086  41.191  1.00  0.00     0.131 NA
HETATM    5  C   UNL     1      29.892  52.566  39.984  1.00  0.00     0.753 A 
HETATM    6  N   UNL     1      30.155  51.275  39.807  1.00  0.00     0.037 NA
HETATM    7  N   UNL     1      31.392  52.017  43.009  1.00  0.00    -0.214 N 
HETATM    8  C   UNL     1      32.214  50.871  43.380  1.00  0.00     0.135 C 
HETATM    9  C   UNL     1      31.609  49.572  42.820  1.00  0.00     0.063 C 
HETATM   10  H   UNL     1      31.650  52.906  43.428  1.00  0.00     0.178 HD
ENDROOT
BRANCH   1  11
HETATM   11  C   UNL     1      30.490  48.496  40.827  1.00  0.00     0.001 A 
HETATM   12  C   UNL     1      29.173  48.307  41.283  1.00  0.00     0.076 A 
HETATM   13  C   UNL     1      28.410  47.234  40.808  1.00  0.00     0.037 A 
HETATM   14  C   UNL     1      28.957  46.325  39.902  1.00  0.00     0.003 A 
HETATM   15  C   UNL     1      30.265  46.487  39.460  1.00  0.00     0.001 A 
HETATM   16  C   UNL     1      31.026  47.563  39.916  1.00  0.00     0.012 A 
BRANCH  12  17
HETATM   17  O   UNL     1      28.668  49.243  42.149  1.00  0.00    -0.355 OA
HETATM   18  C   UNL     1      27.547  49.969  41.650  1.00  0.00     0.210 C 
ENDBRANCH  12  17
ENDBRANCH   1  11
BRANCH   8  19
HETATM   19  C   UNL     1      33.686  51.043  43.034  1.00  0.00    -0.035 A 
HETATM   20  C   UNL     1      34.445  51.977  43.767  1.00  0.00     0.010 A 
HETATM   21  C   UNL     1      35.804  52.165  43.507  1.00  0.00     0.019 A 
HETATM   22  C   UNL     1      36.427  51.418  42.512  1.00  0.00     0.011 A 
HETATM   23 BR   UNL     1      38.266  51.669  42.160  1.00  0.00    -0.051 Br
HETATM   24  C   UNL     1      35.700  50.487  41.776  1.00  0.00     0.019 A 
HETATM   25  C   UNL     1      34.339  50.302  42.035  1.00  0.00     0.010 A 
ENDBRANCH   8  19
BRANCH   5  26
HETATM   26  N   UNL     1      29.313  53.365  39.092  1.00  0.00    -0.229 N 
HETATM   27  H   UNL     1      28.488  53.861  39.401  1.00  0.00     0.174 HD
HETATM   28  H   UNL     1      29.272  53.021  38.142  1.00  0.00     0.174 HD
ENDBRANCH   5  26
TORSDOF 4
ENDMDL
MODEL 9
REMARK VINA RESULT:      -6.9      3.735      6.500
REMARK  4 active torsions:
REMARK  status: ('A' for Active; 'I' for Inactive)
REMARK    1  A    between atoms: O_2  and  C_3 
REMARK    2  A    between atoms: C_4  and  C_5 
REMARK    3  A    between atoms: C_9  and  N_10 
REMARK    4  A    between atoms: C_13  and  C_14 
ROOT
HETATM    1  C   UNL     1      26.765  43.470  51.205  1.00  0.00     0.167 C 
HETATM    2  N   UNL     1      27.814  42.837  52.000  1.00  0.00    -0.074 N 
HETATM    3  C   UNL     1      27.939  41.481  52.153  1.00  0.00     0.736 A 
HETATM    4  N   UNL     1      29.054  41.224  52.785  1.00  0.00     0.131 NA
HETATM    5  C   UNL     1      29.604  42.458  52.954  1.00  0.00     0.753 A 
HETATM    6  N   UNL     1      28.897  43.479  52.478  1.00  0.00     0.037 NA
HETATM    7  N   UNL     1      27.031  40.623  51.644  1.00  0.00    -0.214 N 
HETATM    8  C   UNL     1      26.032  41.082  50.687  1.00  0.00     0.135 C 
HETATM    9  C   UNL     1      25.572  42.509  51.032  1.00  0.00     0.063 C 
HETATM   10  H   UNL     1      27.313  39.651  51.564  1.00  0.00     0.178 HD
ENDROOT
BRANCH   1  11
HETATM   11  C   UNL     1      26.314  44.799  51.800  1.00  0.00     0.001 A 
HETATM   12  C   UNL     1      25.883  45.851  50.972  1.00  0.00     0.076 A 
HETATM   13  C   UNL     1      25.442  47.055  51.534  1.00  0.00     0.037 A 
HETATM   14  C   UNL     1      25.455  47.235  52.917  1.00  0.00     0.003 A 
HETATM   15  C   UNL     1      25.900  46.211  53.746  1.00  0.00     0.001 A 
HETATM   16  C   UNL     1      26.326  45.003  53.195  1.00  0.00     0.012 A 
BRANCH  12  17
HETATM   17  O   UNL     1      25.858  45.617  49.621  1.00  0.00    -0.355 OA
HETATM   18  C   UNL     1      24.551  45.494  49.063  1.00  0.00     0.210 C 
ENDBRANCH  12  17
ENDBRANCH   1  11
BRANCH   8  19
HETATM   19  C   UNL     1      26.465  40.929  49.236  1.00  0.00    -0.035 A 
HETATM   20  C   UNL     1      25.475  40.944  48.233  1.00  0.00     0.010 A 
HETATM   21  C   UNL     1      25.814  40.825  46.884  1.00  0.00     0.019 A 
HETATM   22  C   UNL     1      27.150  40.694  46.516  1.00  0.00     0.011 A 
HETATM   23 BR   UNL     1      27.611  40.536  44.690  1.00  0.00    -0.051 Br
HETATM   24  C   UNL     1      28.146  40.679  47.486  1.00  0.00     0.019 A 
HETATM   25  C   UNL     1      27.806  40.795  48.838  1.00  0.00     0.010 A 
ENDBRANCH   8  19
BRANCH   5  26
HETATM   26  N   UNL     1      30.777  42.554  53.575  1.00  0.00    -0.229 N 
HETATM   27  H   UNL     1      31.217  43.463  53.568  1.00  0.00     0.174 HD
HETATM   28  H   UNL     1      31.409  41.773  53.460  1.00  0.00     0.174 HD
ENDBRANCH   5  26
TORSDOF 4
ENDMDL
MODEL 10
REMARK VINA RESULT:      -6.8      6.428      8.299
REMARK  4 active torsions:
REMARK  status: ('A' for Active; 'I' for Inactive)
REMARK    1  A    between atoms: O_2  and  C_3 
REMARK    2  A    between atoms: C_4  and  C_5 
REMARK    3  A    between atoms: C_9  and  N_10 
REMARK    4  A    between atoms: C_13  and  C_14 
ROOT
HETATM    1  C   UNL     1      20.829  48.420  48.896  1.00  0.00     0.167 C 
HETATM    2  N   UNL     1      19.966  47.338  48.427  1.00  0.00    -0.074 N 
HETATM    3  C   UNL     1      20.419  46.256  47.720  1.00  0.00     0.736 A 
HETATM    4  N   UNL     1      19.444  45.396  47.583  1.00  0.00     0.131 NA
HETATM    5  C   UNL     1      18.422  45.978  48.271  1.00  0.00     0.753 A 
HETATM    6  N   UNL     1      18.691  47.158  48.823  1.00  0.00     0.037 NA
HETATM    7  N   UNL     1      21.704  46.157  47.321  1.00  0.00    -0.214 N 
HETATM    8  C   UNL     1      22.718  47.059  47.852  1.00  0.00     0.135 C 
HETATM    9  C   UNL     1      22.128  48.464  48.067  1.00  0.00     0.063 C 
HETATM   10  H   UNL     1      22.028  45.236  47.040  1.00  0.00     0.178 HD
ENDROOT
BRANCH   1  11
HETATM   11  C   UNL     1      20.122  49.770  48.876  1.00  0.00     0.001 A 
HETATM   12  C   UNL     1      19.601  50.294  47.680  1.00  0.00     0.076 A 
HETATM   13  C   UNL     1      18.927  51.521  47.682  1.00  0.00     0.037 A 
HETATM   14  C   UNL     1      18.794  52.251  48.864  1.00  0.00     0.003 A 
HETATM   15  C   UNL     1      19.324  51.755  50.050  1.00  0.00     0.001 A 
HETATM   16  C   UNL     1      19.983  50.526  50.058  1.00  0.00     0.012 A 
BRANCH  12  17
HETATM   17  O   UNL     1      19.728  49.528  46.550  1.00  0.00    -0.355 OA
HETATM   18  C   UNL     1      18.515  49.327  45.828  1.00  0.00     0.210 C 
ENDBRANCH  12  17
ENDBRANCH   1  11
BRANCH   8  19
HETATM   19  C   UNL     1      23.430  46.515  49.082  1.00  0.00    -0.035 A 
HETATM   20  C   UNL     1      24.177  47.407  49.877  1.00  0.00     0.010 A 
HETATM   21  C   UNL     1      24.836  46.969  51.028  1.00  0.00     0.019 A 
HETATM   22  C   UNL     1      24.755  45.632  51.404  1.00  0.00     0.011 A 
HETATM   23 BR   UNL     1      25.644  45.038  52.961  1.00  0.00    -0.051 Br
HETATM   24  C   UNL     1      24.021  44.732  50.638  1.00  0.00     0.019 A 
HETATM   25  C   UNL     1      23.364  45.170  49.484  1.00  0.00     0.010 A 
ENDBRANCH   8  19
BRANCH   5  26
HETATM   26  N   UNL     1      17.255  45.344  48.335  1.00  0.00    -0.229 N 
HETATM   27  H   UNL     1      16.835  45.084  47.454  1.00  0.00     0.174 HD
HETATM   28  H   UNL     1      16.605  45.672  49.037  1.00  0.00     0.174 HD
ENDBRANCH   5  26
TORSDOF 4
ENDMDL
