MODEL 1
REMARK VINA RESULT:      -9.7      0.000      0.000
REMARK  6 active torsions:
REMARK  status: ('A' for Active; 'I' for Inactive)
REMARK    1  A    between atoms: C_3  and  C_4 
REMARK       I    between atoms: C_4  and  N_5 
REMARK    2  A    between atoms: N_5  and  C_6 
REMARK    3  A    between atoms: C_6  and  C_7 
REMARK    4  A    between atoms: C_6  and  C_22 
REMARK       I    between atoms: C_7  and  N_8 
REMARK    5  A    between atoms: N_8  and  C_9 
REMARK    6  A    between atoms: C_11  and  C_12 
ROOT
HETATM    1  C   UNL     1      25.627  44.164  52.440  1.00  0.00     0.245 C 
HETATM    2  N   UNL     1      26.970  44.139  52.115  1.00  0.00    -0.325 N 
HETATM    3  O   UNL     1      25.170  43.773  53.512  1.00  0.00    -0.271 OA
HETATM    4  H   UNL     1      27.207  44.460  51.177  1.00  0.00     0.169 HD
ENDROOT
BRANCH   1   5
HETATM    5  C   UNL     1      24.740  44.921  51.393  1.00  0.00     0.180 C 
BRANCH   5   6
HETATM    6  N   UNL     1      25.424  45.932  50.558  1.00  0.00    -0.343 N 
HETATM    7  C   UNL     1      25.566  47.242  50.951  1.00  0.00     0.252 C 
HETATM    8  O   UNL     1      25.593  47.603  52.120  1.00  0.00    -0.268 OA
HETATM    9  H   UNL     1      25.443  45.762  49.559  1.00  0.00     0.163 HD
BRANCH   7  10
HETATM   10  C   UNL     1      25.716  48.226  49.861  1.00  0.00     0.037 A 
HETATM   11  C   UNL     1      24.598  48.723  49.167  1.00  0.00    -0.046 A 
HETATM   12  C   UNL     1      23.194  48.281  49.470  1.00  0.00     0.049 C 
HETATM   13  C   UNL     1      24.814  49.660  48.145  1.00  0.00     0.007 A 
HETATM   14  C   UNL     1      26.102  50.112  47.852  1.00  0.00     0.001 A 
HETATM   15  C   UNL     1      27.197  49.632  48.570  1.00  0.00     0.001 A 
HETATM   16  C   UNL     1      27.007  48.689  49.578  1.00  0.00     0.017 A 
ENDBRANCH   7  10
ENDBRANCH   5   6
BRANCH   5  17
HETATM   17  C   UNL     1      23.915  43.984  50.466  1.00  0.00     0.009 C 
HETATM   18  C   UNL     1      23.693  44.558  49.062  1.00  0.00     0.012 C 
HETATM   19  C   UNL     1      24.481  42.565  50.389  1.00  0.00     0.012 C 
ENDBRANCH   5  17
ENDBRANCH   1   5
BRANCH   2  20
HETATM   20  C   UNL     1      28.066  43.834  52.945  1.00  0.00     0.035 A 
HETATM   21  C   UNL     1      28.289  44.429  54.191  1.00  0.00     0.042 A 
HETATM   22  C   UNL     1      29.456  44.157  54.925  1.00  0.00    -0.021 A 
HETATM   23  C   UNL     1      30.375  43.233  54.409  1.00  0.00     0.012 A 
HETATM   24  C   UNL     1      30.152  42.623  53.175  1.00  0.00     0.003 A 
HETATM   25  C   UNL     1      29.012  42.937  52.439  1.00  0.00     0.029 A 
BRANCH  22  26
HETATM   26  C   UNL     1      29.747  44.857  56.170  1.00  0.00     0.010 A 
HETATM   27  C   UNL     1      30.812  44.699  57.092  1.00  0.00     0.152 A 
HETATM   28  N   UNL     1      30.753  45.558  58.113  1.00  0.00    -0.187 NA
HETATM   29  N   UNL     1      29.652  46.279  57.847  1.00  0.00    -0.289 N 
HETATM   30  H   UNL     1      29.398  47.022  58.489  1.00  0.00     0.188 HD
HETATM   31  C   UNL     1      29.015  45.897  56.704  1.00  0.00     0.123 A 
ENDBRANCH  22  26
ENDBRANCH   2  20
TORSDOF 6
ENDMDL
MODEL 2
REMARK VINA RESULT:      -9.3      1.219      2.155
REMARK  6 active torsions:
REMARK  status: ('A' for Active; 'I' for Inactive)
REMARK    1  A    between atoms: C_3  and  C_4 
REMARK       I    between atoms: C_4  and  N_5 
REMARK    2  A    between atoms: N_5  and  C_6 
REMARK    3  A    between atoms: C_6  and  C_7 
REMARK    4  A    between atoms: C_6  and  C_22 
REMARK       I    between atoms: C_7  and  N_8 
REMARK    5  A    between atoms: N_8  and  C_9 
REMARK    6  A    between atoms: C_11  and  C_12 
ROOT
HETATM    1  C   UNL     1      26.767  44.782  50.866  1.00  0.00     0.245 C 
HETATM    2  N   UNL     1      26.927  44.671  52.234  1.00  0.00    -0.325 N 
HETATM    3  O   UNL     1      27.651  44.537  50.047  1.00  0.00    -0.271 OA
HETATM    4  H   UNL     1      26.123  44.941  52.800  1.00  0.00     0.169 HD
ENDROOT
BRANCH   1   5
HETATM    5  C   UNL     1      25.290  45.063  50.426  1.00  0.00     0.180 C 
BRANCH   5   6
HETATM    6  N   UNL     1      25.072  46.246  49.564  1.00  0.00    -0.343 N 
HETATM    7  C   UNL     1      25.023  47.525  50.065  1.00  0.00     0.252 C 
HETATM    8  O   UNL     1      25.586  47.877  51.093  1.00  0.00    -0.268 OA
HETATM    9  H   UNL     1      24.585  46.089  48.690  1.00  0.00     0.163 HD
BRANCH   7  10
HETATM   10  C   UNL     1      24.255  48.498  49.263  1.00  0.00     0.037 A 
HETATM   11  C   UNL     1      24.901  49.509  48.529  1.00  0.00    -0.046 A 
HETATM   12  C   UNL     1      26.394  49.679  48.524  1.00  0.00     0.049 C 
HETATM   13  C   UNL     1      24.109  50.396  47.783  1.00  0.00     0.007 A 
HETATM   14  C   UNL     1      22.721  50.254  47.744  1.00  0.00     0.001 A 
HETATM   15  C   UNL     1      22.099  49.227  48.453  1.00  0.00     0.001 A 
HETATM   16  C   UNL     1      22.865  48.344  49.213  1.00  0.00     0.017 A 
ENDBRANCH   7  10
ENDBRANCH   5   6
BRANCH   5  17
HETATM   17  C   UNL     1      24.577  43.839  49.781  1.00  0.00     0.009 C 
HETATM   18  C   UNL     1      24.478  42.630  50.716  1.00  0.00     0.012 C 
HETATM   19  C   UNL     1      23.207  44.185  49.192  1.00  0.00     0.012 C 
ENDBRANCH   5  17
ENDBRANCH   1   5
BRANCH   2  20
HETATM   20  C   UNL     1      28.013  44.129  52.947  1.00  0.00     0.035 A 
HETATM   21  C   UNL     1      28.433  44.592  54.198  1.00  0.00     0.042 A 
HETATM   22  C   UNL     1      29.589  44.078  54.812  1.00  0.00    -0.021 A 
HETATM   23  C   UNL     1      30.289  43.048  54.169  1.00  0.00     0.012 A 
HETATM   24  C   UNL     1      29.867  42.568  52.928  1.00  0.00     0.003 A 
HETATM   25  C   UNL     1      28.745  43.120  52.314  1.00  0.00     0.029 A 
BRANCH  22  26
HETATM   26  C   UNL     1      30.094  44.633  56.061  1.00  0.00     0.010 A 
HETATM   27  C   UNL     1      29.745  45.819  56.753  1.00  0.00     0.152 A 
HETATM   28  N   UNL     1      30.416  45.974  57.898  1.00  0.00    -0.187 NA
HETATM   29  N   UNL     1      31.194  44.882  57.950  1.00  0.00    -0.289 N 
HETATM   30  H   UNL     1      31.802  44.763  58.754  1.00  0.00     0.188 HD
HETATM   31  C   UNL     1      31.044  44.054  56.877  1.00  0.00     0.123 A 
ENDBRANCH  22  26
ENDBRANCH   2  20
TORSDOF 6
ENDMDL
MODEL 3
REMARK VINA RESULT:      -9.1      3.774      7.375
REMARK  6 active torsions:
REMARK  status: ('A' for Active; 'I' for Inactive)
REMARK    1  A    between atoms: C_3  and  C_4 
REMARK       I    between atoms: C_4  and  N_5 
REMARK    2  A    between atoms: N_5  and  C_6 
REMARK    3  A    between atoms: C_6  and  C_7 
REMARK    4  A    between atoms: C_6  and  C_22 
REMARK       I    between atoms: C_7  and  N_8 
REMARK    5  A    between atoms: N_8  and  C_9 
REMARK    6  A    between atoms: C_11  and  C_12 
ROOT
HETATM    1  C   UNL     1      25.998  43.119  50.806  1.00  0.00     0.245 C 
HETATM    2  N   UNL     1      27.220  42.670  50.344  1.00  0.00    -0.325 N 
HETATM    3  O   UNL     1      24.924  42.572  50.559  1.00  0.00    -0.271 OA
HETATM    4  H   UNL     1      28.027  43.241  50.594  1.00  0.00     0.169 HD
ENDROOT
BRANCH   1   5
HETATM    5  C   UNL     1      26.107  44.286  51.846  1.00  0.00     0.180 C 
BRANCH   5   6
HETATM    6  N   UNL     1      27.367  44.366  52.617  1.00  0.00    -0.343 N 
HETATM    7  C   UNL     1      27.528  43.746  53.834  1.00  0.00     0.252 C 
HETATM    8  O   UNL     1      26.911  42.746  54.177  1.00  0.00    -0.268 OA
HETATM    9  H   UNL     1      27.958  45.171  52.445  1.00  0.00     0.163 HD
BRANCH   7  10
HETATM   10  C   UNL     1      28.536  44.346  54.730  1.00  0.00     0.037 A 
HETATM   11  C   UNL     1      29.852  43.852  54.784  1.00  0.00    -0.046 A 
HETATM   12  C   UNL     1      30.312  42.683  53.959  1.00  0.00     0.049 C 
HETATM   13  C   UNL     1      30.760  44.474  55.654  1.00  0.00     0.007 A 
HETATM   14  C   UNL     1      30.374  45.577  56.418  1.00  0.00     0.001 A 
HETATM   15  C   UNL     1      29.074  46.074  56.330  1.00  0.00     0.001 A 
HETATM   16  C   UNL     1      28.152  45.461  55.484  1.00  0.00     0.017 A 
ENDBRANCH   7  10
ENDBRANCH   5   6
BRANCH   5  17
HETATM   17  C   UNL     1      25.794  45.691  51.257  1.00  0.00     0.009 C 
HETATM   18  C   UNL     1      26.018  46.833  52.253  1.00  0.00     0.012 C 
HETATM   19  C   UNL     1      26.526  45.967  49.941  1.00  0.00     0.012 C 
ENDBRANCH   5  17
ENDBRANCH   1   5
BRANCH   2  20
HETATM   20  C   UNL     1      27.513  41.471  49.667  1.00  0.00     0.035 A 
HETATM   21  C   UNL     1      27.872  40.282  50.309  1.00  0.00     0.042 A 
HETATM   22  C   UNL     1      28.253  39.146  49.572  1.00  0.00    -0.021 A 
HETATM   23  C   UNL     1      28.217  39.210  48.172  1.00  0.00     0.012 A 
HETATM   24  C   UNL     1      27.845  40.388  47.524  1.00  0.00     0.003 A 
HETATM   25  C   UNL     1      27.513  41.518  48.270  1.00  0.00     0.029 A 
BRANCH  22  26
HETATM   26  C   UNL     1      28.734  37.940  50.234  1.00  0.00     0.010 A 
HETATM   27  C   UNL     1      29.935  37.692  50.943  1.00  0.00     0.152 A 
HETATM   28  N   UNL     1      30.004  36.454  51.440  1.00  0.00    -0.187 NA
HETATM   29  N   UNL     1      28.841  35.903  51.058  1.00  0.00    -0.289 N 
HETATM   30  H   UNL     1      28.650  34.945  51.334  1.00  0.00     0.188 HD
HETATM   31  C   UNL     1      28.051  36.745  50.333  1.00  0.00     0.123 A 
ENDBRANCH  22  26
ENDBRANCH   2  20
TORSDOF 6
ENDMDL
MODEL 4
REMARK VINA RESULT:      -8.9      2.118      8.199
REMARK  6 active torsions:
REMARK  status: ('A' for Active; 'I' for Inactive)
REMARK    1  A    between atoms: C_3  and  C_4 
REMARK       I    between atoms: C_4  and  N_5 
REMARK    2  A    between atoms: N_5  and  C_6 
REMARK    3  A    between atoms: C_6  and  C_7 
REMARK    4  A    between atoms: C_6  and  C_22 
REMARK       I    between atoms: C_7  and  N_8 
REMARK    5  A    between atoms: N_8  and  C_9 
REMARK    6  A    between atoms: C_11  and  C_12 
ROOT
HETATM    1  C   UNL     1      26.321  45.890  51.240  1.00  0.00     0.245 C 
HETATM    2  N   UNL     1      26.617  46.512  50.042  1.00  0.00    -0.325 N 
HETATM    3  O   UNL     1      25.660  46.407  52.140  1.00  0.00    -0.271 OA
HETATM    4  H   UNL     1      27.205  45.983  49.399  1.00  0.00     0.169 HD
ENDROOT
BRANCH   1   5
HETATM    5  C   UNL     1      26.736  44.380  51.285  1.00  0.00     0.180 C 
BRANCH   5   6
HETATM    6  N   UNL     1      27.754  44.006  52.291  1.00  0.00    -0.343 N 
HETATM    7  C   UNL     1      27.503  44.038  53.643  1.00  0.00     0.252 C 
HETATM    8  O   UNL     1      26.389  43.909  54.133  1.00  0.00    -0.268 OA
HETATM    9  H   UNL     1      28.724  44.098  52.015  1.00  0.00     0.163 HD
BRANCH   7  10
HETATM   10  C   UNL     1      28.685  44.214  54.510  1.00  0.00     0.037 A 
HETATM   11  C   UNL     1      28.911  45.419  55.200  1.00  0.00    -0.046 A 
HETATM   12  C   UNL     1      27.988  46.600  55.091  1.00  0.00     0.049 C 
HETATM   13  C   UNL     1      30.052  45.516  56.011  1.00  0.00     0.007 A 
HETATM   14  C   UNL     1      30.919  44.431  56.155  1.00  0.00     0.001 A 
HETATM   15  C   UNL     1      30.664  43.233  55.488  1.00  0.00     0.001 A 
HETATM   16  C   UNL     1      29.545  43.121  54.665  1.00  0.00     0.017 A 
ENDBRANCH   7  10
ENDBRANCH   5   6
BRANCH   5  17
HETATM   17  C   UNL     1      25.536  43.397  51.401  1.00  0.00     0.009 C 
HETATM   18  C   UNL     1      24.275  43.886  50.680  1.00  0.00     0.012 C 
HETATM   19  C   UNL     1      25.887  41.969  50.973  1.00  0.00     0.012 C 
ENDBRANCH   5  17
ENDBRANCH   1   5
BRANCH   2  20
HETATM   20  C   UNL     1      26.123  47.733  49.544  1.00  0.00     0.035 A 
HETATM   21  C   UNL     1      24.765  48.058  49.485  1.00  0.00     0.042 A 
HETATM   22  C   UNL     1      24.330  49.251  48.882  1.00  0.00    -0.021 A 
HETATM   23  C   UNL     1      25.290  50.141  48.383  1.00  0.00     0.012 A 
HETATM   24  C   UNL     1      26.649  49.831  48.452  1.00  0.00     0.003 A 
HETATM   25  C   UNL     1      27.060  48.624  49.013  1.00  0.00     0.029 A 
BRANCH  22  26
HETATM   26  C   UNL     1      22.911  49.543  48.718  1.00  0.00     0.010 A 
HETATM   27  C   UNL     1      21.772  48.715  48.876  1.00  0.00     0.152 A 
HETATM   28  N   UNL     1      20.622  49.361  48.665  1.00  0.00    -0.187 NA
HETATM   29  N   UNL     1      21.017  50.611  48.379  1.00  0.00    -0.289 N 
HETATM   30  H   UNL     1      20.305  51.308  48.189  1.00  0.00     0.188 HD
HETATM   31  C   UNL     1      22.371  50.771  48.393  1.00  0.00     0.123 A 
ENDBRANCH  22  26
ENDBRANCH   2  20
TORSDOF 6
ENDMDL
MODEL 5
REMARK VINA RESULT:      -8.8      1.370      2.539
REMARK  6 active torsions:
REMARK  status: ('A' for Active; 'I' for Inactive)
REMARK    1  A    between atoms: C_3  and  C_4 
REMARK       I    between atoms: C_4  and  N_5 
REMARK    2  A    between atoms: N_5  and  C_6 
REMARK    3  A    between atoms: C_6  and  C_7 
REMARK    4  A    between atoms: C_6  and  C_22 
REMARK       I    between atoms: C_7  and  N_8 
REMARK    5  A    between atoms: N_8  and  C_9 
REMARK    6  A    between atoms: C_11  and  C_12 
ROOT
HETATM    1  C   UNL     1      25.591  44.715  52.284  1.00  0.00     0.245 C 
HETATM    2  N   UNL     1      26.773  45.406  52.471  1.00  0.00    -0.325 N 
HETATM    3  O   UNL     1      24.950  44.186  53.191  1.00  0.00    -0.271 OA
HETATM    4  H   UNL     1      27.218  45.763  51.626  1.00  0.00     0.169 HD
ENDROOT
BRANCH   1   5
HETATM    5  C   UNL     1      25.020  44.826  50.829  1.00  0.00     0.180 C 
BRANCH   5   6
HETATM    6  N   UNL     1      25.340  46.066  50.087  1.00  0.00    -0.343 N 
HETATM    7  C   UNL     1      25.018  47.315  50.565  1.00  0.00     0.252 C 
HETATM    8  O   UNL     1      24.894  47.579  51.753  1.00  0.00    -0.268 OA
HETATM    9  H   UNL     1      25.439  45.984  49.082  1.00  0.00     0.163 HD
BRANCH   7  10
HETATM   10  C   UNL     1      24.852  48.367  49.543  1.00  0.00     0.037 A 
HETATM   11  C   UNL     1      25.964  49.010  48.969  1.00  0.00    -0.046 A 
HETATM   12  C   UNL     1      27.378  48.688  49.363  1.00  0.00     0.049 C 
HETATM   13  C   UNL     1      25.733  49.997  48.000  1.00  0.00     0.007 A 
HETATM   14  C   UNL     1      24.434  50.306  47.591  1.00  0.00     0.001 A 
HETATM   15  C   UNL     1      23.344  49.637  48.147  1.00  0.00     0.001 A 
HETATM   16  C   UNL     1      23.550  48.665  49.124  1.00  0.00     0.017 A 
ENDBRANCH   7  10
ENDBRANCH   5   6
BRANCH   5  17
HETATM   17  C   UNL     1      25.352  43.605  49.923  1.00  0.00     0.009 C 
HETATM   18  C   UNL     1      26.838  43.234  49.921  1.00  0.00     0.012 C 
HETATM   19  C   UNL     1      24.486  42.380  50.227  1.00  0.00     0.012 C 
ENDBRANCH   5  17
ENDBRANCH   1   5
BRANCH   2  20
HETATM   20  C   UNL     1      27.386  45.779  53.682  1.00  0.00     0.035 A 
HETATM   21  C   UNL     1      28.462  45.093  54.254  1.00  0.00     0.042 A 
HETATM   22  C   UNL     1      28.963  45.453  55.516  1.00  0.00    -0.021 A 
HETATM   23  C   UNL     1      28.397  46.554  56.175  1.00  0.00     0.012 A 
HETATM   24  C   UNL     1      27.334  47.254  55.604  1.00  0.00     0.003 A 
HETATM   25  C   UNL     1      26.821  46.855  54.372  1.00  0.00     0.029 A 
BRANCH  22  26
HETATM   26  C   UNL     1      30.009  44.674  56.167  1.00  0.00     0.010 A 
HETATM   27  C   UNL     1      30.672  43.491  55.755  1.00  0.00     0.152 A 
HETATM   28  N   UNL     1      31.608  43.088  56.619  1.00  0.00    -0.187 NA
HETATM   29  N   UNL     1      31.557  44.016  57.587  1.00  0.00    -0.289 N 
HETATM   30  H   UNL     1      32.198  43.931  58.368  1.00  0.00     0.188 HD
HETATM   31  C   UNL     1      30.617  44.980  57.367  1.00  0.00     0.123 A 
ENDBRANCH  22  26
ENDBRANCH   2  20
TORSDOF 6
ENDMDL
MODEL 6
REMARK VINA RESULT:      -8.5      3.215      5.261
REMARK  6 active torsions:
REMARK  status: ('A' for Active; 'I' for Inactive)
REMARK    1  A    between atoms: C_3  and  C_4 
REMARK       I    between atoms: C_4  and  N_5 
REMARK    2  A    between atoms: N_5  and  C_6 
REMARK    3  A    between atoms: C_6  and  C_7 
REMARK    4  A    between atoms: C_6  and  C_22 
REMARK       I    between atoms: C_7  and  N_8 
REMARK    5  A    between atoms: N_8  and  C_9 
REMARK    6  A    between atoms: C_11  and  C_12 
ROOT
HETATM    1  C   UNL     1      24.297  47.397  50.135  1.00  0.00     0.245 C 
HETATM    2  N   UNL     1      24.608  46.131  49.677  1.00  0.00    -0.325 N 
HETATM    3  O   UNL     1      24.689  47.858  51.206  1.00  0.00    -0.271 OA
HETATM    4  H   UNL     1      24.186  45.862  48.789  1.00  0.00     0.169 HD
ENDROOT
BRANCH   1   5
HETATM    5  C   UNL     1      23.555  48.284  49.079  1.00  0.00     0.180 C 
BRANCH   5   6
HETATM    6  N   UNL     1      22.311  48.946  49.530  1.00  0.00    -0.343 N 
HETATM    7  C   UNL     1      21.127  48.843  48.838  1.00  0.00     0.252 C 
HETATM    8  O   UNL     1      20.839  47.897  48.118  1.00  0.00    -0.268 OA
HETATM    9  H   UNL     1      22.418  49.768  50.113  1.00  0.00     0.163 HD
BRANCH   7  10
HETATM   10  C   UNL     1      20.173  49.953  49.033  1.00  0.00     0.037 A 
HETATM   11  C   UNL     1      19.079  49.829  49.908  1.00  0.00    -0.046 A 
HETATM   12  C   UNL     1      18.797  48.571  50.680  1.00  0.00     0.049 C 
HETATM   13  C   UNL     1      18.215  50.925  50.050  1.00  0.00     0.007 A 
HETATM   14  C   UNL     1      18.459  52.119  49.367  1.00  0.00     0.001 A 
HETATM   15  C   UNL     1      19.566  52.235  48.528  1.00  0.00     0.001 A 
HETATM   16  C   UNL     1      20.428  51.153  48.360  1.00  0.00     0.017 A 
ENDBRANCH   7  10
ENDBRANCH   5   6
BRANCH   5  17
HETATM   17  C   UNL     1      24.463  49.345  48.391  1.00  0.00     0.009 C 
HETATM   18  C   UNL     1      23.998  50.786  48.622  1.00  0.00     0.012 C 
HETATM   19  C   UNL     1      25.943  49.188  48.746  1.00  0.00     0.012 C 
ENDBRANCH   5  17
ENDBRANCH   1   5
BRANCH   2  20
HETATM   20  C   UNL     1      25.518  45.203  50.220  1.00  0.00     0.035 A 
HETATM   21  C   UNL     1      26.072  45.312  51.499  1.00  0.00     0.042 A 
HETATM   22  C   UNL     1      27.053  44.408  51.943  1.00  0.00    -0.021 A 
HETATM   23  C   UNL     1      27.433  43.358  51.096  1.00  0.00     0.012 A 
HETATM   24  C   UNL     1      26.873  43.233  49.824  1.00  0.00     0.003 A 
HETATM   25  C   UNL     1      25.933  44.163  49.383  1.00  0.00     0.029 A 
BRANCH  22  26
HETATM   26  C   UNL     1      27.715  44.581  53.230  1.00  0.00     0.010 A 
HETATM   27  C   UNL     1      27.375  45.390  54.342  1.00  0.00     0.152 A 
HETATM   28  N   UNL     1      28.222  45.254  55.367  1.00  0.00    -0.187 NA
HETATM   29  N   UNL     1      29.106  44.349  54.920  1.00  0.00    -0.289 N 
HETATM   30  H   UNL     1      29.858  44.065  55.539  1.00  0.00     0.188 HD
HETATM   31  C   UNL     1      28.851  43.921  53.650  1.00  0.00     0.123 A 
ENDBRANCH  22  26
ENDBRANCH   2  20
TORSDOF 6
ENDMDL
MODEL 7
REMARK VINA RESULT:      -8.5      3.816      9.123
REMARK  6 active torsions:
REMARK  status: ('A' for Active; 'I' for Inactive)
REMARK    1  A    between atoms: C_3  and  C_4 
REMARK       I    between atoms: C_4  and  N_5 
REMARK    2  A    between atoms: N_5  and  C_6 
REMARK    3  A    between atoms: C_6  and  C_7 
REMARK    4  A    between atoms: C_6  and  C_22 
REMARK       I    between atoms: C_7  and  N_8 
REMARK    5  A    between atoms: N_8  and  C_9 
REMARK    6  A    between atoms: C_11  and  C_12 
ROOT
HETATM    1  C   UNL     1      22.859  46.465  48.743  1.00  0.00     0.245 C 
HETATM    2  N   UNL     1      22.862  47.604  49.526  1.00  0.00    -0.325 N 
HETATM    3  O   UNL     1      22.416  46.418  47.597  1.00  0.00    -0.271 OA
HETATM    4  H   UNL     1      23.226  47.494  50.471  1.00  0.00     0.169 HD
ENDROOT
BRANCH   1   5
HETATM    5  C   UNL     1      23.651  45.268  49.370  1.00  0.00     0.180 C 
BRANCH   5   6
HETATM    6  N   UNL     1      24.217  45.486  50.720  1.00  0.00    -0.343 N 
HETATM    7  C   UNL     1      25.419  46.121  50.923  1.00  0.00     0.252 C 
HETATM    8  O   UNL     1      25.894  46.944  50.152  1.00  0.00    -0.268 OA
HETATM    9  H   UNL     1      23.922  44.845  51.447  1.00  0.00     0.163 HD
BRANCH   7  10
HETATM   10  C   UNL     1      26.124  45.773  52.173  1.00  0.00     0.037 A 
HETATM   11  C   UNL     1      26.997  44.672  52.236  1.00  0.00    -0.046 A 
HETATM   12  C   UNL     1      27.255  43.775  51.058  1.00  0.00     0.049 C 
HETATM   13  C   UNL     1      27.638  44.402  53.454  1.00  0.00     0.007 A 
HETATM   14  C   UNL     1      27.441  45.228  54.563  1.00  0.00     0.001 A 
HETATM   15  C   UNL     1      26.596  46.334  54.474  1.00  0.00     0.001 A 
HETATM   16  C   UNL     1      25.937  46.611  53.278  1.00  0.00     0.017 A 
ENDBRANCH   7  10
ENDBRANCH   5   6
BRANCH   5  17
HETATM   17  C   UNL     1      22.873  43.921  49.368  1.00  0.00     0.009 C 
HETATM   18  C   UNL     1      22.906  43.200  48.016  1.00  0.00     0.012 C 
HETATM   19  C   UNL     1      23.299  42.980  50.496  1.00  0.00     0.012 C 
ENDBRANCH   5  17
ENDBRANCH   1   5
BRANCH   2  20
HETATM   20  C   UNL     1      22.533  48.922  49.154  1.00  0.00     0.035 A 
HETATM   21  C   UNL     1      21.296  49.519  49.416  1.00  0.00     0.042 A 
HETATM   22  C   UNL     1      20.992  50.802  48.929  1.00  0.00    -0.021 A 
HETATM   23  C   UNL     1      21.976  51.500  48.215  1.00  0.00     0.012 A 
HETATM   24  C   UNL     1      23.219  50.918  47.963  1.00  0.00     0.003 A 
HETATM   25  C   UNL     1      23.487  49.628  48.416  1.00  0.00     0.029 A 
BRANCH  22  26
HETATM   26  C   UNL     1      19.667  51.384  49.103  1.00  0.00     0.010 A 
HETATM   27  C   UNL     1      18.615  51.040  49.987  1.00  0.00     0.152 A 
HETATM   28  N   UNL     1      17.550  51.838  49.869  1.00  0.00    -0.187 NA
HETATM   29  N   UNL     1      17.917  52.704  48.913  1.00  0.00    -0.289 N 
HETATM   30  H   UNL     1      17.263  53.433  48.648  1.00  0.00     0.188 HD
HETATM   31  C   UNL     1      19.167  52.474  48.420  1.00  0.00     0.123 A 
ENDBRANCH  22  26
ENDBRANCH   2  20
TORSDOF 6
ENDMDL
MODEL 8
REMARK VINA RESULT:      -8.4      2.207      8.560
REMARK  6 active torsions:
REMARK  status: ('A' for Active; 'I' for Inactive)
REMARK    1  A    between atoms: C_3  and  C_4 
REMARK       I    between atoms: C_4  and  N_5 
REMARK    2  A    between atoms: N_5  and  C_6 
REMARK    3  A    between atoms: C_6  and  C_7 
REMARK    4  A    between atoms: C_6  and  C_22 
REMARK       I    between atoms: C_7  and  N_8 
REMARK    5  A    between atoms: N_8  and  C_9 
REMARK    6  A    between atoms: C_11  and  C_12 
ROOT
HETATM    1  C   UNL     1      26.233  44.172  52.669  1.00  0.00     0.245 C 
HETATM    2  N   UNL     1      26.384  45.088  51.646  1.00  0.00    -0.325 N 
HETATM    3  O   UNL     1      25.154  43.885  53.184  1.00  0.00    -0.271 OA
HETATM    4  H   UNL     1      27.340  45.259  51.337  1.00  0.00     0.169 HD
ENDROOT
BRANCH   1   5
HETATM    5  C   UNL     1      27.540  43.373  52.995  1.00  0.00     0.180 C 
BRANCH   5   6
HETATM    6  N   UNL     1      28.109  43.561  54.348  1.00  0.00    -0.343 N 
HETATM    7  C   UNL     1      28.759  44.713  54.722  1.00  0.00     0.252 C 
HETATM    8  O   UNL     1      28.546  45.809  54.221  1.00  0.00    -0.268 OA
HETATM    9  H   UNL     1      28.357  42.722  54.859  1.00  0.00     0.163 HD
BRANCH   7  10
HETATM   10  C   UNL     1      29.741  44.569  55.815  1.00  0.00     0.037 A 
HETATM   11  C   UNL     1      29.664  45.361  56.975  1.00  0.00    -0.046 A 
HETATM   12  C   UNL     1      28.604  46.407  57.172  1.00  0.00     0.049 C 
HETATM   13  C   UNL     1      30.627  45.166  57.976  1.00  0.00     0.007 A 
HETATM   14  C   UNL     1      31.612  44.187  57.838  1.00  0.00     0.001 A 
HETATM   15  C   UNL     1      31.655  43.389  56.696  1.00  0.00     0.001 A 
HETATM   16  C   UNL     1      30.718  43.576  55.681  1.00  0.00     0.017 A 
ENDBRANCH   7  10
ENDBRANCH   5   6
BRANCH   5  17
HETATM   17  C   UNL     1      27.440  41.848  52.705  1.00  0.00     0.009 C 
HETATM   18  C   UNL     1      27.179  41.523  51.230  1.00  0.00     0.012 C 
HETATM   19  C   UNL     1      28.640  41.056  53.231  1.00  0.00     0.012 C 
ENDBRANCH   5  17
ENDBRANCH   1   5
BRANCH   2  20
HETATM   20  C   UNL     1      25.382  45.737  50.897  1.00  0.00     0.035 A 
HETATM   21  C   UNL     1      24.379  45.065  50.192  1.00  0.00     0.042 A 
HETATM   22  C   UNL     1      23.471  45.766  49.380  1.00  0.00    -0.021 A 
HETATM   23  C   UNL     1      23.554  47.164  49.329  1.00  0.00     0.012 A 
HETATM   24  C   UNL     1      24.541  47.843  50.044  1.00  0.00     0.003 A 
HETATM   25  C   UNL     1      25.462  47.130  50.809  1.00  0.00     0.029 A 
BRANCH  22  26
HETATM   26  C   UNL     1      22.495  45.064  48.555  1.00  0.00     0.010 A 
HETATM   27  C   UNL     1      21.086  44.966  48.672  1.00  0.00     0.152 A 
HETATM   28  N   UNL     1      20.528  44.249  47.692  1.00  0.00    -0.187 NA
HETATM   29  N   UNL     1      21.577  43.890  46.936  1.00  0.00    -0.289 N 
HETATM   30  H   UNL     1      21.402  43.336  46.105  1.00  0.00     0.188 HD
HETATM   31  C   UNL     1      22.771  44.346  47.410  1.00  0.00     0.123 A 
ENDBRANCH  22  26
ENDBRANCH   2  20
TORSDOF 6
ENDMDL
MODEL 9
REMARK VINA RESULT:      -8.4      3.164      4.776
REMARK  6 active torsions:
REMARK  status: ('A' for Active; 'I' for Inactive)
REMARK    1  A    between atoms: C_3  and  C_4 
REMARK       I    between atoms: C_4  and  N_5 
REMARK    2  A    between atoms: N_5  and  C_6 
REMARK    3  A    between atoms: C_6  and  C_7 
REMARK    4  A    between atoms: C_6  and  C_22 
REMARK       I    between atoms: C_7  and  N_8 
REMARK    5  A    between atoms: N_8  and  C_9 
REMARK    6  A    between atoms: C_11  and  C_12 
ROOT
HETATM    1  C   UNL     1      26.872  43.849  51.575  1.00  0.00     0.245 C 
HETATM    2  N   UNL     1      26.715  44.013  52.938  1.00  0.00    -0.325 N 
HETATM    3  O   UNL     1      27.667  44.491  50.891  1.00  0.00    -0.271 OA
HETATM    4  H   UNL     1      25.993  43.441  53.375  1.00  0.00     0.169 HD
ENDROOT
BRANCH   1   5
HETATM    5  C   UNL     1      26.083  42.627  50.993  1.00  0.00     0.180 C 
BRANCH   5   6
HETATM    6  N   UNL     1      25.161  42.911  49.871  1.00  0.00    -0.343 N 
HETATM    7  C   UNL     1      23.795  42.809  49.994  1.00  0.00     0.252 C 
HETATM    8  O   UNL     1      23.195  42.946  51.052  1.00  0.00    -0.268 OA
HETATM    9  H   UNL     1      25.535  42.803  48.935  1.00  0.00     0.163 HD
BRANCH   7  10
HETATM   10  C   UNL     1      23.058  42.546  48.743  1.00  0.00     0.037 A 
HETATM   11  C   UNL     1      22.497  43.595  47.992  1.00  0.00    -0.046 A 
HETATM   12  C   UNL     1      22.593  45.034  48.414  1.00  0.00     0.049 C 
HETATM   13  C   UNL     1      21.814  43.273  46.810  1.00  0.00     0.007 A 
HETATM   14  C   UNL     1      21.726  41.949  46.374  1.00  0.00     0.001 A 
HETATM   15  C   UNL     1      22.314  40.925  47.114  1.00  0.00     0.001 A 
HETATM   16  C   UNL     1      22.983  41.220  48.300  1.00  0.00     0.017 A 
ENDBRANCH   7  10
ENDBRANCH   5   6
BRANCH   5  17
HETATM   17  C   UNL     1      26.983  41.419  50.604  1.00  0.00     0.009 C 
HETATM   18  C   UNL     1      28.099  41.140  51.616  1.00  0.00     0.012 C 
HETATM   19  C   UNL     1      26.185  40.146  50.311  1.00  0.00     0.012 C 
ENDBRANCH   5  17
ENDBRANCH   1   5
BRANCH   2  20
HETATM   20  C   UNL     1      27.493  44.784  53.822  1.00  0.00     0.035 A 
HETATM   21  C   UNL     1      28.583  44.283  54.540  1.00  0.00     0.042 A 
HETATM   22  C   UNL     1      29.256  45.077  55.485  1.00  0.00    -0.021 A 
HETATM   23  C   UNL     1      28.847  46.406  55.660  1.00  0.00     0.012 A 
HETATM   24  C   UNL     1      27.771  46.919  54.935  1.00  0.00     0.003 A 
HETATM   25  C   UNL     1      27.087  46.105  54.035  1.00  0.00     0.029 A 
BRANCH  22  26
HETATM   26  C   UNL     1      30.320  44.527  56.316  1.00  0.00     0.010 A 
HETATM   27  C   UNL     1      30.822  44.947  57.573  1.00  0.00     0.152 A 
HETATM   28  N   UNL     1      31.795  44.159  58.039  1.00  0.00    -0.187 NA
HETATM   29  N   UNL     1      31.917  43.223  57.085  1.00  0.00    -0.289 N 
HETATM   30  H   UNL     1      32.602  42.487  57.220  1.00  0.00     0.188 HD
HETATM   31  C   UNL     1      31.065  43.400  56.035  1.00  0.00     0.123 A 
ENDBRANCH  22  26
ENDBRANCH   2  20
TORSDOF 6
ENDMDL
MODEL 10
REMARK VINA RESULT:      -8.2      2.221      3.523
REMARK  6 active torsions:
REMARK  status: ('A' for Active; 'I' for Inactive)
REMARK    1  A    between atoms: C_3  and  C_4 
REMARK       I    between atoms: C_4  and  N_5 
REMARK    2  A    between atoms: N_5  and  C_6 
REMARK    3  A    between atoms: C_6  and  C_7 
REMARK    4  A    between atoms: C_6  and  C_22 
REMARK       I    between atoms: C_7  and  N_8 
REMARK    5  A    between atoms: N_8  and  C_9 
REMARK    6  A    between atoms: C_11  and  C_12 
ROOT
HETATM    1  C   UNL     1      27.190  43.154  52.600  1.00  0.00     0.245 C 
HETATM    2  N   UNL     1      27.509  44.494  52.709  1.00  0.00    -0.325 N 
HETATM    3  O   UNL     1      27.310  42.340  53.514  1.00  0.00    -0.271 OA
HETATM    4  H   UNL     1      27.396  45.049  51.861  1.00  0.00     0.169 HD
ENDROOT
BRANCH   1   5
HETATM    5  C   UNL     1      26.469  42.785  51.259  1.00  0.00     0.180 C 
BRANCH   5   6
HETATM    6  N   UNL     1      25.832  43.900  50.524  1.00  0.00    -0.343 N 
HETATM    7  C   UNL     1      24.658  44.483  50.940  1.00  0.00     0.252 C 
HETATM    8  O   UNL     1      24.283  44.504  52.105  1.00  0.00    -0.268 OA
HETATM    9  H   UNL     1      26.041  43.974  49.536  1.00  0.00     0.163 HD
BRANCH   7  10
HETATM   10  C   UNL     1      23.855  45.131  49.884  1.00  0.00     0.037 A 
HETATM   11  C   UNL     1      23.006  44.381  49.049  1.00  0.00    -0.046 A 
HETATM   12  C   UNL     1      22.873  42.888  49.161  1.00  0.00     0.049 C 
HETATM   13  C   UNL     1      22.268  45.061  48.070  1.00  0.00     0.007 A 
HETATM   14  C   UNL     1      22.348  46.451  47.953  1.00  0.00     0.001 A 
HETATM   15  C   UNL     1      23.170  47.182  48.808  1.00  0.00     0.001 A 
HETATM   16  C   UNL     1      23.925  46.525  49.778  1.00  0.00     0.017 A 
ENDBRANCH   7  10
ENDBRANCH   5   6
BRANCH   5  17
HETATM   17  C   UNL     1      27.351  41.975  50.266  1.00  0.00     0.009 C 
HETATM   18  C   UNL     1      27.627  40.540  50.728  1.00  0.00     0.012 C 
HETATM   19  C   UNL     1      26.812  41.991  48.834  1.00  0.00     0.012 C 
ENDBRANCH   5  17
ENDBRANCH   1   5
BRANCH   2  20
HETATM   20  C   UNL     1      27.865  45.218  53.863  1.00  0.00     0.035 A 
HETATM   21  C   UNL     1      28.908  44.853  54.720  1.00  0.00     0.042 A 
HETATM   22  C   UNL     1      29.147  45.560  55.912  1.00  0.00    -0.021 A 
HETATM   23  C   UNL     1      28.351  46.676  56.203  1.00  0.00     0.012 A 
HETATM   24  C   UNL     1      27.319  47.056  55.344  1.00  0.00     0.003 A 
HETATM   25  C   UNL     1      27.067  46.318  54.190  1.00  0.00     0.029 A 
BRANCH  22  26
HETATM   26  C   UNL     1      30.158  45.118  56.864  1.00  0.00     0.010 A 
HETATM   27  C   UNL     1      31.112  44.073  56.782  1.00  0.00     0.152 A 
HETATM   28  N   UNL     1      31.899  43.996  57.858  1.00  0.00    -0.187 NA
HETATM   29  N   UNL     1      31.459  44.998  58.635  1.00  0.00    -0.289 N 
HETATM   30  H   UNL     1      31.920  45.154  59.525  1.00  0.00     0.188 HD
HETATM   31  C   UNL     1      30.420  45.694  58.090  1.00  0.00     0.123 A 
ENDBRANCH  22  26
ENDBRANCH   2  20
TORSDOF 6
ENDMDL
