MODEL 1
REMARK VINA RESULT:      -9.0      0.000      0.000
REMARK  8 active torsions:
REMARK  status: ('A' for Active; 'I' for Inactive)
REMARK    1  A    between atoms: O_2  and  C_3 
REMARK    2  A    between atoms: C_4  and  O_5 
REMARK    3  A    between atoms: C_8  and  C_9 
REMARK    4  A    between atoms: C_14  and  C_15 
REMARK    5  A    between atoms: N_16  and  N_17 
REMARK       I    between atoms: N_17  and  C_18 
REMARK    6  A    between atoms: C_18  and  C_19 
REMARK    7  A    between atoms: C_19  and  C_20 
REMARK    8  A    between atoms: C_20  and  C_21 
ROOT
HETATM    1  C   UNL     1      25.080  49.305  48.813  1.00  0.00     0.100 A 
HETATM    2  N   UNL     1      25.631  50.256  48.035  1.00  0.00    -0.174 NA
HETATM    3  N   UNL     1      26.950  50.070  48.150  1.00  0.00    -0.288 N 
HETATM    4  H   UNL     1      27.568  50.695  47.644  1.00  0.00     0.188 HD
HETATM    5  C   UNL     1      27.284  49.029  48.954  1.00  0.00     0.124 A 
HETATM    6  C   UNL     1      26.096  48.482  49.399  1.00  0.00     0.031 A 
ENDROOT
BRANCH   6   7
HETATM    7  C   UNL     1      25.968  47.324  50.257  1.00  0.00     0.154 C 
HETATM    8  N   UNL     1      26.041  47.496  51.540  1.00  0.00    -0.184 NA
BRANCH   8   9
HETATM    9  N   UNL     1      25.919  46.407  52.367  1.00  0.00    -0.247 N 
HETATM   10  C   UNL     1      25.782  46.442  53.748  1.00  0.00     0.237 C 
HETATM   11  O   UNL     1      25.777  47.453  54.445  1.00  0.00    -0.272 OA
HETATM   12  H   UNL     1      25.631  45.564  51.880  1.00  0.00     0.192 HD
BRANCH  10  13
HETATM   13  C   UNL     1      25.625  45.063  54.361  1.00  0.00     0.105 C 
BRANCH  13  14
HETATM   14  C   UNL     1      26.942  44.507  54.902  1.00  0.00     0.014 C 
BRANCH  14  15
HETATM   15  C   UNL     1      28.222  45.034  54.214  1.00  0.00    -0.014 C 
HETATM   16  C   UNL     1      29.119  45.881  55.133  1.00  0.00     0.004 C 
HETATM   17  C   UNL     1      29.803  45.058  56.223  1.00  0.00     0.000 C 
HETATM   18  C   UNL     1      30.593  43.893  55.634  1.00  0.00     0.000 C 
HETATM   19  C   UNL     1      29.742  43.032  54.706  1.00  0.00     0.000 C 
HETATM   20  C   UNL     1      29.047  43.869  53.633  1.00  0.00     0.004 C 
ENDBRANCH  14  15
ENDBRANCH  13  14
ENDBRANCH  10  13
ENDBRANCH   8   9
ENDBRANCH   6   7
BRANCH   1  21
HETATM   21  C   UNL     1      23.621  49.243  48.960  1.00  0.00    -0.002 A 
HETATM   22  C   UNL     1      22.946  48.039  48.710  1.00  0.00     0.053 A 
HETATM   23  C   UNL     1      21.551  47.956  48.811  1.00  0.00     0.102 A 
HETATM   24  C   UNL     1      20.812  49.095  49.186  1.00  0.00     0.101 A 
HETATM   25  C   UNL     1      21.481  50.299  49.424  1.00  0.00     0.040 A 
HETATM   26  C   UNL     1      22.873  50.375  49.301  1.00  0.00     0.017 A 
BRANCH  23  27
HETATM   27  O   UNL     1      20.825  46.814  48.577  1.00  0.00    -0.353 OA
HETATM   28  C   UNL     1      21.553  45.619  48.333  1.00  0.00     0.210 C 
ENDBRANCH  23  27
BRANCH  24  29
HETATM   29  O   UNL     1      19.451  48.932  49.273  1.00  0.00    -0.353 OA
HETATM   30  C   UNL     1      18.856  49.016  50.558  1.00  0.00     0.210 C 
ENDBRANCH  24  29
ENDBRANCH   1  21
TORSDOF 8
ENDMDL
MODEL 2
REMARK VINA RESULT:      -8.8      2.662      9.611
REMARK  8 active torsions:
REMARK  status: ('A' for Active; 'I' for Inactive)
REMARK    1  A    between atoms: O_2  and  C_3 
REMARK    2  A    between atoms: C_4  and  O_5 
REMARK    3  A    between atoms: C_8  and  C_9 
REMARK    4  A    between atoms: C_14  and  C_15 
REMARK    5  A    between atoms: N_16  and  N_17 
REMARK       I    between atoms: N_17  and  C_18 
REMARK    6  A    between atoms: C_18  and  C_19 
REMARK    7  A    between atoms: C_19  and  C_20 
REMARK    8  A    between atoms: C_20  and  C_21 
ROOT
HETATM    1  C   UNL     1      28.530  42.409  53.047  1.00  0.00     0.100 A 
HETATM    2  N   UNL     1      28.635  41.078  53.211  1.00  0.00    -0.174 NA
HETATM    3  N   UNL     1      28.037  40.553  52.136  1.00  0.00    -0.288 N 
HETATM    4  H   UNL     1      27.992  39.542  52.057  1.00  0.00     0.188 HD
HETATM    5  C   UNL     1      27.561  41.483  51.270  1.00  0.00     0.124 A 
HETATM    6  C   UNL     1      27.875  42.715  51.810  1.00  0.00     0.031 A 
ENDROOT
BRANCH   6   7
HETATM    7  C   UNL     1      27.589  44.000  51.207  1.00  0.00     0.154 C 
HETATM    8  N   UNL     1      26.407  44.200  50.713  1.00  0.00    -0.184 NA
BRANCH   8   9
HETATM    9  N   UNL     1      26.122  45.415  50.140  1.00  0.00    -0.247 N 
HETATM   10  C   UNL     1      25.497  46.485  50.766  1.00  0.00     0.237 C 
HETATM   11  O   UNL     1      25.079  46.500  51.920  1.00  0.00    -0.272 OA
HETATM   12  H   UNL     1      26.668  45.602  49.304  1.00  0.00     0.192 HD
BRANCH  10  13
HETATM   13  C   UNL     1      25.370  47.701  49.868  1.00  0.00     0.105 C 
BRANCH  13  14
HETATM   14  C   UNL     1      23.936  48.221  49.781  1.00  0.00     0.014 C 
BRANCH  14  15
HETATM   15  C   UNL     1      23.452  48.612  48.365  1.00  0.00    -0.014 C 
HETATM   16  C   UNL     1      21.930  48.495  48.172  1.00  0.00     0.004 C 
HETATM   17  C   UNL     1      21.147  49.552  48.949  1.00  0.00     0.000 C 
HETATM   18  C   UNL     1      21.620  50.962  48.609  1.00  0.00     0.000 C 
HETATM   19  C   UNL     1      23.129  51.119  48.777  1.00  0.00     0.000 C 
HETATM   20  C   UNL     1      23.900  50.044  48.013  1.00  0.00     0.004 C 
ENDBRANCH  14  15
ENDBRANCH  13  14
ENDBRANCH  10  13
ENDBRANCH   8   9
ENDBRANCH   6   7
BRANCH   1  21
HETATM   21  C   UNL     1      29.050  43.311  54.082  1.00  0.00    -0.002 A 
HETATM   22  C   UNL     1      28.295  44.424  54.481  1.00  0.00     0.053 A 
HETATM   23  C   UNL     1      28.778  45.319  55.444  1.00  0.00     0.102 A 
HETATM   24  C   UNL     1      30.035  45.093  56.036  1.00  0.00     0.101 A 
HETATM   25  C   UNL     1      30.795  43.992  55.631  1.00  0.00     0.040 A 
HETATM   26  C   UNL     1      30.311  43.114  54.655  1.00  0.00     0.017 A 
BRANCH  23  27
HETATM   27  O   UNL     1      28.096  46.430  55.878  1.00  0.00    -0.353 OA
HETATM   28  C   UNL     1      27.814  47.437  54.917  1.00  0.00     0.210 C 
ENDBRANCH  23  27
BRANCH  24  29
HETATM   29  O   UNL     1      30.435  46.009  56.977  1.00  0.00    -0.353 OA
HETATM   30  C   UNL     1      30.469  45.592  58.333  1.00  0.00     0.210 C 
ENDBRANCH  24  29
ENDBRANCH   1  21
TORSDOF 8
ENDMDL
MODEL 3
REMARK VINA RESULT:      -8.6      0.876      1.950
REMARK  8 active torsions:
REMARK  status: ('A' for Active; 'I' for Inactive)
REMARK    1  A    between atoms: O_2  and  C_3 
REMARK    2  A    between atoms: C_4  and  O_5 
REMARK    3  A    between atoms: C_8  and  C_9 
REMARK    4  A    between atoms: C_14  and  C_15 
REMARK    5  A    between atoms: N_16  and  N_17 
REMARK       I    between atoms: N_17  and  C_18 
REMARK    6  A    between atoms: C_18  and  C_19 
REMARK    7  A    between atoms: C_19  and  C_20 
REMARK    8  A    between atoms: C_20  and  C_21 
ROOT
HETATM    1  C   UNL     1      24.725  49.238  48.685  1.00  0.00     0.100 A 
HETATM    2  N   UNL     1      25.222  50.224  47.916  1.00  0.00    -0.174 NA
HETATM    3  N   UNL     1      26.549  50.127  48.051  1.00  0.00    -0.288 N 
HETATM    4  H   UNL     1      27.132  50.793  47.555  1.00  0.00     0.188 HD
HETATM    5  C   UNL     1      26.940  49.111  48.860  1.00  0.00     0.124 A 
HETATM    6  C   UNL     1      25.785  48.484  49.286  1.00  0.00     0.031 A 
ENDROOT
BRANCH   6   7
HETATM    7  C   UNL     1      25.722  47.319  50.143  1.00  0.00     0.154 C 
HETATM    8  N   UNL     1      25.679  47.499  51.426  1.00  0.00    -0.184 NA
BRANCH   8   9
HETATM    9  N   UNL     1      25.617  46.403  52.250  1.00  0.00    -0.247 N 
HETATM   10  C   UNL     1      25.640  46.424  53.639  1.00  0.00     0.237 C 
HETATM   11  O   UNL     1      25.748  47.425  54.342  1.00  0.00    -0.272 OA
HETATM   12  H   UNL     1      25.247  45.576  51.791  1.00  0.00     0.192 HD
BRANCH  10  13
HETATM   13  C   UNL     1      25.509  45.042  54.252  1.00  0.00     0.105 C 
BRANCH  13  14
HETATM   14  C   UNL     1      26.837  44.509  54.789  1.00  0.00     0.014 C 
BRANCH  14  15
HETATM   15  C   UNL     1      28.091  44.891  53.968  1.00  0.00    -0.014 C 
HETATM   16  C   UNL     1      29.406  44.801  54.762  1.00  0.00     0.004 C 
HETATM   17  C   UNL     1      29.810  43.364  55.087  1.00  0.00     0.000 C 
HETATM   18  C   UNL     1      29.888  42.505  53.828  1.00  0.00     0.000 C 
HETATM   19  C   UNL     1      28.605  42.574  53.005  1.00  0.00     0.000 C 
HETATM   20  C   UNL     1      28.200  44.016  52.704  1.00  0.00     0.004 C 
ENDBRANCH  14  15
ENDBRANCH  13  14
ENDBRANCH  10  13
ENDBRANCH   8   9
ENDBRANCH   6   7
BRANCH   1  21
HETATM   21  C   UNL     1      23.272  49.077  48.809  1.00  0.00    -0.002 A 
HETATM   22  C   UNL     1      22.477  50.177  49.167  1.00  0.00     0.053 A 
HETATM   23  C   UNL     1      21.090  50.047  49.324  1.00  0.00     0.102 A 
HETATM   24  C   UNL     1      20.479  48.799  49.103  1.00  0.00     0.101 A 
HETATM   25  C   UNL     1      21.269  47.699  48.758  1.00  0.00     0.040 A 
HETATM   26  C   UNL     1      22.656  47.835  48.623  1.00  0.00     0.017 A 
BRANCH  23  27
HETATM   27  O   UNL     1      20.253  51.078  49.677  1.00  0.00    -0.353 OA
HETATM   28  C   UNL     1      19.839  51.963  48.646  1.00  0.00     0.210 C 
ENDBRANCH  23  27
BRANCH  24  29
HETATM   29  O   UNL     1      19.116  48.755  49.268  1.00  0.00    -0.353 OA
HETATM   30  C   UNL     1      18.617  48.402  50.548  1.00  0.00     0.210 C 
ENDBRANCH  24  29
ENDBRANCH   1  21
TORSDOF 8
ENDMDL
MODEL 4
REMARK VINA RESULT:      -8.5      2.474      8.383
REMARK  8 active torsions:
REMARK  status: ('A' for Active; 'I' for Inactive)
REMARK    1  A    between atoms: O_2  and  C_3 
REMARK    2  A    between atoms: C_4  and  O_5 
REMARK    3  A    between atoms: C_8  and  C_9 
REMARK    4  A    between atoms: C_14  and  C_15 
REMARK    5  A    between atoms: N_16  and  N_17 
REMARK       I    between atoms: N_17  and  C_18 
REMARK    6  A    between atoms: C_18  and  C_19 
REMARK    7  A    between atoms: C_19  and  C_20 
REMARK    8  A    between atoms: C_20  and  C_21 
ROOT
HETATM    1  C   UNL     1      25.847  48.005  49.925  1.00  0.00     0.100 A 
HETATM    2  N   UNL     1      27.092  48.278  49.493  1.00  0.00    -0.174 NA
HETATM    3  N   UNL     1      26.924  49.158  48.499  1.00  0.00    -0.288 N 
HETATM    4  H   UNL     1      27.748  49.498  48.015  1.00  0.00     0.188 HD
HETATM    5  C   UNL     1      25.626  49.482  48.275  1.00  0.00     0.124 A 
HETATM    6  C   UNL     1      24.880  48.769  49.194  1.00  0.00     0.031 A 
ENDROOT
BRANCH   6   7
HETATM    7  C   UNL     1      23.442  48.831  49.346  1.00  0.00     0.154 C 
HETATM    8  N   UNL     1      22.738  47.809  48.971  1.00  0.00    -0.184 NA
BRANCH   8   9
HETATM    9  N   UNL     1      21.373  47.854  49.111  1.00  0.00    -0.247 N 
HETATM   10  C   UNL     1      20.462  47.004  48.499  1.00  0.00     0.237 C 
HETATM   11  O   UNL     1      20.736  46.099  47.714  1.00  0.00    -0.272 OA
HETATM   12  H   UNL     1      21.071  48.363  49.936  1.00  0.00     0.192 HD
BRANCH  10  13
HETATM   13  C   UNL     1      19.027  47.290  48.898  1.00  0.00     0.105 C 
BRANCH  13  14
HETATM   14  C   UNL     1      18.885  48.586  49.695  1.00  0.00     0.014 C 
BRANCH  14  15
HETATM   15  C   UNL     1      17.989  49.670  49.052  1.00  0.00    -0.014 C 
HETATM   16  C   UNL     1      17.883  50.962  49.882  1.00  0.00     0.004 C 
HETATM   17  C   UNL     1      19.182  51.765  49.905  1.00  0.00     0.000 C 
HETATM   18  C   UNL     1      19.674  52.077  48.495  1.00  0.00     0.000 C 
HETATM   19  C   UNL     1      19.785  50.822  47.634  1.00  0.00     0.000 C 
HETATM   20  C   UNL     1      18.486  50.017  47.635  1.00  0.00     0.004 C 
ENDBRANCH  14  15
ENDBRANCH  13  14
ENDBRANCH  10  13
ENDBRANCH   8   9
ENDBRANCH   6   7
BRANCH   1  21
HETATM   21  C   UNL     1      25.651  47.025  50.999  1.00  0.00    -0.002 A 
HETATM   22  C   UNL     1      24.994  45.815  50.728  1.00  0.00     0.053 A 
HETATM   23  C   UNL     1      24.764  44.873  51.740  1.00  0.00     0.102 A 
HETATM   24  C   UNL     1      25.214  45.134  53.048  1.00  0.00     0.101 A 
HETATM   25  C   UNL     1      25.858  46.344  53.324  1.00  0.00     0.040 A 
HETATM   26  C   UNL     1      26.065  47.286  52.310  1.00  0.00     0.017 A 
BRANCH  23  27
HETATM   27  O   UNL     1      24.124  43.673  51.548  1.00  0.00    -0.353 OA
HETATM   28  C   UNL     1      24.806  42.686  50.787  1.00  0.00     0.210 C 
ENDBRANCH  23  27
BRANCH  24  29
HETATM   29  O   UNL     1      24.959  44.160  53.981  1.00  0.00    -0.353 OA
HETATM   30  C   UNL     1      26.043  43.710  54.779  1.00  0.00     0.210 C 
ENDBRANCH  24  29
ENDBRANCH   1  21
TORSDOF 8
ENDMDL
MODEL 5
REMARK VINA RESULT:      -8.4      1.788      2.196
REMARK  8 active torsions:
REMARK  status: ('A' for Active; 'I' for Inactive)
REMARK    1  A    between atoms: O_2  and  C_3 
REMARK    2  A    between atoms: C_4  and  O_5 
REMARK    3  A    between atoms: C_8  and  C_9 
REMARK    4  A    between atoms: C_14  and  C_15 
REMARK    5  A    between atoms: N_16  and  N_17 
REMARK       I    between atoms: N_17  and  C_18 
REMARK    6  A    between atoms: C_18  and  C_19 
REMARK    7  A    between atoms: C_19  and  C_20 
REMARK    8  A    between atoms: C_20  and  C_21 
ROOT
HETATM    1  C   UNL     1      24.687  49.396  48.656  1.00  0.00     0.100 A 
HETATM    2  N   UNL     1      25.150  50.301  47.774  1.00  0.00    -0.174 NA
HETATM    3  N   UNL     1      26.479  50.153  47.797  1.00  0.00    -0.288 N 
HETATM    4  H   UNL     1      27.039  50.754  47.203  1.00  0.00     0.188 HD
HETATM    5  C   UNL     1      26.902  49.180  48.643  1.00  0.00     0.124 A 
HETATM    6  C   UNL     1      25.768  48.640  49.216  1.00  0.00     0.031 A 
ENDROOT
BRANCH   6   7
HETATM    7  C   UNL     1      25.738  47.543  50.161  1.00  0.00     0.154 C 
HETATM    8  N   UNL     1      26.194  46.390  49.781  1.00  0.00    -0.184 NA
BRANCH   8   9
HETATM    9  N   UNL     1      26.174  45.342  50.667  1.00  0.00    -0.247 N 
HETATM   10  C   UNL     1      26.601  44.046  50.408  1.00  0.00     0.237 C 
HETATM   11  O   UNL     1      27.036  43.633  49.337  1.00  0.00    -0.272 OA
HETATM   12  H   UNL     1      26.105  45.637  51.637  1.00  0.00     0.192 HD
BRANCH  10  13
HETATM   13  C   UNL     1      26.488  43.135  51.615  1.00  0.00     0.105 C 
BRANCH  13  14
HETATM   14  C   UNL     1      27.840  42.853  52.269  1.00  0.00     0.014 C 
BRANCH  14  15
HETATM   15  C   UNL     1      27.799  42.559  53.787  1.00  0.00    -0.014 C 
HETATM   16  C   UNL     1      29.186  42.333  54.414  1.00  0.00     0.004 C 
HETATM   17  C   UNL     1      30.026  43.608  54.481  1.00  0.00     0.000 C 
HETATM   18  C   UNL     1      29.288  44.728  55.207  1.00  0.00     0.000 C 
HETATM   19  C   UNL     1      27.902  44.978  54.621  1.00  0.00     0.000 C 
HETATM   20  C   UNL     1      27.079  43.693  54.541  1.00  0.00     0.004 C 
ENDBRANCH  14  15
ENDBRANCH  13  14
ENDBRANCH  10  13
ENDBRANCH   8   9
ENDBRANCH   6   7
BRANCH   1  21
HETATM   21  C   UNL     1      23.246  49.312  48.921  1.00  0.00    -0.002 A 
HETATM   22  C   UNL     1      22.549  48.133  48.616  1.00  0.00     0.053 A 
HETATM   23  C   UNL     1      21.167  48.034  48.829  1.00  0.00     0.102 A 
HETATM   24  C   UNL     1      20.467  49.127  49.372  1.00  0.00     0.101 A 
HETATM   25  C   UNL     1      21.157  50.307  49.665  1.00  0.00     0.040 A 
HETATM   26  C   UNL     1      22.533  50.402  49.432  1.00  0.00     0.017 A 
BRANCH  23  27
HETATM   27  O   UNL     1      20.422  46.914  48.549  1.00  0.00    -0.353 OA
HETATM   28  C   UNL     1      21.115  45.679  48.448  1.00  0.00     0.210 C 
ENDBRANCH  23  27
BRANCH  24  29
HETATM   29  O   UNL     1      19.118  48.949  49.559  1.00  0.00    -0.353 OA
HETATM   30  C   UNL     1      18.317  50.107  49.733  1.00  0.00     0.210 C 
ENDBRANCH  24  29
ENDBRANCH   1  21
TORSDOF 8
ENDMDL
MODEL 6
REMARK VINA RESULT:      -8.4      2.695      9.489
REMARK  8 active torsions:
REMARK  status: ('A' for Active; 'I' for Inactive)
REMARK    1  A    between atoms: O_2  and  C_3 
REMARK    2  A    between atoms: C_4  and  O_5 
REMARK    3  A    between atoms: C_8  and  C_9 
REMARK    4  A    between atoms: C_14  and  C_15 
REMARK    5  A    between atoms: N_16  and  N_17 
REMARK       I    between atoms: N_17  and  C_18 
REMARK    6  A    between atoms: C_18  and  C_19 
REMARK    7  A    between atoms: C_19  and  C_20 
REMARK    8  A    between atoms: C_20  and  C_21 
ROOT
HETATM    1  C   UNL     1      27.861  42.740  52.807  1.00  0.00     0.100 A 
HETATM    2  N   UNL     1      27.733  41.430  53.089  1.00  0.00    -0.174 NA
HETATM    3  N   UNL     1      27.230  40.887  51.975  1.00  0.00    -0.288 N 
HETATM    4  H   UNL     1      27.041  39.891  51.970  1.00  0.00     0.188 HD
HETATM    5  C   UNL     1      27.039  41.783  50.974  1.00  0.00     0.124 A 
HETATM    6  C   UNL     1      27.455  43.007  51.459  1.00  0.00     0.031 A 
ENDROOT
BRANCH   6   7
HETATM    7  C   UNL     1      27.465  44.251  50.719  1.00  0.00     0.154 C 
HETATM    8  N   UNL     1      26.378  44.955  50.682  1.00  0.00    -0.184 NA
BRANCH   8   9
HETATM    9  N   UNL     1      26.374  46.138  49.985  1.00  0.00    -0.247 N 
HETATM   10  C   UNL     1      26.042  47.386  50.497  1.00  0.00     0.237 C 
HETATM   11  O   UNL     1      25.673  47.617  51.645  1.00  0.00    -0.272 OA
HETATM   12  H   UNL     1      26.924  46.104  49.132  1.00  0.00     0.192 HD
BRANCH  10  13
HETATM   13  C   UNL     1      26.182  48.499  49.477  1.00  0.00     0.105 C 
BRANCH  13  14
HETATM   14  C   UNL     1      24.902  48.728  48.675  1.00  0.00     0.014 C 
BRANCH  14  15
HETATM   15  C   UNL     1      23.607  48.863  49.510  1.00  0.00    -0.014 C 
HETATM   16  C   UNL     1      22.978  50.267  49.461  1.00  0.00     0.004 C 
HETATM   17  C   UNL     1      22.373  50.603  48.099  1.00  0.00     0.000 C 
HETATM   18  C   UNL     1      21.360  49.550  47.660  1.00  0.00     0.000 C 
HETATM   19  C   UNL     1      21.941  48.140  47.704  1.00  0.00     0.000 C 
HETATM   20  C   UNL     1      22.561  47.822  49.064  1.00  0.00     0.004 C 
ENDBRANCH  14  15
ENDBRANCH  13  14
ENDBRANCH  10  13
ENDBRANCH   8   9
ENDBRANCH   6   7
BRANCH   1  21
HETATM   21  C   UNL     1      28.353  43.659  53.840  1.00  0.00    -0.002 A 
HETATM   22  C   UNL     1      29.619  43.455  54.410  1.00  0.00     0.053 A 
HETATM   23  C   UNL     1      30.103  44.298  55.419  1.00  0.00     0.102 A 
HETATM   24  C   UNL     1      29.315  45.378  55.860  1.00  0.00     0.101 A 
HETATM   25  C   UNL     1      28.049  45.577  55.303  1.00  0.00     0.040 A 
HETATM   26  C   UNL     1      27.567  44.718  54.308  1.00  0.00     0.017 A 
BRANCH  23  27
HETATM   27  O   UNL     1      31.328  44.154  56.024  1.00  0.00    -0.353 OA
HETATM   28  C   UNL     1      31.478  43.082  56.945  1.00  0.00     0.210 C 
ENDBRANCH  23  27
BRANCH  24  29
HETATM   29  O   UNL     1      29.862  46.163  56.845  1.00  0.00    -0.353 OA
HETATM   30  C   UNL     1      29.400  45.973  58.174  1.00  0.00     0.210 C 
ENDBRANCH  24  29
ENDBRANCH   1  21
TORSDOF 8
ENDMDL
MODEL 7
REMARK VINA RESULT:      -8.4      2.259      8.854
REMARK  8 active torsions:
REMARK  status: ('A' for Active; 'I' for Inactive)
REMARK    1  A    between atoms: O_2  and  C_3 
REMARK    2  A    between atoms: C_4  and  O_5 
REMARK    3  A    between atoms: C_8  and  C_9 
REMARK    4  A    between atoms: C_14  and  C_15 
REMARK    5  A    between atoms: N_16  and  N_17 
REMARK       I    between atoms: N_17  and  C_18 
REMARK    6  A    between atoms: C_18  and  C_19 
REMARK    7  A    between atoms: C_19  and  C_20 
REMARK    8  A    between atoms: C_20  and  C_21 
ROOT
HETATM    1  C   UNL     1      26.189  48.090  49.494  1.00  0.00     0.100 A 
HETATM    2  N   UNL     1      27.342  48.447  48.898  1.00  0.00    -0.174 NA
HETATM    3  N   UNL     1      27.014  49.473  48.105  1.00  0.00    -0.288 N 
HETATM    4  H   UNL     1      27.744  49.899  47.545  1.00  0.00     0.188 HD
HETATM    5  C   UNL     1      25.701  49.810  48.169  1.00  0.00     0.124 A 
HETATM    6  C   UNL     1      25.120  48.948  49.078  1.00  0.00     0.031 A 
ENDROOT
BRANCH   6   7
HETATM    7  C   UNL     1      23.732  48.964  49.490  1.00  0.00     0.154 C 
HETATM    8  N   UNL     1      22.921  48.104  48.958  1.00  0.00    -0.184 NA
BRANCH   8   9
HETATM    9  N   UNL     1      21.603  48.106  49.341  1.00  0.00    -0.247 N 
HETATM   10  C   UNL     1      20.522  47.749  48.546  1.00  0.00     0.237 C 
HETATM   11  O   UNL     1      20.577  47.403  47.369  1.00  0.00    -0.272 OA
HETATM   12  H   UNL     1      21.478  48.098  50.349  1.00  0.00     0.192 HD
BRANCH  10  13
HETATM   13  C   UNL     1      19.199  47.817  49.285  1.00  0.00     0.105 C 
BRANCH  13  14
HETATM   14  C   UNL     1      18.245  48.852  48.688  1.00  0.00     0.014 C 
BRANCH  14  15
HETATM   15  C   UNL     1      17.914  50.058  49.599  1.00  0.00    -0.014 C 
HETATM   16  C   UNL     1      19.155  50.767  50.167  1.00  0.00     0.004 C 
HETATM   17  C   UNL     1      19.946  51.530  49.105  1.00  0.00     0.000 C 
HETATM   18  C   UNL     1      19.063  52.522  48.354  1.00  0.00     0.000 C 
HETATM   19  C   UNL     1      17.813  51.860  47.781  1.00  0.00     0.000 C 
HETATM   20  C   UNL     1      17.042  51.083  48.847  1.00  0.00     0.004 C 
ENDBRANCH  14  15
ENDBRANCH  13  14
ENDBRANCH  10  13
ENDBRANCH   8   9
ENDBRANCH   6   7
BRANCH   1  21
HETATM   21  C   UNL     1      26.172  46.946  50.414  1.00  0.00    -0.002 A 
HETATM   22  C   UNL     1      25.922  47.154  51.779  1.00  0.00     0.053 A 
HETATM   23  C   UNL     1      25.930  46.087  52.687  1.00  0.00     0.102 A 
HETATM   24  C   UNL     1      26.176  44.781  52.223  1.00  0.00     0.101 A 
HETATM   25  C   UNL     1      26.438  44.573  50.866  1.00  0.00     0.040 A 
HETATM   26  C   UNL     1      26.447  45.648  49.970  1.00  0.00     0.017 A 
BRANCH  23  27
HETATM   27  O   UNL     1      25.698  46.217  54.035  1.00  0.00    -0.353 OA
HETATM   28  C   UNL     1      26.330  47.301  54.702  1.00  0.00     0.210 C 
ENDBRANCH  23  27
BRANCH  24  29
HETATM   29  O   UNL     1      26.158  43.788  53.172  1.00  0.00    -0.353 OA
HETATM   30  C   UNL     1      27.371  43.096  53.426  1.00  0.00     0.210 C 
ENDBRANCH  24  29
ENDBRANCH   1  21
TORSDOF 8
ENDMDL
MODEL 8
REMARK VINA RESULT:      -8.3      1.799      2.777
REMARK  8 active torsions:
REMARK  status: ('A' for Active; 'I' for Inactive)
REMARK    1  A    between atoms: O_2  and  C_3 
REMARK    2  A    between atoms: C_4  and  O_5 
REMARK    3  A    between atoms: C_8  and  C_9 
REMARK    4  A    between atoms: C_14  and  C_15 
REMARK    5  A    between atoms: N_16  and  N_17 
REMARK       I    between atoms: N_17  and  C_18 
REMARK    6  A    between atoms: C_18  and  C_19 
REMARK    7  A    between atoms: C_19  and  C_20 
REMARK    8  A    between atoms: C_20  and  C_21 
ROOT
HETATM    1  C   UNL     1      23.633  49.502  48.471  1.00  0.00     0.100 A 
HETATM    2  N   UNL     1      23.929  50.581  47.723  1.00  0.00    -0.174 NA
HETATM    3  N   UNL     1      25.265  50.613  47.682  1.00  0.00    -0.288 N 
HETATM    4  H   UNL     1      25.712  51.365  47.169  1.00  0.00     0.188 HD
HETATM    5  C   UNL     1      25.854  49.593  48.356  1.00  0.00     0.124 A 
HETATM    6  C   UNL     1      24.830  48.825  48.875  1.00  0.00     0.031 A 
ENDROOT
BRANCH   6   7
HETATM    7  C   UNL     1      24.991  47.608  49.642  1.00  0.00     0.154 C 
HETATM    8  N   UNL     1      25.954  47.547  50.507  1.00  0.00    -0.184 NA
BRANCH   8   9
HETATM    9  N   UNL     1      26.117  46.400  51.243  1.00  0.00    -0.247 N 
HETATM   10  C   UNL     1      26.753  45.241  50.817  1.00  0.00     0.237 C 
HETATM   11  O   UNL     1      27.242  45.055  49.706  1.00  0.00    -0.272 OA
HETATM   12  H   UNL     1      26.008  46.545  52.242  1.00  0.00     0.192 HD
BRANCH  10  13
HETATM   13  C   UNL     1      26.803  44.168  51.888  1.00  0.00     0.105 C 
BRANCH  13  14
HETATM   14  C   UNL     1      28.071  44.244  52.738  1.00  0.00     0.014 C 
BRANCH  14  15
HETATM   15  C   UNL     1      27.971  43.608  54.144  1.00  0.00    -0.014 C 
HETATM   16  C   UNL     1      29.094  42.601  54.453  1.00  0.00     0.004 C 
HETATM   17  C   UNL     1      30.459  43.266  54.631  1.00  0.00     0.000 C 
HETATM   18  C   UNL     1      30.415  44.359  55.694  1.00  0.00     0.000 C 
HETATM   19  C   UNL     1      29.307  45.374  55.431  1.00  0.00     0.000 C 
HETATM   20  C   UNL     1      27.951  44.697  55.234  1.00  0.00     0.004 C 
ENDBRANCH  14  15
ENDBRANCH  13  14
ENDBRANCH  10  13
ENDBRANCH   8   9
ENDBRANCH   6   7
BRANCH   1  21
HETATM   21  C   UNL     1      22.230  49.185  48.765  1.00  0.00    -0.002 A 
HETATM   22  C   UNL     1      21.430  50.122  49.437  1.00  0.00     0.053 A 
HETATM   23  C   UNL     1      20.097  49.836  49.759  1.00  0.00     0.102 A 
HETATM   24  C   UNL     1      19.542  48.597  49.388  1.00  0.00     0.101 A 
HETATM   25  C   UNL     1      20.340  47.657  48.729  1.00  0.00     0.040 A 
HETATM   26  C   UNL     1      21.676  47.945  48.429  1.00  0.00     0.017 A 
BRANCH  23  27
HETATM   27  O   UNL     1      19.259  50.702  50.419  1.00  0.00    -0.353 OA
HETATM   28  C   UNL     1      18.853  51.872  49.724  1.00  0.00     0.210 C 
ENDBRANCH  23  27
BRANCH  24  29
HETATM   29  O   UNL     1      18.228  48.396  49.731  1.00  0.00    -0.353 OA
HETATM   30  C   UNL     1      17.446  47.560  48.891  1.00  0.00     0.210 C 
ENDBRANCH  24  29
ENDBRANCH   1  21
TORSDOF 8
ENDMDL
MODEL 9
REMARK VINA RESULT:      -8.2      2.808      9.425
REMARK  8 active torsions:
REMARK  status: ('A' for Active; 'I' for Inactive)
REMARK    1  A    between atoms: O_2  and  C_3 
REMARK    2  A    between atoms: C_4  and  O_5 
REMARK    3  A    between atoms: C_8  and  C_9 
REMARK    4  A    between atoms: C_14  and  C_15 
REMARK    5  A    between atoms: N_16  and  N_17 
REMARK       I    between atoms: N_17  and  C_18 
REMARK    6  A    between atoms: C_18  and  C_19 
REMARK    7  A    between atoms: C_19  and  C_20 
REMARK    8  A    between atoms: C_20  and  C_21 
ROOT
HETATM    1  C   UNL     1      25.559  44.399  50.195  1.00  0.00     0.100 A 
HETATM    2  N   UNL     1      25.600  43.228  49.532  1.00  0.00    -0.174 NA
HETATM    3  N   UNL     1      24.757  43.386  48.506  1.00  0.00    -0.288 N 
HETATM    4  H   UNL     1      24.625  42.607  47.870  1.00  0.00     0.188 HD
HETATM    5  C   UNL     1      24.180  44.613  48.461  1.00  0.00     0.124 A 
HETATM    6  C   UNL     1      24.686  45.322  49.533  1.00  0.00     0.031 A 
ENDROOT
BRANCH   6   7
HETATM    7  C   UNL     1      24.374  46.698  49.859  1.00  0.00     0.154 C 
HETATM    8  N   UNL     1      23.463  47.305  49.163  1.00  0.00    -0.184 NA
BRANCH   8   9
HETATM    9  N   UNL     1      23.156  48.609  49.463  1.00  0.00    -0.247 N 
HETATM   10  C   UNL     1      23.217  49.684  48.587  1.00  0.00     0.237 C 
HETATM   11  O   UNL     1      23.583  49.637  47.415  1.00  0.00    -0.272 OA
HETATM   12  H   UNL     1      22.584  48.705  50.297  1.00  0.00     0.192 HD
BRANCH  10  13
HETATM   13  C   UNL     1      22.769  50.988  49.219  1.00  0.00     0.105 C 
BRANCH  13  14
HETATM   14  C   UNL     1      21.291  50.975  49.607  1.00  0.00     0.014 C 
BRANCH  14  15
HETATM   15  C   UNL     1      20.291  51.093  48.433  1.00  0.00    -0.014 C 
HETATM   16  C   UNL     1      19.390  49.858  48.257  1.00  0.00     0.004 C 
HETATM   17  C   UNL     1      18.363  49.703  49.378  1.00  0.00     0.000 C 
HETATM   18  C   UNL     1      17.517  50.962  49.541  1.00  0.00     0.000 C 
HETATM   19  C   UNL     1      18.373  52.214  49.709  1.00  0.00     0.000 C 
HETATM   20  C   UNL     1      19.409  52.347  48.594  1.00  0.00     0.004 C 
ENDBRANCH  14  15
ENDBRANCH  13  14
ENDBRANCH  10  13
ENDBRANCH   8   9
ENDBRANCH   6   7
BRANCH   1  21
HETATM   21  C   UNL     1      26.344  44.566  51.423  1.00  0.00    -0.002 A 
HETATM   22  C   UNL     1      27.572  43.899  51.562  1.00  0.00     0.053 A 
HETATM   23  C   UNL     1      28.329  44.014  52.735  1.00  0.00     0.102 A 
HETATM   24  C   UNL     1      27.863  44.823  53.788  1.00  0.00     0.101 A 
HETATM   25  C   UNL     1      26.635  45.478  53.657  1.00  0.00     0.040 A 
HETATM   26  C   UNL     1      25.877  45.342  52.489  1.00  0.00     0.017 A 
BRANCH  23  27
HETATM   27  O   UNL     1      29.534  43.387  52.940  1.00  0.00    -0.353 OA
HETATM   28  C   UNL     1      29.527  41.968  53.008  1.00  0.00     0.210 C 
ENDBRANCH  23  27
BRANCH  24  29
HETATM   29  O   UNL     1      28.666  44.892  54.900  1.00  0.00    -0.353 OA
HETATM   30  C   UNL     1      28.866  46.166  55.493  1.00  0.00     0.210 C 
ENDBRANCH  24  29
ENDBRANCH   1  21
TORSDOF 8
ENDMDL
MODEL 10
REMARK VINA RESULT:      -7.7      2.835      9.158
REMARK  8 active torsions:
REMARK  status: ('A' for Active; 'I' for Inactive)
REMARK    1  A    between atoms: O_2  and  C_3 
REMARK    2  A    between atoms: C_4  and  O_5 
REMARK    3  A    between atoms: C_8  and  C_9 
REMARK    4  A    between atoms: C_14  and  C_15 
REMARK    5  A    between atoms: N_16  and  N_17 
REMARK       I    between atoms: N_17  and  C_18 
REMARK    6  A    between atoms: C_18  and  C_19 
REMARK    7  A    between atoms: C_19  and  C_20 
REMARK    8  A    between atoms: C_20  and  C_21 
ROOT
HETATM    1  C   UNL     1      26.267  48.545  49.357  1.00  0.00     0.100 A 
HETATM    2  N   UNL     1      27.610  48.634  49.341  1.00  0.00    -0.174 NA
HETATM    3  N   UNL     1      27.869  49.798  48.736  1.00  0.00    -0.288 N 
HETATM    4  H   UNL     1      28.839  50.066  48.606  1.00  0.00     0.188 HD
HETATM    5  C   UNL     1      26.755  50.480  48.371  1.00  0.00     0.124 A 
HETATM    6  C   UNL     1      25.678  49.713  48.772  1.00  0.00     0.031 A 
ENDROOT
BRANCH   6   7
HETATM    7  C   UNL     1      24.283  50.069  48.619  1.00  0.00     0.154 C 
HETATM    8  N   UNL     1      23.691  49.774  47.503  1.00  0.00    -0.184 NA
BRANCH   8   9
HETATM    9  N   UNL     1      22.368  50.103  47.345  1.00  0.00    -0.247 N 
HETATM   10  C   UNL     1      21.285  49.399  47.856  1.00  0.00     0.237 C 
HETATM   11  O   UNL     1      21.345  48.358  48.503  1.00  0.00    -0.272 OA
HETATM   12  H   UNL     1      22.224  51.073  47.080  1.00  0.00     0.192 HD
BRANCH  10  13
HETATM   13  C   UNL     1      19.953  50.053  47.539  1.00  0.00     0.105 C 
BRANCH  13  14
HETATM   14  C   UNL     1      19.355  50.781  48.742  1.00  0.00     0.014 C 
BRANCH  14  15
HETATM   15  C   UNL     1      18.717  52.157  48.439  1.00  0.00    -0.014 C 
HETATM   16  C   UNL     1      17.880  52.184  47.148  1.00  0.00     0.004 C 
HETATM   17  C   UNL     1      16.584  51.382  47.260  1.00  0.00     0.000 C 
HETATM   18  C   UNL     1      15.743  51.838  48.449  1.00  0.00     0.000 C 
HETATM   19  C   UNL     1      16.540  51.836  49.750  1.00  0.00     0.000 C 
HETATM   20  C   UNL     1      17.843  52.623  49.621  1.00  0.00     0.004 C 
ENDBRANCH  14  15
ENDBRANCH  13  14
ENDBRANCH  10  13
ENDBRANCH   8   9
ENDBRANCH   6   7
BRANCH   1  21
HETATM   21  C   UNL     1      25.625  47.351  49.918  1.00  0.00    -0.002 A 
HETATM   22  C   UNL     1      26.049  46.850  51.159  1.00  0.00     0.053 A 
HETATM   23  C   UNL     1      25.476  45.693  51.705  1.00  0.00     0.102 A 
HETATM   24  C   UNL     1      24.448  45.030  51.009  1.00  0.00     0.101 A 
HETATM   25  C   UNL     1      24.033  45.520  49.768  1.00  0.00     0.040 A 
HETATM   26  C   UNL     1      24.624  46.665  49.221  1.00  0.00     0.017 A 
BRANCH  23  27
HETATM   27  O   UNL     1      25.844  45.145  52.910  1.00  0.00    -0.353 OA
HETATM   28  C   UNL     1      27.156  44.609  53.008  1.00  0.00     0.210 C 
ENDBRANCH  23  27
BRANCH  24  29
HETATM   29  O   UNL     1      23.933  43.910  51.615  1.00  0.00    -0.353 OA
HETATM   30  C   UNL     1      24.050  42.675  50.926  1.00  0.00     0.210 C 
ENDBRANCH  24  29
ENDBRANCH   1  21
TORSDOF 8
ENDMDL
