MODEL 1
REMARK VINA RESULT:      -9.9      0.000      0.000
REMARK  7 active torsions:
REMARK  status: ('A' for Active; 'I' for Inactive)
REMARK       I    between atoms: C_2  and  N_3 
REMARK    1  A    between atoms: N_3  and  C_4 
REMARK    2  A    between atoms: C_7  and  N_8 
REMARK       I    between atoms: N_8  and  C_9 
REMARK    3  A    between atoms: C_9  and  C_10 
REMARK       I    between atoms: C_10  and  N_11 
REMARK    4  A    between atoms: N_11  and  C_12 
REMARK    5  A    between atoms: C_12  and  C_13 
REMARK    6  A    between atoms: C_13  and  O_14 
REMARK    7  A    between atoms: C_13  and  C_15 
ROOT
HETATM    1  C   UNL     1      26.515  46.110  50.176  1.00  0.00     0.309 C 
HETATM    2  N   UNL     1      26.566  45.171  51.169  1.00  0.00    -0.350 N 
HETATM    3  O   UNL     1      27.259  46.186  49.207  1.00  0.00    -0.262 OA
HETATM    4  H   UNL     1      25.792  45.152  51.829  1.00  0.00     0.163 HD
ENDROOT
BRANCH   1   5
HETATM    5  C   UNL     1      25.378  47.142  50.360  1.00  0.00     0.313 C 
HETATM    6  N   UNL     1      24.821  47.517  49.156  1.00  0.00    -0.319 N 
HETATM    7  H   UNL     1      25.203  47.031  48.348  1.00  0.00     0.169 HD
HETATM    8  O   UNL     1      25.090  47.506  51.492  1.00  0.00    -0.262 OA
BRANCH   6   9
HETATM    9  C   UNL     1      23.840  48.499  48.934  1.00  0.00     0.035 A 
HETATM   10  C   UNL     1      24.124  49.852  48.756  1.00  0.00     0.032 A 
HETATM   11  C   UNL     1      23.099  50.769  48.487  1.00  0.00     0.032 A 
HETATM   12  C   UNL     1      21.772  50.350  48.401  1.00  0.00     0.034 A 
HETATM   13  C   UNL     1      21.485  48.997  48.605  1.00  0.00     0.032 A 
HETATM   14  C   UNL     1      22.510  48.078  48.862  1.00  0.00     0.032 A 
BRANCH  12  15
HETATM   15  N   UNL     1      20.690  51.206  48.111  1.00  0.00    -0.328 N 
HETATM   16  C   UNL     1      19.739  51.688  48.993  1.00  0.00     0.218 C 
HETATM   17  C   UNL     1      18.749  52.609  48.324  1.00  0.00     0.117 C 
HETATM   18  O   UNL     1      19.669  51.469  50.197  1.00  0.00    -0.274 OA
HETATM   19  H   UNL     1      20.628  51.530  47.155  1.00  0.00     0.169 HD
ENDBRANCH  12  15
ENDBRANCH   6   9
ENDBRANCH   1   5
BRANCH   2  20
HETATM   20  C   UNL     1      27.538  44.093  51.215  1.00  0.00     0.159 C 
BRANCH  20  21
HETATM   21  C   UNL     1      27.623  43.416  52.598  1.00  0.00     0.171 C 
BRANCH  21  22
HETATM   22  O   UNL     1      26.359  42.800  52.889  1.00  0.00    -0.389 OA
HETATM   23  H   UNL     1      26.234  42.891  53.850  1.00  0.00     0.210 HD
ENDBRANCH  21  22
BRANCH  21  24
HETATM   24  C   UNL     1      28.024  44.346  53.710  1.00  0.00     0.000 A 
HETATM   25  C   UNL     1      29.106  44.165  54.635  1.00  0.00     0.001 A 
HETATM   26  C   UNL     1      29.101  45.252  55.517  1.00  0.00     0.044 A 
HETATM   27  C   UNL     1      30.088  43.165  54.805  1.00  0.00     0.014 A 
HETATM   28  C   UNL     1      30.041  45.373  56.555  1.00  0.00     0.030 A 
HETATM   29  N   UNL     1      28.057  46.067  55.141  1.00  0.00    -0.360 N 
HETATM   30  C   UNL     1      30.996  44.364  56.704  1.00  0.00     0.002 A 
HETATM   31  C   UNL     1      31.022  43.274  55.842  1.00  0.00     0.001 A 
HETATM   32  C   UNL     1      27.678  47.318  55.761  1.00  0.00     0.155 C 
HETATM   33  C   UNL     1      27.394  45.524  54.073  1.00  0.00     0.101 A 
ENDBRANCH  21  24
ENDBRANCH  20  21
ENDBRANCH   2  20
TORSDOF 7
ENDMDL
MODEL 2
REMARK VINA RESULT:      -9.6      2.213      3.499
REMARK  7 active torsions:
REMARK  status: ('A' for Active; 'I' for Inactive)
REMARK       I    between atoms: C_2  and  N_3 
REMARK    1  A    between atoms: N_3  and  C_4 
REMARK    2  A    between atoms: C_7  and  N_8 
REMARK       I    between atoms: N_8  and  C_9 
REMARK    3  A    between atoms: C_9  and  C_10 
REMARK       I    between atoms: C_10  and  N_11 
REMARK    4  A    between atoms: N_11  and  C_12 
REMARK    5  A    between atoms: C_12  and  C_13 
REMARK    6  A    between atoms: C_13  and  O_14 
REMARK    7  A    between atoms: C_13  and  C_15 
ROOT
HETATM    1  C   UNL     1      23.753  48.114  49.542  1.00  0.00     0.309 C 
HETATM    2  N   UNL     1      23.942  46.773  49.740  1.00  0.00    -0.350 N 
HETATM    3  O   UNL     1      24.612  48.985  49.591  1.00  0.00    -0.262 OA
HETATM    4  H   UNL     1      23.161  46.159  49.524  1.00  0.00     0.163 HD
ENDROOT
BRANCH   1   5
HETATM    5  C   UNL     1      22.287  48.490  49.226  1.00  0.00     0.313 C 
HETATM    6  N   UNL     1      22.013  49.805  49.539  1.00  0.00    -0.319 N 
HETATM    7  H   UNL     1      22.814  50.331  49.879  1.00  0.00     0.169 HD
HETATM    8  O   UNL     1      21.549  47.638  48.751  1.00  0.00    -0.262 OA
BRANCH   6   9
HETATM    9  C   UNL     1      20.770  50.459  49.477  1.00  0.00     0.035 A 
HETATM   10  C   UNL     1      19.682  50.134  50.285  1.00  0.00     0.032 A 
HETATM   11  C   UNL     1      18.488  50.864  50.205  1.00  0.00     0.032 A 
HETATM   12  C   UNL     1      18.360  51.925  49.310  1.00  0.00     0.034 A 
HETATM   13  C   UNL     1      19.443  52.234  48.481  1.00  0.00     0.032 A 
HETATM   14  C   UNL     1      20.640  51.513  48.569  1.00  0.00     0.032 A 
BRANCH  12  15
HETATM   15  N   UNL     1      17.202  52.720  49.187  1.00  0.00    -0.328 N 
HETATM   16  C   UNL     1      15.928  52.304  48.841  1.00  0.00     0.218 C 
HETATM   17  C   UNL     1      14.933  53.438  48.844  1.00  0.00     0.117 C 
HETATM   18  O   UNL     1      15.568  51.160  48.588  1.00  0.00    -0.274 OA
HETATM   19  H   UNL     1      17.314  53.699  49.414  1.00  0.00     0.169 HD
ENDBRANCH  12  15
ENDBRANCH   6   9
ENDBRANCH   1   5
BRANCH   2  20
HETATM   20  C   UNL     1      25.229  46.173  50.042  1.00  0.00     0.159 C 
BRANCH  20  21
HETATM   21  C   UNL     1      25.184  45.229  51.262  1.00  0.00     0.171 C 
BRANCH  21  22
HETATM   22  O   UNL     1      23.812  44.924  51.557  1.00  0.00    -0.389 OA
HETATM   23  H   UNL     1      23.760  44.850  52.526  1.00  0.00     0.210 HD
ENDBRANCH  21  22
BRANCH  21  24
HETATM   24  C   UNL     1      25.877  45.773  52.481  1.00  0.00     0.000 A 
HETATM   25  C   UNL     1      26.984  45.181  53.176  1.00  0.00     0.001 A 
HETATM   26  C   UNL     1      27.293  46.002  54.267  1.00  0.00     0.044 A 
HETATM   27  C   UNL     1      27.749  44.011  52.978  1.00  0.00     0.014 A 
HETATM   28  C   UNL     1      28.335  45.696  55.158  1.00  0.00     0.030 A 
HETATM   29  N   UNL     1      26.408  47.057  54.235  1.00  0.00    -0.360 N 
HETATM   30  C   UNL     1      29.069  44.528  54.941  1.00  0.00     0.002 A 
HETATM   31  C   UNL     1      28.783  43.694  53.866  1.00  0.00     0.001 A 
HETATM   32  C   UNL     1      26.360  48.166  55.163  1.00  0.00     0.155 C 
HETATM   33  C   UNL     1      25.544  46.919  53.181  1.00  0.00     0.101 A 
ENDBRANCH  21  24
ENDBRANCH  20  21
ENDBRANCH   2  20
TORSDOF 7
ENDMDL
MODEL 3
REMARK VINA RESULT:      -9.6      2.148     11.016
REMARK  7 active torsions:
REMARK  status: ('A' for Active; 'I' for Inactive)
REMARK       I    between atoms: C_2  and  N_3 
REMARK    1  A    between atoms: N_3  and  C_4 
REMARK    2  A    between atoms: C_7  and  N_8 
REMARK       I    between atoms: N_8  and  C_9 
REMARK    3  A    between atoms: C_9  and  C_10 
REMARK       I    between atoms: C_10  and  N_11 
REMARK    4  A    between atoms: N_11  and  C_12 
REMARK    5  A    between atoms: C_12  and  C_13 
REMARK    6  A    between atoms: C_13  and  O_14 
REMARK    7  A    between atoms: C_13  and  C_15 
ROOT
HETATM    1  C   UNL     1      24.595  46.363  50.115  1.00  0.00     0.309 C 
HETATM    2  N   UNL     1      23.861  47.514  50.011  1.00  0.00    -0.350 N 
HETATM    3  O   UNL     1      24.487  45.366  49.415  1.00  0.00    -0.262 OA
HETATM    4  H   UNL     1      24.163  48.308  50.569  1.00  0.00     0.163 HD
ENDROOT
BRANCH   1   5
HETATM    5  C   UNL     1      25.646  46.404  51.248  1.00  0.00     0.313 C 
HETATM    6  N   UNL     1      26.238  45.174  51.447  1.00  0.00    -0.319 N 
HETATM    7  H   UNL     1      25.933  44.453  50.798  1.00  0.00     0.169 HD
HETATM    8  O   UNL     1      25.848  47.462  51.828  1.00  0.00    -0.262 OA
BRANCH   6   9
HETATM    9  C   UNL     1      27.158  44.818  52.448  1.00  0.00     0.035 A 
HETATM   10  C   UNL     1      27.073  45.253  53.769  1.00  0.00     0.032 A 
HETATM   11  C   UNL     1      27.998  44.816  54.728  1.00  0.00     0.032 A 
HETATM   12  C   UNL     1      29.027  43.943  54.379  1.00  0.00     0.034 A 
HETATM   13  C   UNL     1      29.127  43.527  53.048  1.00  0.00     0.032 A 
HETATM   14  C   UNL     1      28.197  43.954  52.092  1.00  0.00     0.032 A 
BRANCH  12  15
HETATM   15  N   UNL     1      29.980  43.441  55.289  1.00  0.00    -0.328 N 
HETATM   16  C   UNL     1      30.798  44.166  56.137  1.00  0.00     0.218 C 
HETATM   17  C   UNL     1      31.670  43.280  56.992  1.00  0.00     0.117 C 
HETATM   18  O   UNL     1      30.837  45.385  56.262  1.00  0.00    -0.274 OA
HETATM   19  H   UNL     1      30.043  42.433  55.350  1.00  0.00     0.169 HD
ENDBRANCH  12  15
ENDBRANCH   6   9
ENDBRANCH   1   5
BRANCH   2  20
HETATM   20  C   UNL     1      22.820  47.722  49.020  1.00  0.00     0.159 C 
BRANCH  20  21
HETATM   21  C   UNL     1      22.208  49.138  49.077  1.00  0.00     0.171 C 
BRANCH  21  22
HETATM   22  O   UNL     1      22.664  49.789  50.272  1.00  0.00    -0.389 OA
HETATM   23  H   UNL     1      22.687  50.739  50.064  1.00  0.00     0.210 HD
ENDBRANCH  21  22
BRANCH  21  24
HETATM   24  C   UNL     1      20.706  49.157  49.007  1.00  0.00     0.000 A 
HETATM   25  C   UNL     1      19.869  50.304  48.800  1.00  0.00     0.001 A 
HETATM   26  C   UNL     1      18.537  49.875  48.835  1.00  0.00     0.044 A 
HETATM   27  C   UNL     1      20.128  51.677  48.595  1.00  0.00     0.014 A 
HETATM   28  C   UNL     1      17.463  50.765  48.668  1.00  0.00     0.030 A 
HETATM   29  N   UNL     1      18.562  48.515  49.051  1.00  0.00    -0.360 N 
HETATM   30  C   UNL     1      17.750  52.119  48.474  1.00  0.00     0.002 A 
HETATM   31  C   UNL     1      19.063  52.572  48.437  1.00  0.00     0.001 A 
HETATM   32  C   UNL     1      17.414  47.640  49.146  1.00  0.00     0.155 C 
HETATM   33  C   UNL     1      19.854  48.079  49.175  1.00  0.00     0.101 A 
ENDBRANCH  21  24
ENDBRANCH  20  21
ENDBRANCH   2  20
TORSDOF 7
ENDMDL
MODEL 4
REMARK VINA RESULT:      -9.3      2.179      4.065
REMARK  7 active torsions:
REMARK  status: ('A' for Active; 'I' for Inactive)
REMARK       I    between atoms: C_2  and  N_3 
REMARK    1  A    between atoms: N_3  and  C_4 
REMARK    2  A    between atoms: C_7  and  N_8 
REMARK       I    between atoms: N_8  and  C_9 
REMARK    3  A    between atoms: C_9  and  C_10 
REMARK       I    between atoms: C_10  and  N_11 
REMARK    4  A    between atoms: N_11  and  C_12 
REMARK    5  A    between atoms: C_12  and  C_13 
REMARK    6  A    between atoms: C_13  and  O_14 
REMARK    7  A    between atoms: C_13  and  C_15 
ROOT
HETATM    1  C   UNL     1      23.475  48.066  49.235  1.00  0.00     0.309 C 
HETATM    2  N   UNL     1      23.503  46.820  49.800  1.00  0.00    -0.350 N 
HETATM    3  O   UNL     1      24.440  48.779  48.998  1.00  0.00    -0.262 OA
HETATM    4  H   UNL     1      22.634  46.292  49.801  1.00  0.00     0.163 HD
ENDROOT
BRANCH   1   5
HETATM    5  C   UNL     1      22.049  48.551  48.885  1.00  0.00     0.313 C 
HETATM    6  N   UNL     1      21.769  49.779  49.447  1.00  0.00    -0.319 N 
HETATM    7  H   UNL     1      22.545  50.193  49.957  1.00  0.00     0.169 HD
HETATM    8  O   UNL     1      21.342  47.846  48.178  1.00  0.00    -0.262 OA
BRANCH   6   9
HETATM    9  C   UNL     1      20.549  50.475  49.422  1.00  0.00     0.035 A 
HETATM   10  C   UNL     1      19.455  50.152  50.225  1.00  0.00     0.032 A 
HETATM   11  C   UNL     1      18.285  50.923  50.185  1.00  0.00     0.032 A 
HETATM   12  C   UNL     1      18.186  52.023  49.335  1.00  0.00     0.034 A 
HETATM   13  C   UNL     1      19.273  52.331  48.511  1.00  0.00     0.032 A 
HETATM   14  C   UNL     1      20.446  51.569  48.559  1.00  0.00     0.032 A 
BRANCH  12  15
HETATM   15  N   UNL     1      17.053  52.860  49.254  1.00  0.00    -0.328 N 
HETATM   16  C   UNL     1      15.775  52.509  48.857  1.00  0.00     0.218 C 
HETATM   17  C   UNL     1      14.812  53.669  48.930  1.00  0.00     0.117 C 
HETATM   18  O   UNL     1      15.387  51.399  48.513  1.00  0.00    -0.274 OA
HETATM   19  H   UNL     1      17.189  53.815  49.557  1.00  0.00     0.169 HD
ENDBRANCH  12  15
ENDBRANCH   6   9
ENDBRANCH   1   5
BRANCH   2  20
HETATM   20  C   UNL     1      24.721  46.144  50.208  1.00  0.00     0.159 C 
BRANCH  20  21
HETATM   21  C   UNL     1      25.350  46.749  51.481  1.00  0.00     0.171 C 
BRANCH  21  22
HETATM   22  O   UNL     1      26.148  47.882  51.107  1.00  0.00    -0.389 OA
HETATM   23  H   UNL     1      25.533  48.634  51.055  1.00  0.00     0.210 HD
ENDBRANCH  21  22
BRANCH  21  24
HETATM   24  C   UNL     1      26.165  45.772  52.284  1.00  0.00     0.000 A 
HETATM   25  C   UNL     1      26.895  46.047  53.488  1.00  0.00     0.001 A 
HETATM   26  C   UNL     1      27.531  44.864  53.881  1.00  0.00     0.044 A 
HETATM   27  C   UNL     1      27.079  47.203  54.276  1.00  0.00     0.014 A 
HETATM   28  C   UNL     1      28.337  44.798  55.031  1.00  0.00     0.030 A 
HETATM   29  N   UNL     1      27.198  43.903  52.953  1.00  0.00    -0.360 N 
HETATM   30  C   UNL     1      28.507  45.961  55.787  1.00  0.00     0.002 A 
HETATM   31  C   UNL     1      27.887  47.149  55.417  1.00  0.00     0.001 A 
HETATM   32  C   UNL     1      27.616  42.518  52.962  1.00  0.00     0.155 C 
HETATM   33  C   UNL     1      26.396  44.441  51.982  1.00  0.00     0.101 A 
ENDBRANCH  21  24
ENDBRANCH  20  21
ENDBRANCH   2  20
TORSDOF 7
ENDMDL
MODEL 5
REMARK VINA RESULT:      -9.2      1.744      2.853
REMARK  7 active torsions:
REMARK  status: ('A' for Active; 'I' for Inactive)
REMARK       I    between atoms: C_2  and  N_3 
REMARK    1  A    between atoms: N_3  and  C_4 
REMARK    2  A    between atoms: C_7  and  N_8 
REMARK       I    between atoms: N_8  and  C_9 
REMARK    3  A    between atoms: C_9  and  C_10 
REMARK       I    between atoms: C_10  and  N_11 
REMARK    4  A    between atoms: N_11  and  C_12 
REMARK    5  A    between atoms: C_12  and  C_13 
REMARK    6  A    between atoms: C_13  and  O_14 
REMARK    7  A    between atoms: C_13  and  C_15 
ROOT
HETATM    1  C   UNL     1      25.707  48.435  49.443  1.00  0.00     0.309 C 
HETATM    2  N   UNL     1      25.312  47.405  50.252  1.00  0.00    -0.350 N 
HETATM    3  O   UNL     1      26.856  48.803  49.242  1.00  0.00    -0.262 OA
HETATM    4  H   UNL     1      24.335  47.127  50.205  1.00  0.00     0.163 HD
ENDROOT
BRANCH   1   5
HETATM    5  C   UNL     1      24.530  49.155  48.743  1.00  0.00     0.313 C 
HETATM    6  N   UNL     1      23.357  49.044  49.461  1.00  0.00    -0.319 N 
HETATM    7  H   UNL     1      23.454  48.556  50.348  1.00  0.00     0.169 HD
HETATM    8  O   UNL     1      24.736  49.727  47.682  1.00  0.00    -0.262 OA
BRANCH   6   9
HETATM    9  C   UNL     1      22.078  49.487  49.085  1.00  0.00     0.035 A 
HETATM   10  C   UNL     1      20.987  48.638  48.900  1.00  0.00     0.032 A 
HETATM   11  C   UNL     1      19.725  49.155  48.575  1.00  0.00     0.032 A 
HETATM   12  C   UNL     1      19.536  50.527  48.420  1.00  0.00     0.034 A 
HETATM   13  C   UNL     1      20.635  51.376  48.581  1.00  0.00     0.032 A 
HETATM   14  C   UNL     1      21.894  50.862  48.917  1.00  0.00     0.032 A 
BRANCH  12  15
HETATM   15  N   UNL     1      18.294  51.124  48.118  1.00  0.00    -0.328 N 
HETATM   16  C   UNL     1      17.323  51.543  49.010  1.00  0.00     0.218 C 
HETATM   17  C   UNL     1      16.137  52.168  48.316  1.00  0.00     0.117 C 
HETATM   18  O   UNL     1      17.368  51.483  50.233  1.00  0.00    -0.274 OA
HETATM   19  H   UNL     1      18.115  51.296  47.137  1.00  0.00     0.169 HD
ENDBRANCH  12  15
ENDBRANCH   6   9
ENDBRANCH   1   5
BRANCH   2  20
HETATM   20  C   UNL     1      26.230  46.573  51.009  1.00  0.00     0.159 C 
BRANCH  20  21
HETATM   21  C   UNL     1      25.771  46.337  52.464  1.00  0.00     0.171 C 
BRANCH  21  22
HETATM   22  O   UNL     1      25.160  47.540  52.955  1.00  0.00    -0.389 OA
HETATM   23  H   UNL     1      25.762  47.882  53.639  1.00  0.00     0.210 HD
ENDBRANCH  21  22
BRANCH  21  24
HETATM   24  C   UNL     1      26.871  45.890  53.386  1.00  0.00     0.000 A 
HETATM   25  C   UNL     1      27.730  44.753  53.213  1.00  0.00     0.001 A 
HETATM   26  C   UNL     1      28.587  44.693  54.319  1.00  0.00     0.044 A 
HETATM   27  C   UNL     1      27.849  43.762  52.215  1.00  0.00     0.014 A 
HETATM   28  C   UNL     1      29.555  43.683  54.456  1.00  0.00     0.030 A 
HETATM   29  N   UNL     1      28.265  45.755  55.133  1.00  0.00    -0.360 N 
HETATM   30  C   UNL     1      29.644  42.711  53.456  1.00  0.00     0.002 A 
HETATM   31  C   UNL     1      28.804  42.748  52.349  1.00  0.00     0.001 A 
HETATM   32  C   UNL     1      28.900  46.101  56.386  1.00  0.00     0.155 C 
HETATM   33  C   UNL     1      27.226  46.466  54.594  1.00  0.00     0.101 A 
ENDBRANCH  21  24
ENDBRANCH  20  21
ENDBRANCH   2  20
TORSDOF 7
ENDMDL
MODEL 6
REMARK VINA RESULT:      -9.2      2.288      3.827
REMARK  7 active torsions:
REMARK  status: ('A' for Active; 'I' for Inactive)
REMARK       I    between atoms: C_2  and  N_3 
REMARK    1  A    between atoms: N_3  and  C_4 
REMARK    2  A    between atoms: C_7  and  N_8 
REMARK       I    between atoms: N_8  and  C_9 
REMARK    3  A    between atoms: C_9  and  C_10 
REMARK       I    between atoms: C_10  and  N_11 
REMARK    4  A    between atoms: N_11  and  C_12 
REMARK    5  A    between atoms: C_12  and  C_13 
REMARK    6  A    between atoms: C_13  and  O_14 
REMARK    7  A    between atoms: C_13  and  C_15 
ROOT
HETATM    1  C   UNL     1      23.737  48.120  49.567  1.00  0.00     0.309 C 
HETATM    2  N   UNL     1      23.884  46.800  49.898  1.00  0.00    -0.350 N 
HETATM    3  O   UNL     1      24.622  48.964  49.531  1.00  0.00    -0.262 OA
HETATM    4  H   UNL     1      23.085  46.192  49.743  1.00  0.00     0.163 HD
ENDROOT
BRANCH   1   5
HETATM    5  C   UNL     1      22.283  48.508  49.212  1.00  0.00     0.313 C 
HETATM    6  N   UNL     1      21.993  49.808  49.572  1.00  0.00    -0.319 N 
HETATM    7  H   UNL     1      22.780  50.319  49.964  1.00  0.00     0.169 HD
HETATM    8  O   UNL     1      21.566  47.677  48.673  1.00  0.00    -0.262 OA
BRANCH   6   9
HETATM    9  C   UNL     1      20.753  50.462  49.491  1.00  0.00     0.035 A 
HETATM   10  C   UNL     1      19.652  50.140  50.284  1.00  0.00     0.032 A 
HETATM   11  C   UNL     1      18.460  50.871  50.186  1.00  0.00     0.032 A 
HETATM   12  C   UNL     1      18.346  51.930  49.287  1.00  0.00     0.034 A 
HETATM   13  C   UNL     1      19.441  52.237  48.473  1.00  0.00     0.032 A 
HETATM   14  C   UNL     1      20.636  51.515  48.579  1.00  0.00     0.032 A 
BRANCH  12  15
HETATM   15  N   UNL     1      17.190  52.726  49.147  1.00  0.00    -0.328 N 
HETATM   16  C   UNL     1      15.914  52.305  48.816  1.00  0.00     0.218 C 
HETATM   17  C   UNL     1      14.922  53.443  48.791  1.00  0.00     0.117 C 
HETATM   18  O   UNL     1      15.549  51.156  48.595  1.00  0.00    -0.274 OA
HETATM   19  H   UNL     1      17.306  53.710  49.347  1.00  0.00     0.169 HD
ENDBRANCH  12  15
ENDBRANCH   6   9
ENDBRANCH   1   5
BRANCH   2  20
HETATM   20  C   UNL     1      25.153  46.194  50.261  1.00  0.00     0.159 C 
BRANCH  20  21
HETATM   21  C   UNL     1      24.991  44.823  50.950  1.00  0.00     0.171 C 
BRANCH  21  22
HETATM   22  O   UNL     1      23.640  44.701  51.422  1.00  0.00    -0.389 OA
HETATM   23  H   UNL     1      23.166  45.475  51.070  1.00  0.00     0.210 HD
ENDBRANCH  21  22
BRANCH  21  24
HETATM   24  C   UNL     1      25.964  44.584  52.072  1.00  0.00     0.000 A 
HETATM   25  C   UNL     1      26.747  43.403  52.294  1.00  0.00     0.001 A 
HETATM   26  C   UNL     1      27.491  43.596  53.464  1.00  0.00     0.044 A 
HETATM   27  C   UNL     1      26.885  42.178  51.605  1.00  0.00     0.014 A 
HETATM   28  C   UNL     1      28.363  42.614  53.963  1.00  0.00     0.030 A 
HETATM   29  N   UNL     1      27.174  44.851  53.936  1.00  0.00    -0.360 N 
HETATM   30  C   UNL     1      28.472  41.410  53.264  1.00  0.00     0.002 A 
HETATM   31  C   UNL     1      27.745  41.192  52.100  1.00  0.00     0.001 A 
HETATM   32  C   UNL     1      27.714  45.485  55.118  1.00  0.00     0.155 C 
HETATM   33  C   UNL     1      26.246  45.442  53.121  1.00  0.00     0.101 A 
ENDBRANCH  21  24
ENDBRANCH  20  21
ENDBRANCH   2  20
TORSDOF 7
ENDMDL
MODEL 7
REMARK VINA RESULT:      -9.0      1.028      2.251
REMARK  7 active torsions:
REMARK  status: ('A' for Active; 'I' for Inactive)
REMARK       I    between atoms: C_2  and  N_3 
REMARK    1  A    between atoms: N_3  and  C_4 
REMARK    2  A    between atoms: C_7  and  N_8 
REMARK       I    between atoms: N_8  and  C_9 
REMARK    3  A    between atoms: C_9  and  C_10 
REMARK       I    between atoms: C_10  and  N_11 
REMARK    4  A    between atoms: N_11  and  C_12 
REMARK    5  A    between atoms: C_12  and  C_13 
REMARK    6  A    between atoms: C_13  and  O_14 
REMARK    7  A    between atoms: C_13  and  C_15 
ROOT
HETATM    1  C   UNL     1      26.390  46.122  50.180  1.00  0.00     0.309 C 
HETATM    2  N   UNL     1      26.530  45.149  51.131  1.00  0.00    -0.350 N 
HETATM    3  O   UNL     1      27.090  46.277  49.188  1.00  0.00    -0.262 OA
HETATM    4  H   UNL     1      25.786  45.061  51.818  1.00  0.00     0.163 HD
ENDROOT
BRANCH   1   5
HETATM    5  C   UNL     1      25.206  47.080  50.449  1.00  0.00     0.313 C 
HETATM    6  N   UNL     1      24.533  47.407  49.290  1.00  0.00    -0.319 N 
HETATM    7  H   UNL     1      24.881  46.939  48.457  1.00  0.00     0.169 HD
HETATM    8  O   UNL     1      24.985  47.436  51.598  1.00  0.00    -0.262 OA
BRANCH   6   9
HETATM    9  C   UNL     1      23.477  48.321  49.142  1.00  0.00     0.035 A 
HETATM   10  C   UNL     1      22.136  47.949  49.052  1.00  0.00     0.032 A 
HETATM   11  C   UNL     1      21.128  48.919  48.958  1.00  0.00     0.032 A 
HETATM   12  C   UNL     1      21.446  50.277  48.943  1.00  0.00     0.034 A 
HETATM   13  C   UNL     1      22.792  50.649  49.008  1.00  0.00     0.032 A 
HETATM   14  C   UNL     1      23.799  49.681  49.114  1.00  0.00     0.032 A 
BRANCH  12  15
HETATM   15  N   UNL     1      20.490  51.311  48.875  1.00  0.00    -0.328 N 
HETATM   16  C   UNL     1      19.497  51.479  47.925  1.00  0.00     0.218 C 
HETATM   17  C   UNL     1      18.639  52.689  48.198  1.00  0.00     0.117 C 
HETATM   18  O   UNL     1      19.258  50.748  46.971  1.00  0.00    -0.274 OA
HETATM   19  H   UNL     1      20.515  51.985  49.629  1.00  0.00     0.169 HD
ENDBRANCH  12  15
ENDBRANCH   6   9
ENDBRANCH   1   5
BRANCH   2  20
HETATM   20  C   UNL     1      27.561  44.126  51.096  1.00  0.00     0.159 C 
BRANCH  20  21
HETATM   21  C   UNL     1      27.487  43.154  52.293  1.00  0.00     0.171 C 
BRANCH  21  22
HETATM   22  O   UNL     1      26.109  42.970  52.652  1.00  0.00    -0.389 OA
HETATM   23  H   UNL     1      25.869  43.747  53.187  1.00  0.00     0.210 HD
ENDBRANCH  21  22
BRANCH  21  24
HETATM   24  C   UNL     1      28.289  43.593  53.487  1.00  0.00     0.000 A 
HETATM   25  C   UNL     1      28.075  44.768  54.281  1.00  0.00     0.001 A 
HETATM   26  C   UNL     1      29.066  44.803  55.269  1.00  0.00     0.044 A 
HETATM   27  C   UNL     1      27.128  45.815  54.243  1.00  0.00     0.014 A 
HETATM   28  C   UNL     1      29.139  45.840  56.215  1.00  0.00     0.030 A 
HETATM   29  N   UNL     1      29.853  43.688  55.086  1.00  0.00    -0.360 N 
HETATM   30  C   UNL     1      28.193  46.865  56.147  1.00  0.00     0.002 A 
HETATM   31  C   UNL     1      27.199  46.855  55.175  1.00  0.00     0.001 A 
HETATM   32  C   UNL     1      30.994  43.300  55.885  1.00  0.00     0.155 C 
HETATM   33  C   UNL     1      29.407  42.967  54.009  1.00  0.00     0.101 A 
ENDBRANCH  21  24
ENDBRANCH  20  21
ENDBRANCH   2  20
TORSDOF 7
ENDMDL
MODEL 8
REMARK VINA RESULT:      -9.0      2.337      3.933
REMARK  7 active torsions:
REMARK  status: ('A' for Active; 'I' for Inactive)
REMARK       I    between atoms: C_2  and  N_3 
REMARK    1  A    between atoms: N_3  and  C_4 
REMARK    2  A    between atoms: C_7  and  N_8 
REMARK       I    between atoms: N_8  and  C_9 
REMARK    3  A    between atoms: C_9  and  C_10 
REMARK       I    between atoms: C_10  and  N_11 
REMARK    4  A    between atoms: N_11  and  C_12 
REMARK    5  A    between atoms: C_12  and  C_13 
REMARK    6  A    between atoms: C_13  and  O_14 
REMARK    7  A    between atoms: C_13  and  C_15 
ROOT
HETATM    1  C   UNL     1      24.189  47.565  49.907  1.00  0.00     0.309 C 
HETATM    2  N   UNL     1      24.095  46.254  50.286  1.00  0.00    -0.350 N 
HETATM    3  O   UNL     1      25.103  48.335  50.170  1.00  0.00    -0.262 OA
HETATM    4  H   UNL     1      23.348  45.704  49.870  1.00  0.00     0.163 HD
ENDROOT
BRANCH   1   5
HETATM    5  C   UNL     1      22.989  48.050  49.062  1.00  0.00     0.313 C 
HETATM    6  N   UNL     1      22.190  48.933  49.759  1.00  0.00    -0.319 N 
HETATM    7  H   UNL     1      22.533  49.164  50.688  1.00  0.00     0.169 HD
HETATM    8  O   UNL     1      22.866  47.634  47.918  1.00  0.00    -0.262 OA
BRANCH   6   9
HETATM    9  C   UNL     1      20.971  49.496  49.344  1.00  0.00     0.035 A 
HETATM   10  C   UNL     1      19.761  48.804  49.336  1.00  0.00     0.032 A 
HETATM   11  C   UNL     1      18.572  49.445  48.959  1.00  0.00     0.032 A 
HETATM   12  C   UNL     1      18.576  50.785  48.575  1.00  0.00     0.034 A 
HETATM   13  C   UNL     1      19.794  51.472  48.559  1.00  0.00     0.032 A 
HETATM   14  C   UNL     1      20.980  50.836  48.947  1.00  0.00     0.032 A 
BRANCH  12  15
HETATM   15  N   UNL     1      17.421  51.505  48.206  1.00  0.00    -0.328 N 
HETATM   16  C   UNL     1      16.501  52.108  49.046  1.00  0.00     0.218 C 
HETATM   17  C   UNL     1      15.408  52.818  48.286  1.00  0.00     0.117 C 
HETATM   18  O   UNL     1      16.528  52.137  50.271  1.00  0.00    -0.274 OA
HETATM   19  H   UNL     1      17.273  51.621  47.212  1.00  0.00     0.169 HD
ENDBRANCH  12  15
ENDBRANCH   6   9
ENDBRANCH   1   5
BRANCH   2  20
HETATM   20  C   UNL     1      25.100  45.566  51.077  1.00  0.00     0.159 C 
BRANCH  20  21
HETATM   21  C   UNL     1      26.300  45.080  50.236  1.00  0.00     0.171 C 
BRANCH  21  22
HETATM   22  O   UNL     1      25.852  44.829  48.896  1.00  0.00    -0.389 OA
HETATM   23  H   UNL     1      25.219  44.093  48.961  1.00  0.00     0.210 HD
ENDBRANCH  21  22
BRANCH  21  24
HETATM   24  C   UNL     1      26.988  43.866  50.798  1.00  0.00     0.000 A 
HETATM   25  C   UNL     1      27.649  43.763  52.066  1.00  0.00     0.001 A 
HETATM   26  C   UNL     1      28.173  42.469  52.171  1.00  0.00     0.044 A 
HETATM   27  C   UNL     1      27.857  44.661  53.136  1.00  0.00     0.014 A 
HETATM   28  C   UNL     1      28.890  42.045  53.303  1.00  0.00     0.030 A 
HETATM   29  N   UNL     1      27.840  41.807  51.010  1.00  0.00    -0.360 N 
HETATM   30  C   UNL     1      29.087  42.958  54.342  1.00  0.00     0.002 A 
HETATM   31  C   UNL     1      28.578  44.249  54.263  1.00  0.00     0.001 A 
HETATM   32  C   UNL     1      28.160  40.436  50.681  1.00  0.00     0.155 C 
HETATM   33  C   UNL     1      27.147  42.641  50.173  1.00  0.00     0.101 A 
ENDBRANCH  21  24
ENDBRANCH  20  21
ENDBRANCH   2  20
TORSDOF 7
ENDMDL
MODEL 9
REMARK VINA RESULT:      -8.9      3.125     11.241
REMARK  7 active torsions:
REMARK  status: ('A' for Active; 'I' for Inactive)
REMARK       I    between atoms: C_2  and  N_3 
REMARK    1  A    between atoms: N_3  and  C_4 
REMARK    2  A    between atoms: C_7  and  N_8 
REMARK       I    between atoms: N_8  and  C_9 
REMARK    3  A    between atoms: C_9  and  C_10 
REMARK       I    between atoms: C_10  and  N_11 
REMARK    4  A    between atoms: N_11  and  C_12 
REMARK    5  A    between atoms: C_12  and  C_13 
REMARK    6  A    between atoms: C_13  and  O_14 
REMARK    7  A    between atoms: C_13  and  C_15 
ROOT
HETATM    1  C   UNL     1      23.075  48.635  49.506  1.00  0.00     0.309 C 
HETATM    2  N   UNL     1      21.997  47.964  48.996  1.00  0.00    -0.350 N 
HETATM    3  O   UNL     1      23.180  49.846  49.642  1.00  0.00    -0.262 OA
HETATM    4  H   UNL     1      21.999  46.951  49.080  1.00  0.00     0.163 HD
ENDROOT
BRANCH   1   5
HETATM    5  C   UNL     1      24.233  47.704  49.935  1.00  0.00     0.313 C 
HETATM    6  N   UNL     1      23.844  46.381  49.974  1.00  0.00    -0.319 N 
HETATM    7  H   UNL     1      22.887  46.217  49.674  1.00  0.00     0.169 HD
HETATM    8  O   UNL     1      25.325  48.197  50.183  1.00  0.00    -0.262 OA
BRANCH   6   9
HETATM    9  C   UNL     1      24.599  45.280  50.411  1.00  0.00     0.035 A 
HETATM   10  C   UNL     1      25.366  44.480  49.565  1.00  0.00     0.032 A 
HETATM   11  C   UNL     1      26.137  43.428  50.077  1.00  0.00     0.032 A 
HETATM   12  C   UNL     1      26.146  43.152  51.444  1.00  0.00     0.034 A 
HETATM   13  C   UNL     1      25.357  43.937  52.290  1.00  0.00     0.032 A 
HETATM   14  C   UNL     1      24.595  44.997  51.780  1.00  0.00     0.032 A 
BRANCH  12  15
HETATM   15  N   UNL     1      26.912  42.127  52.038  1.00  0.00    -0.328 N 
HETATM   16  C   UNL     1      28.237  42.188  52.430  1.00  0.00     0.218 C 
HETATM   17  C   UNL     1      28.710  40.901  53.061  1.00  0.00     0.117 C 
HETATM   18  O   UNL     1      28.990  43.152  52.345  1.00  0.00    -0.274 OA
HETATM   19  H   UNL     1      26.420  41.264  52.229  1.00  0.00     0.169 HD
ENDBRANCH  12  15
ENDBRANCH   6   9
ENDBRANCH   1   5
BRANCH   2  20
HETATM   20  C   UNL     1      20.784  48.615  48.532  1.00  0.00     0.159 C 
BRANCH  20  21
HETATM   21  C   UNL     1      19.608  48.475  49.521  1.00  0.00     0.171 C 
BRANCH  21  22
HETATM   22  O   UNL     1      19.479  47.093  49.889  1.00  0.00    -0.389 OA
HETATM   23  H   UNL     1      20.342  46.834  50.256  1.00  0.00     0.210 HD
ENDBRANCH  21  22
BRANCH  21  24
HETATM   24  C   UNL     1      18.302  49.005  48.996  1.00  0.00     0.000 A 
HETATM   25  C   UNL     1      17.771  50.324  49.187  1.00  0.00     0.001 A 
HETATM   26  C   UNL     1      16.523  50.377  48.556  1.00  0.00     0.044 A 
HETATM   27  C   UNL     1      18.239  51.479  49.851  1.00  0.00     0.014 A 
HETATM   28  C   UNL     1      15.734  51.540  48.563  1.00  0.00     0.030 A 
HETATM   29  N   UNL     1      16.303  49.138  47.998  1.00  0.00    -0.360 N 
HETATM   30  C   UNL     1      16.220  52.665  49.235  1.00  0.00     0.002 A 
HETATM   31  C   UNL     1      17.456  52.638  49.870  1.00  0.00     0.001 A 
HETATM   32  C   UNL     1      15.145  48.733  47.233  1.00  0.00     0.155 C 
HETATM   33  C   UNL     1      17.354  48.303  48.273  1.00  0.00     0.101 A 
ENDBRANCH  21  24
ENDBRANCH  20  21
ENDBRANCH   2  20
TORSDOF 7
ENDMDL
MODEL 10
REMARK VINA RESULT:      -8.6      3.600      4.059
REMARK  7 active torsions:
REMARK  status: ('A' for Active; 'I' for Inactive)
REMARK       I    between atoms: C_2  and  N_3 
REMARK    1  A    between atoms: N_3  and  C_4 
REMARK    2  A    between atoms: C_7  and  N_8 
REMARK       I    between atoms: N_8  and  C_9 
REMARK    3  A    between atoms: C_9  and  C_10 
REMARK       I    between atoms: C_10  and  N_11 
REMARK    4  A    between atoms: N_11  and  C_12 
REMARK    5  A    between atoms: C_12  and  C_13 
REMARK    6  A    between atoms: C_13  and  O_14 
REMARK    7  A    between atoms: C_13  and  C_15 
ROOT
HETATM    1  C   UNL     1      26.735  42.087  49.463  1.00  0.00     0.309 C 
HETATM    2  N   UNL     1      26.962  41.865  50.794  1.00  0.00    -0.350 N 
HETATM    3  O   UNL     1      27.576  42.103  48.574  1.00  0.00    -0.262 OA
HETATM    4  H   UNL     1      26.147  41.739  51.388  1.00  0.00     0.163 HD
ENDROOT
BRANCH   1   5
HETATM    5  C   UNL     1      25.246  42.330  49.124  1.00  0.00     0.313 C 
HETATM    6  N   UNL     1      25.052  43.538  48.488  1.00  0.00    -0.319 N 
HETATM    7  H   UNL     1      25.907  44.054  48.299  1.00  0.00     0.169 HD
HETATM    8  O   UNL     1      24.425  41.476  49.429  1.00  0.00    -0.262 OA
BRANCH   6   9
HETATM    9  C   UNL     1      23.829  44.127  48.123  1.00  0.00     0.035 A 
HETATM   10  C   UNL     1      23.006  43.640  47.109  1.00  0.00     0.032 A 
HETATM   11  C   UNL     1      21.773  44.248  46.833  1.00  0.00     0.032 A 
HETATM   12  C   UNL     1      21.348  45.358  47.561  1.00  0.00     0.034 A 
HETATM   13  C   UNL     1      22.185  45.862  48.562  1.00  0.00     0.032 A 
HETATM   14  C   UNL     1      23.411  45.248  48.845  1.00  0.00     0.032 A 
BRANCH  12  15
HETATM   15  N   UNL     1      20.113  46.009  47.360  1.00  0.00    -0.328 N 
HETATM   16  C   UNL     1      18.853  45.546  47.695  1.00  0.00     0.218 C 
HETATM   17  C   UNL     1      17.767  46.536  47.355  1.00  0.00     0.117 C 
HETATM   18  O   UNL     1      18.578  44.484  48.243  1.00  0.00    -0.274 OA
HETATM   19  H   UNL     1      20.164  46.935  46.957  1.00  0.00     0.169 HD
ENDBRANCH  12  15
ENDBRANCH   6   9
ENDBRANCH   1   5
BRANCH   2  20
HETATM   20  C   UNL     1      28.274  41.604  51.359  1.00  0.00     0.159 C 
BRANCH  20  21
HETATM   21  C   UNL     1      28.267  41.546  52.901  1.00  0.00     0.171 C 
BRANCH  21  22
HETATM   22  O   UNL     1      27.219  40.660  53.323  1.00  0.00    -0.389 OA
HETATM   23  H   UNL     1      26.399  41.183  53.285  1.00  0.00     0.210 HD
ENDBRANCH  21  22
BRANCH  21  24
HETATM   24  C   UNL     1      28.120  42.889  53.562  1.00  0.00     0.000 A 
HETATM   25  C   UNL     1      29.061  43.524  54.439  1.00  0.00     0.001 A 
HETATM   26  C   UNL     1      28.511  44.745  54.846  1.00  0.00     0.044 A 
HETATM   27  C   UNL     1      30.334  43.162  54.931  1.00  0.00     0.014 A 
HETATM   28  C   UNL     1      29.188  45.612  55.720  1.00  0.00     0.030 A 
HETATM   29  N   UNL     1      27.281  44.852  54.236  1.00  0.00    -0.360 N 
HETATM   30  C   UNL     1      30.443  45.224  56.197  1.00  0.00     0.002 A 
HETATM   31  C   UNL     1      31.011  44.016  55.809  1.00  0.00     0.001 A 
HETATM   32  C   UNL     1      26.357  45.958  54.355  1.00  0.00     0.155 C 
HETATM   33  C   UNL     1      27.029  43.737  53.481  1.00  0.00     0.101 A 
ENDBRANCH  21  24
ENDBRANCH  20  21
ENDBRANCH   2  20
TORSDOF 7
ENDMDL
