MODEL 1
REMARK VINA RESULT:      -8.8      0.000      0.000
REMARK  5 active torsions:
REMARK  status: ('A' for Active; 'I' for Inactive)
REMARK    1  A    between atoms: C_2  and  C_3 
REMARK    2  A    between atoms: C_3  and  C_4 
REMARK    3  A    between atoms: C_7  and  N_8 
REMARK       I    between atoms: N_8  and  C_9 
REMARK       I    between atoms: C_9  and  N_10 
REMARK    4  A    between atoms: N_10  and  N_11 
REMARK       I    between atoms: N_11  and  C_12 
REMARK    5  A    between atoms: C_12  and  C_13 
ROOT
HETATM    1  N   UNL     1      26.963  43.144  51.840  1.00  0.00    -0.337 N 
HETATM    2  C   UNL     1      26.197  42.454  50.930  1.00  0.00     0.335 C 
HETATM    3  N   UNL     1      25.635  43.234  49.958  1.00  0.00    -0.249 N 
HETATM    4  O   UNL     1      26.020  41.241  50.956  1.00  0.00    -0.246 OA
HETATM    5  H   UNL     1      26.646  44.094  51.973  1.00  0.00     0.164 HD
HETATM    6  H   UNL     1      25.061  42.778  49.249  1.00  0.00     0.192 HD
ENDROOT
BRANCH   3   7
HETATM    7  N   UNL     1      26.026  44.561  49.706  1.00  0.00    -0.262 N 
HETATM    8  C   UNL     1      25.236  45.547  50.285  1.00  0.00     0.272 C 
HETATM    9  O   UNL     1      24.378  45.279  51.124  1.00  0.00    -0.266 OA
HETATM   10  H   UNL     1      26.422  44.741  48.789  1.00  0.00     0.190 HD
BRANCH   8  11
HETATM   11  C   UNL     1      25.463  46.904  49.788  1.00  0.00     0.061 A 
HETATM   12  C   UNL     1      24.465  47.802  49.275  1.00  0.00     0.008 A 
HETATM   13  C   UNL     1      25.103  48.992  48.922  1.00  0.00     0.043 A 
HETATM   14  C   UNL     1      23.070  47.710  49.072  1.00  0.00     0.015 A 
HETATM   15  C   UNL     1      24.422  50.089  48.382  1.00  0.00     0.030 A 
HETATM   16  N   UNL     1      26.437  48.835  49.213  1.00  0.00    -0.364 N 
HETATM   17  C   UNL     1      23.042  49.968  48.191  1.00  0.00     0.002 A 
HETATM   18  C   UNL     1      22.373  48.796  48.530  1.00  0.00     0.001 A 
HETATM   19  H   UNL     1      27.138  49.550  49.069  1.00  0.00     0.165 HD
HETATM   20  C   UNL     1      26.669  47.586  49.731  1.00  0.00     0.106 A 
ENDBRANCH   8  11
ENDBRANCH   3   7
BRANCH   1  21
HETATM   21  C   UNL     1      27.514  42.448  53.000  1.00  0.00     0.086 C 
HETATM   22  C   UNL     1      28.935  41.945  52.718  1.00  0.00     0.026 C 
HETATM   23  C   UNL     1      29.990  43.049  52.774  1.00  0.00     0.006 C 
HETATM   24  C   UNL     1      29.945  43.852  54.083  1.00  0.00    -0.014 C 
HETATM   25  C   UNL     1      28.527  44.416  54.280  1.00  0.00     0.006 C 
HETATM   26  C   UNL     1      27.449  43.329  54.259  1.00  0.00     0.026 C 
BRANCH  24  27
HETATM   27  C   UNL     1      30.391  43.054  55.330  1.00  0.00     0.004 C 
BRANCH  27  28
HETATM   28  C   UNL     1      30.935  43.926  56.463  1.00  0.00    -0.004 C 
HETATM   29  C   UNL     1      32.066  43.223  57.201  1.00  0.00     0.005 C 
ENDBRANCH  27  28
ENDBRANCH  24  27
ENDBRANCH   1  21
TORSDOF 5
ENDMDL
MODEL 2
REMARK VINA RESULT:      -8.8      3.344      9.178
REMARK  5 active torsions:
REMARK  status: ('A' for Active; 'I' for Inactive)
REMARK    1  A    between atoms: C_2  and  C_3 
REMARK    2  A    between atoms: C_3  and  C_4 
REMARK    3  A    between atoms: C_7  and  N_8 
REMARK       I    between atoms: N_8  and  C_9 
REMARK       I    between atoms: C_9  and  N_10 
REMARK    4  A    between atoms: N_10  and  N_11 
REMARK       I    between atoms: N_11  and  C_12 
REMARK    5  A    between atoms: C_12  and  C_13 
ROOT
HETATM    1  N   UNL     1      24.242  49.230  48.577  1.00  0.00    -0.337 N 
HETATM    2  C   UNL     1      25.519  49.611  48.239  1.00  0.00     0.335 C 
HETATM    3  N   UNL     1      26.496  49.091  49.042  1.00  0.00    -0.249 N 
HETATM    4  O   UNL     1      25.793  50.347  47.297  1.00  0.00    -0.246 OA
HETATM    5  H   UNL     1      24.141  49.049  49.566  1.00  0.00     0.164 HD
HETATM    6  H   UNL     1      27.465  49.332  48.837  1.00  0.00     0.192 HD
ENDROOT
BRANCH   3   7
HETATM    7  N   UNL     1      26.278  48.032  49.941  1.00  0.00    -0.262 N 
HETATM    8  C   UNL     1      27.000  46.869  49.697  1.00  0.00     0.272 C 
HETATM    9  O   UNL     1      27.915  46.836  48.876  1.00  0.00    -0.266 OA
HETATM   10  H   UNL     1      25.334  47.943  50.303  1.00  0.00     0.190 HD
BRANCH   8  11
HETATM   11  C   UNL     1      26.560  45.691  50.443  1.00  0.00     0.061 A 
HETATM   12  C   UNL     1      26.243  45.640  51.844  1.00  0.00     0.008 A 
HETATM   13  C   UNL     1      25.856  44.333  52.145  1.00  0.00     0.043 A 
HETATM   14  C   UNL     1      26.255  46.588  52.891  1.00  0.00     0.015 A 
HETATM   15  C   UNL     1      25.480  43.929  53.433  1.00  0.00     0.030 A 
HETATM   16  N   UNL     1      25.924  43.613  50.977  1.00  0.00    -0.364 N 
HETATM   17  C   UNL     1      25.504  44.889  54.448  1.00  0.00     0.002 A 
HETATM   18  C   UNL     1      25.886  46.201  54.185  1.00  0.00     0.001 A 
HETATM   19  H   UNL     1      25.685  42.633  50.899  1.00  0.00     0.165 HD
HETATM   20  C   UNL     1      26.347  44.414  49.947  1.00  0.00     0.106 A 
ENDBRANCH   8  11
ENDBRANCH   3   7
BRANCH   1  21
HETATM   21  C   UNL     1      23.101  49.817  47.879  1.00  0.00     0.086 C 
HETATM   22  C   UNL     1      21.963  48.800  47.734  1.00  0.00     0.026 C 
HETATM   23  C   UNL     1      21.171  48.590  49.024  1.00  0.00     0.006 C 
HETATM   24  C   UNL     1      20.656  49.905  49.630  1.00  0.00    -0.014 C 
HETATM   25  C   UNL     1      21.844  50.859  49.845  1.00  0.00     0.006 C 
HETATM   26  C   UNL     1      22.639  51.114  48.562  1.00  0.00     0.026 C 
BRANCH  24  27
HETATM   27  C   UNL     1      19.549  50.592  48.800  1.00  0.00     0.004 C 
BRANCH  27  28
HETATM   28  C   UNL     1      19.339  52.068  49.145  1.00  0.00    -0.004 C 
HETATM   29  C   UNL     1      17.928  52.316  49.658  1.00  0.00     0.005 C 
ENDBRANCH  27  28
ENDBRANCH  24  27
ENDBRANCH   1  21
TORSDOF 5
ENDMDL
MODEL 3
REMARK VINA RESULT:      -8.7      2.396      7.055
REMARK  5 active torsions:
REMARK  status: ('A' for Active; 'I' for Inactive)
REMARK    1  A    between atoms: C_2  and  C_3 
REMARK    2  A    between atoms: C_3  and  C_4 
REMARK    3  A    between atoms: C_7  and  N_8 
REMARK       I    between atoms: N_8  and  C_9 
REMARK       I    between atoms: C_9  and  N_10 
REMARK    4  A    between atoms: N_10  and  N_11 
REMARK       I    between atoms: N_11  and  C_12 
REMARK    5  A    between atoms: C_12  and  C_13 
ROOT
HETATM    1  N   UNL     1      27.534  42.471  50.910  1.00  0.00    -0.337 N 
HETATM    2  C   UNL     1      27.858  41.136  50.862  1.00  0.00     0.335 C 
HETATM    3  N   UNL     1      28.983  40.801  51.564  1.00  0.00    -0.249 N 
HETATM    4  O   UNL     1      27.210  40.290  50.256  1.00  0.00    -0.246 OA
HETATM    5  H   UNL     1      28.346  43.064  51.017  1.00  0.00     0.164 HD
HETATM    6  H   UNL     1      29.271  39.823  51.572  1.00  0.00     0.192 HD
ENDROOT
BRANCH   3   7
HETATM    7  N   UNL     1      29.596  41.654  52.498  1.00  0.00    -0.262 N 
HETATM    8  C   UNL     1      28.868  41.914  53.654  1.00  0.00     0.272 C 
HETATM    9  O   UNL     1      27.851  41.282  53.933  1.00  0.00    -0.266 OA
HETATM   10  H   UNL     1      30.164  42.401  52.112  1.00  0.00     0.190 HD
BRANCH   8  11
HETATM   11  C   UNL     1      29.368  43.015  54.475  1.00  0.00     0.061 A 
HETATM   12  C   UNL     1      28.733  44.290  54.668  1.00  0.00     0.008 A 
HETATM   13  C   UNL     1      29.535  45.039  55.530  1.00  0.00     0.043 A 
HETATM   14  C   UNL     1      27.545  44.881  54.184  1.00  0.00     0.015 A 
HETATM   15  C   UNL     1      29.211  46.342  55.931  1.00  0.00     0.030 A 
HETATM   16  N   UNL     1      30.615  44.256  55.859  1.00  0.00    -0.364 N 
HETATM   17  C   UNL     1      28.031  46.900  55.433  1.00  0.00     0.002 A 
HETATM   18  C   UNL     1      27.207  46.183  54.571  1.00  0.00     0.001 A 
HETATM   19  H   UNL     1      31.356  44.543  56.483  1.00  0.00     0.165 HD
HETATM   20  C   UNL     1      30.530  43.039  55.232  1.00  0.00     0.106 A 
ENDBRANCH   8  11
ENDBRANCH   3   7
BRANCH   1  21
HETATM   21  C   UNL     1      26.431  42.979  50.099  1.00  0.00     0.086 C 
HETATM   22  C   UNL     1      25.116  42.967  50.888  1.00  0.00     0.026 C 
HETATM   23  C   UNL     1      25.008  44.108  51.901  1.00  0.00     0.006 C 
HETATM   24  C   UNL     1      25.257  45.488  51.274  1.00  0.00    -0.014 C 
HETATM   25  C   UNL     1      26.626  45.484  50.573  1.00  0.00     0.006 C 
HETATM   26  C   UNL     1      26.755  44.371  49.530  1.00  0.00     0.026 C 
BRANCH  24  27
HETATM   27  C   UNL     1      24.149  45.950  50.300  1.00  0.00     0.004 C 
BRANCH  27  28
HETATM   28  C   UNL     1      24.232  47.429  49.920  1.00  0.00    -0.004 C 
HETATM   29  C   UNL     1      23.001  47.864  49.137  1.00  0.00     0.005 C 
ENDBRANCH  27  28
ENDBRANCH  24  27
ENDBRANCH   1  21
TORSDOF 5
ENDMDL
MODEL 4
REMARK VINA RESULT:      -8.5      3.618      5.143
REMARK  5 active torsions:
REMARK  status: ('A' for Active; 'I' for Inactive)
REMARK    1  A    between atoms: C_2  and  C_3 
REMARK    2  A    between atoms: C_3  and  C_4 
REMARK    3  A    between atoms: C_7  and  N_8 
REMARK       I    between atoms: N_8  and  C_9 
REMARK       I    between atoms: C_9  and  N_10 
REMARK    4  A    between atoms: N_10  and  N_11 
REMARK       I    between atoms: N_11  and  C_12 
REMARK    5  A    between atoms: C_12  and  C_13 
ROOT
HETATM    1  N   UNL     1      26.293  43.451  53.039  1.00  0.00    -0.337 N 
HETATM    2  C   UNL     1      25.172  44.231  53.196  1.00  0.00     0.335 C 
HETATM    3  N   UNL     1      24.649  44.712  52.028  1.00  0.00    -0.249 N 
HETATM    4  O   UNL     1      24.655  44.486  54.278  1.00  0.00    -0.246 OA
HETATM    5  H   UNL     1      26.836  43.712  52.227  1.00  0.00     0.164 HD
HETATM    6  H   UNL     1      23.812  45.292  52.079  1.00  0.00     0.192 HD
ENDROOT
BRANCH   3   7
HETATM    7  N   UNL     1      25.014  44.231  50.759  1.00  0.00    -0.262 N 
HETATM    8  C   UNL     1      24.249  43.181  50.263  1.00  0.00     0.272 C 
HETATM    9  O   UNL     1      23.201  42.833  50.804  1.00  0.00    -0.266 OA
HETATM   10  H   UNL     1      26.008  44.241  50.548  1.00  0.00     0.190 HD
BRANCH   8  11
HETATM   11  C   UNL     1      24.805  42.497  49.096  1.00  0.00     0.061 A 
HETATM   12  C   UNL     1      26.036  41.756  49.049  1.00  0.00     0.008 A 
HETATM   13  C   UNL     1      26.185  41.260  47.753  1.00  0.00     0.043 A 
HETATM   14  C   UNL     1      27.045  41.464  49.993  1.00  0.00     0.015 A 
HETATM   15  C   UNL     1      27.284  40.488  47.356  1.00  0.00     0.030 A 
HETATM   16  N   UNL     1      25.088  41.672  47.035  1.00  0.00    -0.364 N 
HETATM   17  C   UNL     1      28.267  40.218  48.312  1.00  0.00     0.002 A 
HETATM   18  C   UNL     1      28.153  40.697  49.613  1.00  0.00     0.001 A 
HETATM   19  H   UNL     1      24.927  41.444  46.063  1.00  0.00     0.165 HD
HETATM   20  C   UNL     1      24.253  42.418  47.826  1.00  0.00     0.106 A 
ENDBRANCH   8  11
ENDBRANCH   3   7
BRANCH   1  21
HETATM   21  C   UNL     1      27.022  42.982  54.215  1.00  0.00     0.086 C 
HETATM   22  C   UNL     1      27.981  41.843  53.850  1.00  0.00     0.026 C 
HETATM   23  C   UNL     1      29.253  42.324  53.151  1.00  0.00     0.006 C 
HETATM   24  C   UNL     1      29.984  43.426  53.933  1.00  0.00    -0.014 C 
HETATM   25  C   UNL     1      29.010  44.588  54.196  1.00  0.00     0.006 C 
HETATM   26  C   UNL     1      27.739  44.143  54.923  1.00  0.00     0.026 C 
BRANCH  24  27
HETATM   27  C   UNL     1      30.625  42.944  55.254  1.00  0.00     0.004 C 
BRANCH  27  28
HETATM   28  C   UNL     1      31.124  44.077  56.152  1.00  0.00    -0.004 C 
HETATM   29  C   UNL     1      31.881  43.531  57.355  1.00  0.00     0.005 C 
ENDBRANCH  27  28
ENDBRANCH  24  27
ENDBRANCH   1  21
TORSDOF 5
ENDMDL
MODEL 5
REMARK VINA RESULT:      -8.5      2.332      8.143
REMARK  5 active torsions:
REMARK  status: ('A' for Active; 'I' for Inactive)
REMARK    1  A    between atoms: C_2  and  C_3 
REMARK    2  A    between atoms: C_3  and  C_4 
REMARK    3  A    between atoms: C_7  and  N_8 
REMARK       I    between atoms: N_8  and  C_9 
REMARK       I    between atoms: C_9  and  N_10 
REMARK    4  A    between atoms: N_10  and  N_11 
REMARK       I    between atoms: N_11  and  C_12 
REMARK    5  A    between atoms: C_12  and  C_13 
ROOT
HETATM    1  N   UNL     1      26.298  42.462  51.471  1.00  0.00    -0.337 N 
HETATM    2  C   UNL     1      26.972  41.290  51.722  1.00  0.00     0.335 C 
HETATM    3  N   UNL     1      27.847  41.354  52.770  1.00  0.00    -0.249 N 
HETATM    4  O   UNL     1      26.817  40.255  51.083  1.00  0.00    -0.246 OA
HETATM    5  H   UNL     1      26.834  43.280  51.727  1.00  0.00     0.164 HD
HETATM    6  H   UNL     1      28.372  40.514  53.010  1.00  0.00     0.192 HD
ENDROOT
BRANCH   3   7
HETATM    7  N   UNL     1      27.860  42.402  53.707  1.00  0.00    -0.262 N 
HETATM    8  C   UNL     1      28.745  43.442  53.445  1.00  0.00     0.272 C 
HETATM    9  O   UNL     1      29.328  43.538  52.367  1.00  0.00    -0.266 OA
HETATM   10  H   UNL     1      27.707  42.135  54.675  1.00  0.00     0.190 HD
BRANCH   8  11
HETATM   11  C   UNL     1      28.966  44.370  54.553  1.00  0.00     0.061 A 
HETATM   12  C   UNL     1      29.907  44.205  55.628  1.00  0.00     0.008 A 
HETATM   13  C   UNL     1      29.804  45.321  56.459  1.00  0.00     0.043 A 
HETATM   14  C   UNL     1      30.837  43.201  55.975  1.00  0.00     0.015 A 
HETATM   15  C   UNL     1      30.582  45.485  57.612  1.00  0.00     0.030 A 
HETATM   16  N   UNL     1      28.846  46.142  55.914  1.00  0.00    -0.364 N 
HETATM   17  C   UNL     1      31.492  44.473  57.931  1.00  0.00     0.002 A 
HETATM   18  C   UNL     1      31.621  43.346  57.126  1.00  0.00     0.001 A 
HETATM   19  H   UNL     1      28.573  47.034  56.305  1.00  0.00     0.165 HD
HETATM   20  C   UNL     1      28.333  45.584  54.772  1.00  0.00     0.106 A 
ENDBRANCH   8  11
ENDBRANCH   3   7
BRANCH   1  21
HETATM   21  C   UNL     1      25.430  42.563  50.300  1.00  0.00     0.086 C 
HETATM   22  C   UNL     1      24.012  42.986  50.702  1.00  0.00     0.026 C 
HETATM   23  C   UNL     1      23.892  44.476  51.024  1.00  0.00     0.006 C 
HETATM   24  C   UNL     1      24.433  45.374  49.901  1.00  0.00    -0.014 C 
HETATM   25  C   UNL     1      25.888  44.977  49.595  1.00  0.00     0.006 C 
HETATM   26  C   UNL     1      26.036  43.496  49.239  1.00  0.00     0.026 C 
BRANCH  24  27
HETATM   27  C   UNL     1      23.582  45.357  48.611  1.00  0.00     0.004 C 
BRANCH  27  28
HETATM   28  C   UNL     1      22.622  46.541  48.485  1.00  0.00    -0.004 C 
HETATM   29  C   UNL     1      23.213  47.796  49.111  1.00  0.00     0.005 C 
ENDBRANCH  27  28
ENDBRANCH  24  27
ENDBRANCH   1  21
TORSDOF 5
ENDMDL
MODEL 6
REMARK VINA RESULT:      -8.4      3.538     10.022
REMARK  5 active torsions:
REMARK  status: ('A' for Active; 'I' for Inactive)
REMARK    1  A    between atoms: C_2  and  C_3 
REMARK    2  A    between atoms: C_3  and  C_4 
REMARK    3  A    between atoms: C_7  and  N_8 
REMARK       I    between atoms: N_8  and  C_9 
REMARK       I    between atoms: C_9  and  N_10 
REMARK    4  A    between atoms: N_10  and  N_11 
REMARK       I    between atoms: N_11  and  C_12 
REMARK    5  A    between atoms: C_12  and  C_13 
ROOT
HETATM    1  N   UNL     1      22.145  49.252  48.602  1.00  0.00    -0.337 N 
HETATM    2  C   UNL     1      23.385  49.576  48.106  1.00  0.00     0.335 C 
HETATM    3  N   UNL     1      24.432  49.052  48.813  1.00  0.00    -0.249 N 
HETATM    4  O   UNL     1      23.571  50.268  47.111  1.00  0.00    -0.246 OA
HETATM    5  H   UNL     1      22.152  49.110  49.603  1.00  0.00     0.164 HD
HETATM    6  H   UNL     1      25.378  49.252  48.489  1.00  0.00     0.192 HD
ENDROOT
BRANCH   3   7
HETATM    7  N   UNL     1      24.287  48.034  49.771  1.00  0.00    -0.262 N 
HETATM    8  C   UNL     1      25.467  47.540  50.316  1.00  0.00     0.272 C 
HETATM    9  O   UNL     1      26.549  48.093  50.126  1.00  0.00    -0.266 OA
HETATM   10  H   UNL     1      23.522  47.385  49.619  1.00  0.00     0.190 HD
BRANCH   8  11
HETATM   11  C   UNL     1      25.333  46.300  51.080  1.00  0.00     0.061 A 
HETATM   12  C   UNL     1      25.867  46.046  52.391  1.00  0.00     0.008 A 
HETATM   13  C   UNL     1      25.500  44.749  52.755  1.00  0.00     0.043 A 
HETATM   14  C   UNL     1      26.635  46.801  53.304  1.00  0.00     0.015 A 
HETATM   15  C   UNL     1      25.860  44.172  53.980  1.00  0.00     0.030 A 
HETATM   16  N   UNL     1      24.767  44.231  51.715  1.00  0.00    -0.364 N 
HETATM   17  C   UNL     1      26.622  44.944  54.862  1.00  0.00     0.002 A 
HETATM   18  C   UNL     1      27.006  46.240  54.532  1.00  0.00     0.001 A 
HETATM   19  H   UNL     1      24.361  43.305  51.712  1.00  0.00     0.165 HD
HETATM   20  C   UNL     1      24.660  45.149  50.702  1.00  0.00     0.106 A 
ENDBRANCH   8  11
ENDBRANCH   3   7
BRANCH   1  21
HETATM   21  C   UNL     1      20.949  49.852  48.015  1.00  0.00     0.086 C 
HETATM   22  C   UNL     1      19.727  48.948  48.210  1.00  0.00     0.026 C 
HETATM   23  C   UNL     1      19.157  48.996  49.628  1.00  0.00     0.006 C 
HETATM   24  C   UNL     1      18.860  50.427  50.103  1.00  0.00    -0.014 C 
HETATM   25  C   UNL     1      20.137  51.275  49.979  1.00  0.00     0.006 C 
HETATM   26  C   UNL     1      20.715  51.271  48.561  1.00  0.00     0.026 C 
BRANCH  24  27
HETATM   27  C   UNL     1      17.682  51.105  49.367  1.00  0.00     0.004 C 
BRANCH  27  28
HETATM   28  C   UNL     1      17.519  52.591  49.694  1.00  0.00    -0.004 C 
HETATM   29  C   UNL     1      16.059  52.939  49.947  1.00  0.00     0.005 C 
ENDBRANCH  27  28
ENDBRANCH  24  27
ENDBRANCH   1  21
TORSDOF 5
ENDMDL
MODEL 7
REMARK VINA RESULT:      -8.4      2.717      9.212
REMARK  5 active torsions:
REMARK  status: ('A' for Active; 'I' for Inactive)
REMARK    1  A    between atoms: C_2  and  C_3 
REMARK    2  A    between atoms: C_3  and  C_4 
REMARK    3  A    between atoms: C_7  and  N_8 
REMARK       I    between atoms: N_8  and  C_9 
REMARK       I    between atoms: C_9  and  N_10 
REMARK    4  A    between atoms: N_10  and  N_11 
REMARK       I    between atoms: N_11  and  C_12 
REMARK    5  A    between atoms: C_12  and  C_13 
ROOT
HETATM    1  N   UNL     1      22.834  47.541  49.010  1.00  0.00    -0.337 N 
HETATM    2  C   UNL     1      22.780  46.192  48.749  1.00  0.00     0.335 C 
HETATM    3  N   UNL     1      23.527  45.421  49.596  1.00  0.00    -0.249 N 
HETATM    4  O   UNL     1      22.121  45.690  47.845  1.00  0.00    -0.246 OA
HETATM    5  H   UNL     1      23.713  47.821  49.423  1.00  0.00     0.164 HD
HETATM    6  H   UNL     1      23.522  44.412  49.457  1.00  0.00     0.192 HD
ENDROOT
BRANCH   3   7
HETATM    7  N   UNL     1      24.063  45.896  50.806  1.00  0.00    -0.262 N 
HETATM    8  C   UNL     1      25.450  45.883  50.903  1.00  0.00     0.272 C 
HETATM    9  O   UNL     1      26.165  45.665  49.926  1.00  0.00    -0.266 OA
HETATM   10  H   UNL     1      23.523  45.694  51.641  1.00  0.00     0.190 HD
BRANCH   8  11
HETATM   11  C   UNL     1      25.986  46.094  52.247  1.00  0.00     0.061 A 
HETATM   12  C   UNL     1      26.971  45.282  52.908  1.00  0.00     0.008 A 
HETATM   13  C   UNL     1      27.206  45.839  54.167  1.00  0.00     0.043 A 
HETATM   14  C   UNL     1      27.685  44.116  52.553  1.00  0.00     0.015 A 
HETATM   15  C   UNL     1      28.115  45.293  55.082  1.00  0.00     0.030 A 
HETATM   16  N   UNL     1      26.405  46.950  54.272  1.00  0.00    -0.364 N 
HETATM   17  C   UNL     1      28.805  44.138  54.702  1.00  0.00     0.002 A 
HETATM   18  C   UNL     1      28.595  43.555  53.456  1.00  0.00     0.001 A 
HETATM   19  H   UNL     1      26.380  47.558  55.079  1.00  0.00     0.165 HD
HETATM   20  C   UNL     1      25.665  47.115  53.129  1.00  0.00     0.106 A 
ENDBRANCH   8  11
ENDBRANCH   3   7
BRANCH   1  21
HETATM   21  C   UNL     1      22.184  48.482  48.102  1.00  0.00     0.086 C 
HETATM   22  C   UNL     1      20.677  48.558  48.374  1.00  0.00     0.026 C 
HETATM   23  C   UNL     1      20.325  49.381  49.613  1.00  0.00     0.006 C 
HETATM   24  C   UNL     1      20.948  50.786  49.593  1.00  0.00    -0.014 C 
HETATM   25  C   UNL     1      22.471  50.658  49.413  1.00  0.00     0.006 C 
HETATM   26  C   UNL     1      22.855  49.864  48.162  1.00  0.00     0.026 C 
BRANCH  24  27
HETATM   27  C   UNL     1      20.350  51.728  48.523  1.00  0.00     0.004 C 
BRANCH  27  28
HETATM   28  C   UNL     1      18.821  51.729  48.482  1.00  0.00    -0.004 C 
HETATM   29  C   UNL     1      18.239  52.326  49.757  1.00  0.00     0.005 C 
ENDBRANCH  27  28
ENDBRANCH  24  27
ENDBRANCH   1  21
TORSDOF 5
ENDMDL
MODEL 8
REMARK VINA RESULT:      -8.4      1.887      2.833
REMARK  5 active torsions:
REMARK  status: ('A' for Active; 'I' for Inactive)
REMARK    1  A    between atoms: C_2  and  C_3 
REMARK    2  A    between atoms: C_3  and  C_4 
REMARK    3  A    between atoms: C_7  and  N_8 
REMARK       I    between atoms: N_8  and  C_9 
REMARK       I    between atoms: C_9  and  N_10 
REMARK    4  A    between atoms: N_10  and  N_11 
REMARK       I    between atoms: N_11  and  C_12 
REMARK    5  A    between atoms: C_12  and  C_13 
ROOT
HETATM    1  N   UNL     1      24.882  44.414  51.752  1.00  0.00    -0.337 N 
HETATM    2  C   UNL     1      23.838  43.989  50.965  1.00  0.00     0.335 C 
HETATM    3  N   UNL     1      23.234  44.980  50.242  1.00  0.00    -0.249 N 
HETATM    4  O   UNL     1      23.460  42.825  50.890  1.00  0.00    -0.246 OA
HETATM    5  H   UNL     1      24.770  45.369  52.062  1.00  0.00     0.164 HD
HETATM    6  H   UNL     1      22.457  44.725  49.633  1.00  0.00     0.192 HD
ENDROOT
BRANCH   3   7
HETATM    7  N   UNL     1      23.791  46.258  50.063  1.00  0.00    -0.262 N 
HETATM    8  C   UNL     1      23.106  47.105  49.200  1.00  0.00     0.272 C 
HETATM    9  O   UNL     1      21.983  46.831  48.781  1.00  0.00    -0.266 OA
HETATM   10  H   UNL     1      24.805  46.307  50.078  1.00  0.00     0.190 HD
BRANCH   8  11
HETATM   11  C   UNL     1      23.833  48.307  48.793  1.00  0.00     0.061 A 
HETATM   12  C   UNL     1      25.240  48.550  48.966  1.00  0.00     0.008 A 
HETATM   13  C   UNL     1      25.523  49.807  48.429  1.00  0.00     0.043 A 
HETATM   14  C   UNL     1      26.302  47.816  49.537  1.00  0.00     0.015 A 
HETATM   15  C   UNL     1      26.809  50.363  48.433  1.00  0.00     0.030 A 
HETATM   16  N   UNL     1      24.343  50.312  47.940  1.00  0.00    -0.364 N 
HETATM   17  C   UNL     1      27.839  49.613  49.007  1.00  0.00     0.002 A 
HETATM   18  C   UNL     1      27.593  48.357  49.553  1.00  0.00     0.001 A 
HETATM   19  H   UNL     1      24.255  51.209  47.482  1.00  0.00     0.165 HD
HETATM   20  C   UNL     1      23.320  49.424  48.153  1.00  0.00     0.106 A 
ENDBRANCH   8  11
ENDBRANCH   3   7
BRANCH   1  21
HETATM   21  C   UNL     1      25.527  43.478  52.669  1.00  0.00     0.086 C 
HETATM   22  C   UNL     1      26.745  42.816  52.014  1.00  0.00     0.026 C 
HETATM   23  C   UNL     1      27.970  43.730  51.953  1.00  0.00     0.006 C 
HETATM   24  C   UNL     1      28.340  44.326  53.320  1.00  0.00    -0.014 C 
HETATM   25  C   UNL     1      27.117  45.059  53.897  1.00  0.00     0.006 C 
HETATM   26  C   UNL     1      25.881  44.161  54.001  1.00  0.00     0.026 C 
BRANCH  24  27
HETATM   27  C   UNL     1      28.884  43.293  54.333  1.00  0.00     0.004 C 
BRANCH  27  28
HETATM   28  C   UNL     1      30.409  43.286  54.455  1.00  0.00    -0.004 C 
HETATM   29  C   UNL     1      30.848  43.672  55.861  1.00  0.00     0.005 C 
ENDBRANCH  27  28
ENDBRANCH  24  27
ENDBRANCH   1  21
TORSDOF 5
ENDMDL
MODEL 9
REMARK VINA RESULT:      -8.3      3.165      8.440
REMARK  5 active torsions:
REMARK  status: ('A' for Active; 'I' for Inactive)
REMARK    1  A    between atoms: C_2  and  C_3 
REMARK    2  A    between atoms: C_3  and  C_4 
REMARK    3  A    between atoms: C_7  and  N_8 
REMARK       I    between atoms: N_8  and  C_9 
REMARK       I    between atoms: C_9  and  N_10 
REMARK    4  A    between atoms: N_10  and  N_11 
REMARK       I    between atoms: N_11  and  C_12 
REMARK    5  A    between atoms: C_12  and  C_13 
ROOT
HETATM    1  N   UNL     1      25.677  45.429  51.841  1.00  0.00    -0.337 N 
HETATM    2  C   UNL     1      25.449  46.625  52.481  1.00  0.00     0.335 C 
HETATM    3  N   UNL     1      25.883  46.664  53.777  1.00  0.00    -0.249 N 
HETATM    4  O   UNL     1      24.912  47.595  51.959  1.00  0.00    -0.246 OA
HETATM    5  H   UNL     1      25.673  44.643  52.476  1.00  0.00     0.164 HD
HETATM    6  H   UNL     1      25.748  47.527  54.303  1.00  0.00     0.192 HD
ENDROOT
BRANCH   3   7
HETATM    7  N   UNL     1      26.748  45.707  54.334  1.00  0.00    -0.262 N 
HETATM    8  C   UNL     1      28.013  46.164  54.690  1.00  0.00     0.272 C 
HETATM    9  O   UNL     1      28.286  47.362  54.706  1.00  0.00    -0.266 OA
HETATM   10  H   UNL     1      26.666  44.764  53.965  1.00  0.00     0.190 HD
BRANCH   8  11
HETATM   11  C   UNL     1      28.994  45.121  54.989  1.00  0.00     0.061 A 
HETATM   12  C   UNL     1      29.823  45.043  56.161  1.00  0.00     0.008 A 
HETATM   13  C   UNL     1      30.603  43.891  56.053  1.00  0.00     0.043 A 
HETATM   14  C   UNL     1      29.985  45.852  57.307  1.00  0.00     0.015 A 
HETATM   15  C   UNL     1      31.532  43.507  57.030  1.00  0.00     0.030 A 
HETATM   16  N   UNL     1      30.263  43.282  54.869  1.00  0.00    -0.364 N 
HETATM   17  C   UNL     1      31.672  44.330  58.151  1.00  0.00     0.002 A 
HETATM   18  C   UNL     1      30.911  45.487  58.291  1.00  0.00     0.001 A 
HETATM   19  H   UNL     1      30.667  42.416  54.539  1.00  0.00     0.165 HD
HETATM   20  C   UNL     1      29.301  44.011  54.218  1.00  0.00     0.106 A 
ENDBRANCH   8  11
ENDBRANCH   3   7
BRANCH   1  21
HETATM   21  C   UNL     1      25.148  45.214  50.497  1.00  0.00     0.086 C 
HETATM   22  C   UNL     1      26.217  44.619  49.573  1.00  0.00     0.026 C 
HETATM   23  C   UNL     1      26.458  43.127  49.808  1.00  0.00     0.006 C 
HETATM   24  C   UNL     1      25.165  42.298  49.754  1.00  0.00    -0.014 C 
HETATM   25  C   UNL     1      24.155  42.873  50.762  1.00  0.00     0.006 C 
HETATM   26  C   UNL     1      23.870  44.359  50.533  1.00  0.00     0.026 C 
BRANCH  24  27
HETATM   27  C   UNL     1      24.534  42.202  48.346  1.00  0.00     0.004 C 
BRANCH  27  28
HETATM   28  C   UNL     1      23.318  41.277  48.272  1.00  0.00    -0.004 C 
HETATM   29  C   UNL     1      23.210  40.623  46.901  1.00  0.00     0.005 C 
ENDBRANCH  27  28
ENDBRANCH  24  27
ENDBRANCH   1  21
TORSDOF 5
ENDMDL
MODEL 10
REMARK VINA RESULT:      -8.3      3.606      6.846
REMARK  5 active torsions:
REMARK  status: ('A' for Active; 'I' for Inactive)
REMARK    1  A    between atoms: C_2  and  C_3 
REMARK    2  A    between atoms: C_3  and  C_4 
REMARK    3  A    between atoms: C_7  and  N_8 
REMARK       I    between atoms: N_8  and  C_9 
REMARK       I    between atoms: C_9  and  N_10 
REMARK    4  A    between atoms: N_10  and  N_11 
REMARK       I    between atoms: N_11  and  C_12 
REMARK    5  A    between atoms: C_12  and  C_13 
ROOT
HETATM    1  N   UNL     1      25.500  42.678  50.833  1.00  0.00    -0.337 N 
HETATM    2  C   UNL     1      24.484  43.602  50.767  1.00  0.00     0.335 C 
HETATM    3  N   UNL     1      24.622  44.657  51.626  1.00  0.00    -0.249 N 
HETATM    4  O   UNL     1      23.526  43.520  50.006  1.00  0.00    -0.246 OA
HETATM    5  H   UNL     1      25.915  42.623  51.753  1.00  0.00     0.164 HD
HETATM    6  H   UNL     1      23.903  45.379  51.618  1.00  0.00     0.192 HD
ENDROOT
BRANCH   3   7
HETATM    7  N   UNL     1      25.817  44.953  52.304  1.00  0.00    -0.262 N 
HETATM    8  C   UNL     1      25.797  44.768  53.682  1.00  0.00     0.272 C 
HETATM    9  O   UNL     1      24.867  44.191  54.243  1.00  0.00    -0.266 OA
HETATM   10  H   UNL     1      26.358  45.728  51.933  1.00  0.00     0.190 HD
BRANCH   8  11
HETATM   11  C   UNL     1      26.925  45.348  54.408  1.00  0.00     0.061 A 
HETATM   12  C   UNL     1      28.167  44.693  54.717  1.00  0.00     0.008 A 
HETATM   13  C   UNL     1      28.968  45.603  55.408  1.00  0.00     0.043 A 
HETATM   14  C   UNL     1      28.684  43.401  54.476  1.00  0.00     0.015 A 
HETATM   15  C   UNL     1      30.255  45.290  55.866  1.00  0.00     0.030 A 
HETATM   16  N   UNL     1      28.253  46.771  55.513  1.00  0.00    -0.364 N 
HETATM   17  C   UNL     1      30.738  44.003  55.614  1.00  0.00     0.002 A 
HETATM   18  C   UNL     1      29.967  43.069  54.929  1.00  0.00     0.001 A 
HETATM   19  H   UNL     1      28.597  47.611  55.959  1.00  0.00     0.165 HD
HETATM   20  C   UNL     1      27.024  46.633  54.920  1.00  0.00     0.106 A 
ENDBRANCH   8  11
ENDBRANCH   3   7
BRANCH   1  21
HETATM   21  C   UNL     1      25.408  41.442  50.060  1.00  0.00     0.086 C 
HETATM   22  C   UNL     1      25.905  41.652  48.625  1.00  0.00     0.026 C 
HETATM   23  C   UNL     1      27.429  41.706  48.514  1.00  0.00     0.006 C 
HETATM   24  C   UNL     1      28.119  40.495  49.160  1.00  0.00    -0.014 C 
HETATM   25  C   UNL     1      27.663  40.377  50.624  1.00  0.00     0.006 C 
HETATM   26  C   UNL     1      26.141  40.289  50.767  1.00  0.00     0.026 C 
BRANCH  24  27
HETATM   27  C   UNL     1      27.889  39.163  48.410  1.00  0.00     0.004 C 
BRANCH  27  28
HETATM   28  C   UNL     1      28.565  37.957  49.065  1.00  0.00    -0.004 C 
HETATM   29  C   UNL     1      30.074  38.145  49.136  1.00  0.00     0.005 C 
ENDBRANCH  27  28
ENDBRANCH  24  27
ENDBRANCH   1  21
TORSDOF 5
ENDMDL
