MODEL 1
REMARK VINA RESULT:      -9.9      0.000      0.000
REMARK  11 active torsions:
REMARK  status: ('A' for Active; 'I' for Inactive)
REMARK    1  A    between atoms: C_2  and  O_3 
REMARK    2  A    between atoms: O_3  and  C_4 
REMARK    3  A    between atoms: C_5  and  N_6 
REMARK       I    between atoms: N_6  and  C_7 
REMARK    4  A    between atoms: C_7  and  C_8 
REMARK    5  A    between atoms: C_9  and  C_10 
REMARK    6  A    between atoms: C_10  and  N_11 
REMARK    7  A    between atoms: C_24  and  N_25 
REMARK    8  A    between atoms: N_25  and  C_26 
REMARK    9  A    between atoms: C_30  and  O_31 
REMARK   10  A    between atoms: O_31  and  C_32 
REMARK   11  A    between atoms: C_32  and  C_33 
ROOT
HETATM    1  C   UNL     1      21.082  49.989  48.275  1.00  0.00     0.097 A 
HETATM    2  C   UNL     1      21.103  48.820  49.039  1.00  0.00     0.069 A 
HETATM    3  C   UNL     1      22.331  48.214  49.329  1.00  0.00     0.048 A 
HETATM    4  C   UNL     1      23.572  48.765  48.930  1.00  0.00     0.023 A 
HETATM    5  C   UNL     1      23.525  49.952  48.164  1.00  0.00     0.071 A 
HETATM    6  N   UNL     1      24.619  50.578  47.715  1.00  0.00    -0.259 NA
HETATM    7  C   UNL     1      25.824  50.051  48.011  1.00  0.00     0.142 A 
HETATM    8  C   UNL     1      25.998  48.886  48.733  1.00  0.00     0.089 A 
HETATM    9  C   UNL     1      27.329  48.419  48.966  1.00  0.00     0.103 C 
HETATM   10  N   UNL     1      28.396  48.004  49.147  1.00  0.00    -0.191 NA
HETATM   11  C   UNL     1      24.859  48.197  49.199  1.00  0.00     0.067 A 
HETATM   12  C   UNL     1      22.300  50.519  47.833  1.00  0.00     0.071 A 
ENDROOT
BRANCH  11  13
HETATM   13  N   UNL     1      25.048  46.981  49.910  1.00  0.00    -0.354 N 
HETATM   14  H   UNL     1      24.834  46.146  49.363  1.00  0.00     0.166 HD
BRANCH  13  15
HETATM   15  C   UNL     1      25.654  46.638  51.135  1.00  0.00     0.034 A 
HETATM   16  C   UNL     1      26.422  45.464  51.176  1.00  0.00     0.056 A 
HETATM   17  C   UNL     1      26.976  45.006  52.374  1.00  0.00     0.069 A 
HETATM   18 CL   UNL     1      27.901  43.549  52.346  1.00  0.00    -0.081 Cl
HETATM   19  C   UNL     1      26.750  45.707  53.557  1.00  0.00     0.091 A 
HETATM   20  C   UNL     1      26.020  46.897  53.528  1.00  0.00     0.041 A 
HETATM   21  C   UNL     1      25.470  47.355  52.322  1.00  0.00     0.032 A 
BRANCH  19  22
HETATM   22  O   UNL     1      27.318  45.265  54.721  1.00  0.00    -0.344 OA
BRANCH  22  23
HETATM   23  C   UNL     1      28.485  46.013  55.099  1.00  0.00     0.235 C 
BRANCH  23  24
HETATM   24  C   UNL     1      29.503  45.159  55.829  1.00  0.00     0.058 A 
HETATM   25  N   UNL     1      29.899  45.606  57.053  1.00  0.00    -0.263 NA
HETATM   26  C   UNL     1      30.847  44.889  57.701  1.00  0.00     0.117 A 
HETATM   27  C   UNL     1      31.421  43.735  57.200  1.00  0.00     0.019 A 
HETATM   28  C   UNL     1      31.008  43.289  55.952  1.00  0.00     0.003 A 
HETATM   29  C   UNL     1      30.047  44.013  55.252  1.00  0.00     0.029 A 
ENDBRANCH  23  24
ENDBRANCH  22  23
ENDBRANCH  19  22
ENDBRANCH  13  15
ENDBRANCH  11  13
BRANCH   2  30
HETATM   30  N   UNL     1      19.982  48.258  49.690  1.00  0.00    -0.321 N 
HETATM   31  C   UNL     1      18.795  47.851  49.160  1.00  0.00     0.245 C 
HETATM   32  O   UNL     1      17.733  48.025  49.754  1.00  0.00    -0.268 OA
HETATM   33  H   UNL     1      19.900  48.523  50.667  1.00  0.00     0.169 HD
BRANCH  31  34
HETATM   34  C   UNL     1      18.889  46.887  48.028  1.00  0.00     0.072 C 
HETATM   35  C   UNL     1      19.346  45.651  48.293  1.00  0.00     0.006 C 
BRANCH  35  36
HETATM   36  C   UNL     1      19.808  44.677  47.266  1.00  0.00     0.261 C 
BRANCH  36  37
HETATM   37  N   UNL     1      21.304  44.464  47.384  1.00  0.00    -0.076 N 
HETATM   38  H   UNL     1      21.477  43.492  47.095  1.00  0.00     0.279 HD
HETATM   39  C   UNL     1      22.099  45.335  46.449  1.00  0.00     0.269 C 
HETATM   40  C   UNL     1      21.796  44.581  48.795  1.00  0.00     0.269 C 
ENDBRANCH  36  37
ENDBRANCH  35  36
ENDBRANCH  31  34
ENDBRANCH   2  30
BRANCH   1  41
HETATM   41  O   UNL     1      19.875  50.586  48.024  1.00  0.00    -0.349 OA
BRANCH  41  42
HETATM   42  C   UNL     1      19.702  51.906  48.553  1.00  0.00     0.171 C 
HETATM   43  C   UNL     1      18.905  51.796  49.840  1.00  0.00     0.034 C 
ENDBRANCH  41  42
ENDBRANCH   1  41
TORSDOF 11
ENDMDL
MODEL 2
REMARK VINA RESULT:      -9.1      1.497      2.011
REMARK  11 active torsions:
REMARK  status: ('A' for Active; 'I' for Inactive)
REMARK    1  A    between atoms: C_2  and  O_3 
REMARK    2  A    between atoms: O_3  and  C_4 
REMARK    3  A    between atoms: C_5  and  N_6 
REMARK       I    between atoms: N_6  and  C_7 
REMARK    4  A    between atoms: C_7  and  C_8 
REMARK    5  A    between atoms: C_9  and  C_10 
REMARK    6  A    between atoms: C_10  and  N_11 
REMARK    7  A    between atoms: C_24  and  N_25 
REMARK    8  A    between atoms: N_25  and  C_26 
REMARK    9  A    between atoms: C_30  and  O_31 
REMARK   10  A    between atoms: O_31  and  C_32 
REMARK   11  A    between atoms: C_32  and  C_33 
ROOT
HETATM    1  C   UNL     1      19.555  50.065  48.808  1.00  0.00     0.097 A 
HETATM    2  C   UNL     1      19.723  48.706  49.082  1.00  0.00     0.069 A 
HETATM    3  C   UNL     1      21.015  48.166  49.097  1.00  0.00     0.048 A 
HETATM    4  C   UNL     1      22.177  48.951  48.904  1.00  0.00     0.023 A 
HETATM    5  C   UNL     1      21.981  50.324  48.636  1.00  0.00     0.071 A 
HETATM    6  N   UNL     1      22.987  51.181  48.427  1.00  0.00    -0.259 NA
HETATM    7  C   UNL     1      24.249  50.709  48.479  1.00  0.00     0.142 A 
HETATM    8  C   UNL     1      24.567  49.385  48.711  1.00  0.00     0.089 A 
HETATM    9  C   UNL     1      25.945  49.005  48.724  1.00  0.00     0.103 C 
HETATM   10  N   UNL     1      27.054  48.666  48.713  1.00  0.00    -0.191 NA
HETATM   11  C   UNL     1      23.523  48.459  48.914  1.00  0.00     0.067 A 
HETATM   12  C   UNL     1      20.693  50.843  48.567  1.00  0.00     0.071 A 
ENDROOT
BRANCH  11  13
HETATM   13  N   UNL     1      23.859  47.093  49.117  1.00  0.00    -0.354 N 
HETATM   14  H   UNL     1      23.816  46.528  48.268  1.00  0.00     0.166 HD
BRANCH  13  15
HETATM   15  C   UNL     1      24.435  46.367  50.177  1.00  0.00     0.034 A 
HETATM   16  C   UNL     1      24.894  47.090  51.290  1.00  0.00     0.056 A 
HETATM   17  C   UNL     1      25.562  46.454  52.338  1.00  0.00     0.069 A 
HETATM   18 CL   UNL     1      26.104  47.411  53.668  1.00  0.00    -0.081 Cl
HETATM   19  C   UNL     1      25.803  45.081  52.278  1.00  0.00     0.091 A 
HETATM   20  C   UNL     1      25.320  44.341  51.197  1.00  0.00     0.041 A 
HETATM   21  C   UNL     1      24.646  44.984  50.150  1.00  0.00     0.032 A 
BRANCH  19  22
HETATM   22  O   UNL     1      26.436  44.462  53.322  1.00  0.00    -0.344 OA
BRANCH  22  23
HETATM   23  C   UNL     1      27.732  43.951  52.972  1.00  0.00     0.235 C 
BRANCH  23  24
HETATM   24  C   UNL     1      28.733  44.100  54.100  1.00  0.00     0.058 A 
HETATM   25  N   UNL     1      28.628  45.228  54.856  1.00  0.00    -0.263 NA
HETATM   26  C   UNL     1      29.544  45.408  55.835  1.00  0.00     0.117 A 
HETATM   27  C   UNL     1      30.563  44.516  56.115  1.00  0.00     0.019 A 
HETATM   28  C   UNL     1      30.658  43.369  55.340  1.00  0.00     0.003 A 
HETATM   29  C   UNL     1      29.741  43.161  54.313  1.00  0.00     0.029 A 
ENDBRANCH  23  24
ENDBRANCH  22  23
ENDBRANCH  19  22
ENDBRANCH  13  15
ENDBRANCH  11  13
BRANCH   2  30
HETATM   30  N   UNL     1      18.697  47.832  49.503  1.00  0.00    -0.321 N 
HETATM   31  C   UNL     1      17.744  47.203  48.759  1.00  0.00     0.245 C 
HETATM   32  O   UNL     1      16.596  47.059  49.173  1.00  0.00    -0.268 OA
HETATM   33  H   UNL     1      18.405  47.974  50.465  1.00  0.00     0.169 HD
BRANCH  31  34
HETATM   34  C   UNL     1      18.247  46.402  47.607  1.00  0.00     0.072 C 
HETATM   35  C   UNL     1      18.988  45.314  47.875  1.00  0.00     0.006 C 
BRANCH  35  36
HETATM   36  C   UNL     1      19.831  44.592  46.883  1.00  0.00     0.261 C 
BRANCH  36  37
HETATM   37  N   UNL     1      21.041  45.427  46.519  1.00  0.00    -0.076 N 
HETATM   38  H   UNL     1      20.996  46.268  47.110  1.00  0.00     0.279 HD
HETATM   39  C   UNL     1      22.345  44.748  46.840  1.00  0.00     0.269 C 
HETATM   40  C   UNL     1      21.008  45.906  45.098  1.00  0.00     0.269 C 
ENDBRANCH  36  37
ENDBRANCH  35  36
ENDBRANCH  31  34
ENDBRANCH   2  30
BRANCH   1  41
HETATM   41  O   UNL     1      18.288  50.585  48.825  1.00  0.00    -0.349 OA
BRANCH  41  42
HETATM   42  C   UNL     1      17.938  51.357  49.979  1.00  0.00     0.171 C 
HETATM   43  C   UNL     1      17.330  52.664  49.505  1.00  0.00     0.034 C 
ENDBRANCH  41  42
ENDBRANCH   1  41
TORSDOF 11
ENDMDL
MODEL 3
REMARK VINA RESULT:      -9.0      1.499      1.835
REMARK  11 active torsions:
REMARK  status: ('A' for Active; 'I' for Inactive)
REMARK    1  A    between atoms: C_2  and  O_3 
REMARK    2  A    between atoms: O_3  and  C_4 
REMARK    3  A    between atoms: C_5  and  N_6 
REMARK       I    between atoms: N_6  and  C_7 
REMARK    4  A    between atoms: C_7  and  C_8 
REMARK    5  A    between atoms: C_9  and  C_10 
REMARK    6  A    between atoms: C_10  and  N_11 
REMARK    7  A    between atoms: C_24  and  N_25 
REMARK    8  A    between atoms: N_25  and  C_26 
REMARK    9  A    between atoms: C_30  and  O_31 
REMARK   10  A    between atoms: O_31  and  C_32 
REMARK   11  A    between atoms: C_32  and  C_33 
ROOT
HETATM    1  C   UNL     1      20.842  48.389  47.887  1.00  0.00     0.097 A 
HETATM    2  C   UNL     1      21.282  47.198  48.471  1.00  0.00     0.069 A 
HETATM    3  C   UNL     1      22.633  47.064  48.815  1.00  0.00     0.048 A 
HETATM    4  C   UNL     1      23.574  48.108  48.653  1.00  0.00     0.023 A 
HETATM    5  C   UNL     1      23.102  49.305  48.068  1.00  0.00     0.071 A 
HETATM    6  N   UNL     1      23.882  50.370  47.850  1.00  0.00    -0.259 NA
HETATM    7  C   UNL     1      25.179  50.298  48.209  1.00  0.00     0.142 A 
HETATM    8  C   UNL     1      25.761  49.176  48.769  1.00  0.00     0.089 A 
HETATM    9  C   UNL     1      27.153  49.217  49.091  1.00  0.00     0.103 C 
HETATM   10  N   UNL     1      28.286  49.215  49.337  1.00  0.00    -0.191 NA
HETATM   11  C   UNL     1      24.964  48.034  48.991  1.00  0.00     0.067 A 
HETATM   12  C   UNL     1      21.773  49.412  47.678  1.00  0.00     0.071 A 
ENDROOT
BRANCH  11  13
HETATM   13  N   UNL     1      25.579  46.874  49.535  1.00  0.00    -0.354 N 
HETATM   14  H   UNL     1      25.880  46.199  48.831  1.00  0.00     0.166 HD
BRANCH  13  15
HETATM   15  C   UNL     1      26.059  46.519  50.811  1.00  0.00     0.034 A 
HETATM   16  C   UNL     1      26.743  45.299  50.935  1.00  0.00     0.056 A 
HETATM   17  C   UNL     1      27.165  44.832  52.181  1.00  0.00     0.069 A 
HETATM   18 CL   UNL     1      27.993  43.320  52.254  1.00  0.00    -0.081 Cl
HETATM   19  C   UNL     1      26.887  45.570  53.331  1.00  0.00     0.091 A 
HETATM   20  C   UNL     1      26.241  46.803  53.222  1.00  0.00     0.041 A 
HETATM   21  C   UNL     1      25.823  47.270  51.967  1.00  0.00     0.032 A 
BRANCH  19  22
HETATM   22  O   UNL     1      27.327  45.117  54.545  1.00  0.00    -0.344 OA
BRANCH  22  23
HETATM   23  C   UNL     1      28.381  45.921  55.098  1.00  0.00     0.235 C 
BRANCH  23  24
HETATM   24  C   UNL     1      29.434  45.084  55.799  1.00  0.00     0.058 A 
HETATM   25  N   UNL     1      29.933  45.589  56.961  1.00  0.00    -0.263 NA
HETATM   26  C   UNL     1      30.912  44.886  57.576  1.00  0.00     0.117 A 
HETATM   27  C   UNL     1      31.422  43.692  57.101  1.00  0.00     0.019 A 
HETATM   28  C   UNL     1      30.905  43.187  55.916  1.00  0.00     0.003 A 
HETATM   29  C   UNL     1      29.908  43.893  55.250  1.00  0.00     0.029 A 
ENDBRANCH  23  24
ENDBRANCH  22  23
ENDBRANCH  19  22
ENDBRANCH  13  15
ENDBRANCH  11  13
BRANCH   2  30
HETATM   30  N   UNL     1      20.442  46.145  48.894  1.00  0.00    -0.321 N 
HETATM   31  C   UNL     1      19.789  45.212  48.145  1.00  0.00     0.245 C 
HETATM   32  O   UNL     1      18.659  44.827  48.439  1.00  0.00    -0.268 OA
HETATM   33  H   UNL     1      19.983  46.317  49.783  1.00  0.00     0.169 HD
BRANCH  31  34
HETATM   34  C   UNL     1      20.636  44.440  47.192  1.00  0.00     0.072 C 
HETATM   35  C   UNL     1      21.602  43.658  47.703  1.00  0.00     0.006 C 
BRANCH  35  36
HETATM   36  C   UNL     1      22.730  43.080  46.923  1.00  0.00     0.261 C 
BRANCH  36  37
HETATM   37  N   UNL     1      23.699  42.376  47.849  1.00  0.00    -0.076 N 
HETATM   38  H   UNL     1      23.126  41.781  48.463  1.00  0.00     0.279 HD
HETATM   39  C   UNL     1      24.645  41.456  47.125  1.00  0.00     0.269 C 
HETATM   40  C   UNL     1      24.437  43.325  48.746  1.00  0.00     0.269 C 
ENDBRANCH  36  37
ENDBRANCH  35  36
ENDBRANCH  31  34
ENDBRANCH   2  30
BRANCH   1  41
HETATM   41  O   UNL     1      19.513  48.516  47.583  1.00  0.00    -0.349 OA
BRANCH  41  42
HETATM   42  C   UNL     1      18.786  49.501  48.327  1.00  0.00     0.171 C 
HETATM   43  C   UNL     1      18.113  48.804  49.496  1.00  0.00     0.034 C 
ENDBRANCH  41  42
ENDBRANCH   1  41
TORSDOF 11
ENDMDL
MODEL 4
REMARK VINA RESULT:      -8.5      2.020      3.785
REMARK  11 active torsions:
REMARK  status: ('A' for Active; 'I' for Inactive)
REMARK    1  A    between atoms: C_2  and  O_3 
REMARK    2  A    between atoms: O_3  and  C_4 
REMARK    3  A    between atoms: C_5  and  N_6 
REMARK       I    between atoms: N_6  and  C_7 
REMARK    4  A    between atoms: C_7  and  C_8 
REMARK    5  A    between atoms: C_9  and  C_10 
REMARK    6  A    between atoms: C_10  and  N_11 
REMARK    7  A    between atoms: C_24  and  N_25 
REMARK    8  A    between atoms: N_25  and  C_26 
REMARK    9  A    between atoms: C_30  and  O_31 
REMARK   10  A    between atoms: O_31  and  C_32 
REMARK   11  A    between atoms: C_32  and  C_33 
ROOT
HETATM    1  C   UNL     1      20.413  49.897  47.481  1.00  0.00     0.097 A 
HETATM    2  C   UNL     1      20.305  48.996  48.543  1.00  0.00     0.069 A 
HETATM    3  C   UNL     1      21.469  48.522  49.159  1.00  0.00     0.048 A 
HETATM    4  C   UNL     1      22.764  48.958  48.792  1.00  0.00     0.023 A 
HETATM    5  C   UNL     1      22.847  49.875  47.719  1.00  0.00     0.071 A 
HETATM    6  N   UNL     1      24.006  50.365  47.264  1.00  0.00    -0.259 NA
HETATM    7  C   UNL     1      25.147  49.967  47.860  1.00  0.00     0.142 A 
HETATM    8  C   UNL     1      25.196  49.061  48.901  1.00  0.00     0.089 A 
HETATM    9  C   UNL     1      26.472  48.705  49.438  1.00  0.00     0.103 C 
HETATM   10  N   UNL     1      27.496  48.378  49.874  1.00  0.00    -0.191 NA
HETATM   11  C   UNL     1      23.990  48.514  49.386  1.00  0.00     0.067 A 
HETATM   12  C   UNL     1      21.691  50.300  47.077  1.00  0.00     0.071 A 
ENDROOT
BRANCH  11  13
HETATM   13  N   UNL     1      24.053  47.556  50.434  1.00  0.00    -0.354 N 
HETATM   14  H   UNL     1      23.146  47.341  50.851  1.00  0.00     0.166 HD
BRANCH  13  15
HETATM   15  C   UNL     1      25.046  46.677  50.907  1.00  0.00     0.034 A 
HETATM   16  C   UNL     1      25.381  45.576  50.102  1.00  0.00     0.056 A 
HETATM   17  C   UNL     1      26.286  44.608  50.543  1.00  0.00     0.069 A 
HETATM   18 CL   UNL     1      26.640  43.280  49.500  1.00  0.00    -0.081 Cl
HETATM   19  C   UNL     1      26.854  44.714  51.811  1.00  0.00     0.091 A 
HETATM   20  C   UNL     1      26.562  45.821  52.610  1.00  0.00     0.041 A 
HETATM   21  C   UNL     1      25.656  46.793  52.161  1.00  0.00     0.032 A 
BRANCH  19  22
HETATM   22  O   UNL     1      27.759  43.775  52.225  1.00  0.00    -0.344 OA
BRANCH  22  23
HETATM   23  C   UNL     1      27.547  43.345  53.579  1.00  0.00     0.235 C 
BRANCH  23  24
HETATM   24  C   UNL     1      28.711  43.698  54.484  1.00  0.00     0.058 A 
HETATM   25  N   UNL     1      28.640  44.900  55.120  1.00  0.00    -0.263 NA
HETATM   26  C   UNL     1      29.692  45.259  55.891  1.00  0.00     0.117 A 
HETATM   27  C   UNL     1      30.819  44.479  56.075  1.00  0.00     0.019 A 
HETATM   28  C   UNL     1      30.880  43.256  55.422  1.00  0.00     0.003 A 
HETATM   29  C   UNL     1      29.821  42.863  54.608  1.00  0.00     0.029 A 
ENDBRANCH  23  24
ENDBRANCH  22  23
ENDBRANCH  19  22
ENDBRANCH  13  15
ENDBRANCH  11  13
BRANCH   2  30
HETATM   30  N   UNL     1      19.094  48.625  49.168  1.00  0.00    -0.321 N 
HETATM   31  C   UNL     1      18.581  49.037  50.362  1.00  0.00     0.245 C 
HETATM   32  O   UNL     1      17.981  48.264  51.105  1.00  0.00    -0.268 OA
HETATM   33  H   UNL     1      18.759  47.705  48.900  1.00  0.00     0.169 HD
BRANCH  31  34
HETATM   34  C   UNL     1      18.471  50.512  50.544  1.00  0.00     0.072 C 
HETATM   35  C   UNL     1      17.663  51.188  49.710  1.00  0.00     0.006 C 
BRANCH  35  36
HETATM   36  C   UNL     1      17.673  52.666  49.527  1.00  0.00     0.261 C 
BRANCH  36  37
HETATM   37  N   UNL     1      16.332  53.136  49.003  1.00  0.00    -0.076 N 
HETATM   38  H   UNL     1      16.540  53.798  48.242  1.00  0.00     0.279 HD
HETATM   39  C   UNL     1      15.514  52.029  48.395  1.00  0.00     0.269 C 
HETATM   40  C   UNL     1      15.546  53.900  50.026  1.00  0.00     0.269 C 
ENDBRANCH  36  37
ENDBRANCH  35  36
ENDBRANCH  31  34
ENDBRANCH   2  30
BRANCH   1  41
HETATM   41  O   UNL     1      19.265  50.376  46.907  1.00  0.00    -0.349 OA
BRANCH  41  42
HETATM   42  C   UNL     1      18.819  49.698  45.727  1.00  0.00     0.171 C 
HETATM   43  C   UNL     1      18.414  50.746  44.707  1.00  0.00     0.034 C 
ENDBRANCH  41  42
ENDBRANCH   1  41
TORSDOF 11
ENDMDL
MODEL 5
REMARK VINA RESULT:      -8.4      1.633      2.028
REMARK  11 active torsions:
REMARK  status: ('A' for Active; 'I' for Inactive)
REMARK    1  A    between atoms: C_2  and  O_3 
REMARK    2  A    between atoms: O_3  and  C_4 
REMARK    3  A    between atoms: C_5  and  N_6 
REMARK       I    between atoms: N_6  and  C_7 
REMARK    4  A    between atoms: C_7  and  C_8 
REMARK    5  A    between atoms: C_9  and  C_10 
REMARK    6  A    between atoms: C_10  and  N_11 
REMARK    7  A    between atoms: C_24  and  N_25 
REMARK    8  A    between atoms: N_25  and  C_26 
REMARK    9  A    between atoms: C_30  and  O_31 
REMARK   10  A    between atoms: O_31  and  C_32 
REMARK   11  A    between atoms: C_32  and  C_33 
ROOT
HETATM    1  C   UNL     1      20.260  49.894  48.182  1.00  0.00     0.097 A 
HETATM    2  C   UNL     1      20.342  48.638  48.787  1.00  0.00     0.069 A 
HETATM    3  C   UNL     1      21.601  48.077  49.030  1.00  0.00     0.048 A 
HETATM    4  C   UNL     1      22.811  48.752  48.743  1.00  0.00     0.023 A 
HETATM    5  C   UNL     1      22.701  50.025  48.138  1.00  0.00     0.071 A 
HETATM    6  N   UNL     1      23.761  50.771  47.807  1.00  0.00    -0.259 NA
HETATM    7  C   UNL     1      24.992  50.286  48.067  1.00  0.00     0.142 A 
HETATM    8  C   UNL     1      25.227  49.049  48.634  1.00  0.00     0.089 A 
HETATM    9  C   UNL     1      26.581  48.639  48.842  1.00  0.00     0.103 C 
HETATM   10  N   UNL     1      27.669  48.271  48.998  1.00  0.00    -0.191 NA
HETATM   11  C   UNL     1      24.127  48.234  48.973  1.00  0.00     0.067 A 
HETATM   12  C   UNL     1      21.449  50.552  47.849  1.00  0.00     0.071 A 
ENDROOT
BRANCH  11  13
HETATM   13  N   UNL     1      24.380  46.949  49.524  1.00  0.00    -0.354 N 
HETATM   14  H   UNL     1      24.166  46.179  48.888  1.00  0.00     0.166 HD
BRANCH  13  15
HETATM   15  C   UNL     1      25.048  46.483  50.673  1.00  0.00     0.034 A 
HETATM   16  C   UNL     1      25.493  45.151  50.673  1.00  0.00     0.056 A 
HETATM   17  C   UNL     1      26.079  44.586  51.809  1.00  0.00     0.069 A 
HETATM   18 CL   UNL     1      26.592  42.941  51.735  1.00  0.00    -0.081 Cl
HETATM   19  C   UNL     1      26.208  45.342  52.973  1.00  0.00     0.091 A 
HETATM   20  C   UNL     1      25.805  46.679  52.978  1.00  0.00     0.041 A 
HETATM   21  C   UNL     1      25.222  47.242  51.834  1.00  0.00     0.032 A 
BRANCH  19  22
HETATM   22  O   UNL     1      26.806  44.789  54.073  1.00  0.00    -0.344 OA
BRANCH  22  23
HETATM   23  C   UNL     1      28.235  44.707  53.956  1.00  0.00     0.235 C 
BRANCH  23  24
HETATM   24  C   UNL     1      28.939  45.046  55.256  1.00  0.00     0.058 A 
HETATM   25  N   UNL     1      30.110  44.395  55.497  1.00  0.00    -0.263 NA
HETATM   26  C   UNL     1      30.728  44.643  56.675  1.00  0.00     0.117 A 
HETATM   27  C   UNL     1      30.247  45.517  57.633  1.00  0.00     0.019 A 
HETATM   28  C   UNL     1      29.054  46.175  57.375  1.00  0.00     0.003 A 
HETATM   29  C   UNL     1      28.383  45.931  56.179  1.00  0.00     0.029 A 
ENDBRANCH  23  24
ENDBRANCH  22  23
ENDBRANCH  19  22
ENDBRANCH  13  15
ENDBRANCH  11  13
BRANCH   2  30
HETATM   30  N   UNL     1      19.247  47.926  49.327  1.00  0.00    -0.321 N 
HETATM   31  C   UNL     1      18.247  47.266  48.678  1.00  0.00     0.245 C 
HETATM   32  O   UNL     1      17.091  47.281  49.094  1.00  0.00    -0.268 OA
HETATM   33  H   UNL     1      18.967  48.242  50.250  1.00  0.00     0.169 HD
BRANCH  31  34
HETATM   34  C   UNL     1      18.685  46.255  47.674  1.00  0.00     0.072 C 
HETATM   35  C   UNL     1      18.690  46.617  46.380  1.00  0.00     0.006 C 
BRANCH  35  36
HETATM   36  C   UNL     1      18.779  45.673  45.233  1.00  0.00     0.261 C 
BRANCH  36  37
HETATM   37  N   UNL     1      17.413  45.481  44.607  1.00  0.00    -0.076 N 
HETATM   38  H   UNL     1      16.835  46.266  44.936  1.00  0.00     0.279 HD
HETATM   39  C   UNL     1      17.435  45.567  43.104  1.00  0.00     0.269 C 
HETATM   40  C   UNL     1      16.732  44.229  45.074  1.00  0.00     0.269 C 
ENDBRANCH  36  37
ENDBRANCH  35  36
ENDBRANCH  31  34
ENDBRANCH   2  30
BRANCH   1  41
HETATM   41  O   UNL     1      19.022  50.443  47.977  1.00  0.00    -0.349 OA
BRANCH  41  42
HETATM   42  C   UNL     1      18.873  51.819  48.345  1.00  0.00     0.171 C 
HETATM   43  C   UNL     1      18.710  51.888  49.853  1.00  0.00     0.034 C 
ENDBRANCH  41  42
ENDBRANCH   1  41
TORSDOF 11
ENDMDL
MODEL 6
REMARK VINA RESULT:      -8.4      4.767      6.771
REMARK  11 active torsions:
REMARK  status: ('A' for Active; 'I' for Inactive)
REMARK    1  A    between atoms: C_2  and  O_3 
REMARK    2  A    between atoms: O_3  and  C_4 
REMARK    3  A    between atoms: C_5  and  N_6 
REMARK       I    between atoms: N_6  and  C_7 
REMARK    4  A    between atoms: C_7  and  C_8 
REMARK    5  A    between atoms: C_9  and  C_10 
REMARK    6  A    between atoms: C_10  and  N_11 
REMARK    7  A    between atoms: C_24  and  N_25 
REMARK    8  A    between atoms: N_25  and  C_26 
REMARK    9  A    between atoms: C_30  and  O_31 
REMARK   10  A    between atoms: O_31  and  C_32 
REMARK   11  A    between atoms: C_32  and  C_33 
ROOT
HETATM    1  C   UNL     1      23.693  47.250  49.225  1.00  0.00     0.097 A 
HETATM    2  C   UNL     1      23.624  45.868  49.029  1.00  0.00     0.069 A 
HETATM    3  C   UNL     1      24.283  45.017  49.923  1.00  0.00     0.048 A 
HETATM    4  C   UNL     1      24.978  45.489  51.063  1.00  0.00     0.023 A 
HETATM    5  C   UNL     1      25.027  46.890  51.242  1.00  0.00     0.071 A 
HETATM    6  N   UNL     1      25.653  47.473  52.271  1.00  0.00    -0.259 NA
HETATM    7  C   UNL     1      26.263  46.686  53.180  1.00  0.00     0.142 A 
HETATM    8  C   UNL     1      26.301  45.307  53.100  1.00  0.00     0.089 A 
HETATM    9  C   UNL     1      26.996  44.583  54.118  1.00  0.00     0.103 C 
HETATM   10  N   UNL     1      27.575  43.974  54.917  1.00  0.00    -0.191 NA
HETATM   11  C   UNL     1      25.666  44.669  52.015  1.00  0.00     0.067 A 
HETATM   12  C   UNL     1      24.417  47.732  50.321  1.00  0.00     0.071 A 
ENDROOT
BRANCH  11  13
HETATM   13  N   UNL     1      25.741  43.253  51.924  1.00  0.00    -0.354 N 
HETATM   14  H   UNL     1      24.878  42.776  52.192  1.00  0.00     0.166 HD
BRANCH  13  15
HETATM   15  C   UNL     1      26.660  42.348  51.357  1.00  0.00     0.034 A 
HETATM   16  C   UNL     1      26.611  42.152  49.968  1.00  0.00     0.056 A 
HETATM   17  C   UNL     1      27.423  41.203  49.343  1.00  0.00     0.069 A 
HETATM   18 CL   UNL     1      27.299  41.014  47.633  1.00  0.00    -0.081 Cl
HETATM   19  C   UNL     1      28.285  40.416  50.107  1.00  0.00     0.091 A 
HETATM   20  C   UNL     1      28.374  40.623  51.484  1.00  0.00     0.041 A 
HETATM   21  C   UNL     1      27.559  41.581  52.105  1.00  0.00     0.032 A 
BRANCH  19  22
HETATM   22  O   UNL     1      29.095  39.506  49.484  1.00  0.00    -0.344 OA
BRANCH  22  23
HETATM   23  C   UNL     1      28.771  38.145  49.810  1.00  0.00     0.235 C 
BRANCH  23  24
HETATM   24  C   UNL     1      27.959  37.471  48.722  1.00  0.00     0.058 A 
HETATM   25  N   UNL     1      28.461  37.547  47.458  1.00  0.00    -0.263 NA
HETATM   26  C   UNL     1      27.726  36.998  46.463  1.00  0.00     0.117 A 
HETATM   27  C   UNL     1      26.513  36.363  46.656  1.00  0.00     0.019 A 
HETATM   28  C   UNL     1      26.013  36.291  47.949  1.00  0.00     0.003 A 
HETATM   29  C   UNL     1      26.735  36.860  48.994  1.00  0.00     0.029 A 
ENDBRANCH  23  24
ENDBRANCH  22  23
ENDBRANCH  19  22
ENDBRANCH  13  15
ENDBRANCH  11  13
BRANCH   2  30
HETATM   30  N   UNL     1      22.805  45.227  48.073  1.00  0.00    -0.321 N 
HETATM   31  C   UNL     1      21.540  44.740  48.213  1.00  0.00     0.245 C 
HETATM   32  O   UNL     1      21.188  43.697  47.668  1.00  0.00    -0.268 OA
HETATM   33  H   UNL     1      23.324  44.751  47.341  1.00  0.00     0.169 HD
BRANCH  31  34
HETATM   34  C   UNL     1      20.533  45.701  48.746  1.00  0.00     0.072 C 
HETATM   35  C   UNL     1      19.993  46.584  47.888  1.00  0.00     0.006 C 
BRANCH  35  36
HETATM   36  C   UNL     1      19.236  47.802  48.285  1.00  0.00     0.261 C 
BRANCH  36  37
HETATM   37  N   UNL     1      18.307  47.488  49.439  1.00  0.00    -0.076 N 
HETATM   38  H   UNL     1      18.631  46.593  49.831  1.00  0.00     0.279 HD
HETATM   39  C   UNL     1      18.386  48.497  50.553  1.00  0.00     0.269 C 
HETATM   40  C   UNL     1      16.890  47.269  48.998  1.00  0.00     0.269 C 
ENDBRANCH  36  37
ENDBRANCH  35  36
ENDBRANCH  31  34
ENDBRANCH   2  30
BRANCH   1  41
HETATM   41  O   UNL     1      23.019  48.069  48.359  1.00  0.00    -0.349 OA
BRANCH  41  42
HETATM   42  C   UNL     1      22.580  49.324  48.890  1.00  0.00     0.171 C 
HETATM   43  C   UNL     1      22.254  50.241  47.725  1.00  0.00     0.034 C 
ENDBRANCH  41  42
ENDBRANCH   1  41
TORSDOF 11
ENDMDL
MODEL 7
REMARK VINA RESULT:      -8.3      3.480      9.873
REMARK  11 active torsions:
REMARK  status: ('A' for Active; 'I' for Inactive)
REMARK    1  A    between atoms: C_2  and  O_3 
REMARK    2  A    between atoms: O_3  and  C_4 
REMARK    3  A    between atoms: C_5  and  N_6 
REMARK       I    between atoms: N_6  and  C_7 
REMARK    4  A    between atoms: C_7  and  C_8 
REMARK    5  A    between atoms: C_9  and  C_10 
REMARK    6  A    between atoms: C_10  and  N_11 
REMARK    7  A    between atoms: C_24  and  N_25 
REMARK    8  A    between atoms: N_25  and  C_26 
REMARK    9  A    between atoms: C_30  and  O_31 
REMARK   10  A    between atoms: O_31  and  C_32 
REMARK   11  A    between atoms: C_32  and  C_33 
ROOT
HETATM    1  C   UNL     1      28.036  41.729  51.948  1.00  0.00     0.097 A 
HETATM    2  C   UNL     1      26.844  42.418  52.189  1.00  0.00     0.069 A 
HETATM    3  C   UNL     1      25.839  42.407  51.214  1.00  0.00     0.048 A 
HETATM    4  C   UNL     1      25.949  41.677  50.006  1.00  0.00     0.023 A 
HETATM    5  C   UNL     1      27.161  40.983  49.790  1.00  0.00     0.071 A 
HETATM    6  N   UNL     1      27.403  40.258  48.691  1.00  0.00    -0.259 NA
HETATM    7  C   UNL     1      26.443  40.185  47.748  1.00  0.00     0.142 A 
HETATM    8  C   UNL     1      25.228  40.836  47.836  1.00  0.00     0.089 A 
HETATM    9  C   UNL     1      24.298  40.694  46.760  1.00  0.00     0.103 C 
HETATM   10  N   UNL     1      23.536  40.617  45.889  1.00  0.00    -0.191 NA
HETATM   11  C   UNL     1      24.956  41.622  48.975  1.00  0.00     0.067 A 
HETATM   12  C   UNL     1      28.176  41.043  50.737  1.00  0.00     0.071 A 
ENDROOT
BRANCH  11  13
HETATM   13  N   UNL     1      23.717  42.315  49.040  1.00  0.00    -0.354 N 
HETATM   14  H   UNL     1      22.996  41.821  49.568  1.00  0.00     0.166 HD
BRANCH  13  15
HETATM   15  C   UNL     1      23.299  43.621  48.718  1.00  0.00     0.034 A 
HETATM   16  C   UNL     1      22.715  43.827  47.458  1.00  0.00     0.056 A 
HETATM   17  C   UNL     1      22.362  45.108  47.026  1.00  0.00     0.069 A 
HETATM   18 CL   UNL     1      21.657  45.282  45.462  1.00  0.00    -0.081 Cl
HETATM   19  C   UNL     1      22.611  46.210  47.844  1.00  0.00     0.091 A 
HETATM   20  C   UNL     1      23.157  46.019  49.115  1.00  0.00     0.041 A 
HETATM   21  C   UNL     1      23.505  44.730  49.545  1.00  0.00     0.032 A 
BRANCH  19  22
HETATM   22  O   UNL     1      22.239  47.458  47.424  1.00  0.00    -0.344 OA
BRANCH  22  23
HETATM   23  C   UNL     1      22.697  48.505  48.295  1.00  0.00     0.235 C 
BRANCH  23  24
HETATM   24  C   UNL     1      21.583  49.457  48.683  1.00  0.00     0.058 A 
HETATM   25  N   UNL     1      20.572  48.933  49.430  1.00  0.00    -0.263 NA
HETATM   26  C   UNL     1      19.541  49.751  49.744  1.00  0.00     0.117 A 
HETATM   27  C   UNL     1      19.461  51.078  49.361  1.00  0.00     0.019 A 
HETATM   28  C   UNL     1      20.498  51.601  48.602  1.00  0.00     0.003 A 
HETATM   29  C   UNL     1      21.567  50.782  48.247  1.00  0.00     0.029 A 
ENDBRANCH  23  24
ENDBRANCH  22  23
ENDBRANCH  19  22
ENDBRANCH  13  15
ENDBRANCH  11  13
BRANCH   2  30
HETATM   30  N   UNL     1      26.488  43.016  53.418  1.00  0.00    -0.321 N 
HETATM   31  C   UNL     1      26.495  44.333  53.767  1.00  0.00     0.245 C 
HETATM   32  O   UNL     1      26.834  44.699  54.890  1.00  0.00    -0.268 OA
HETATM   33  H   UNL     1      26.597  42.402  54.220  1.00  0.00     0.169 HD
BRANCH  31  34
HETATM   34  C   UNL     1      25.743  45.246  52.860  1.00  0.00     0.072 C 
HETATM   35  C   UNL     1      26.452  46.091  52.093  1.00  0.00     0.006 C 
BRANCH  35  36
HETATM   36  C   UNL     1      25.889  47.273  51.384  1.00  0.00     0.261 C 
BRANCH  36  37
HETATM   37  N   UNL     1      26.293  47.249  49.924  1.00  0.00    -0.076 N 
HETATM   38  H   UNL     1      25.416  47.234  49.386  1.00  0.00     0.279 HD
HETATM   39  C   UNL     1      27.035  48.487  49.497  1.00  0.00     0.269 C 
HETATM   40  C   UNL     1      27.042  46.005  49.552  1.00  0.00     0.269 C 
ENDBRANCH  36  37
ENDBRANCH  35  36
ENDBRANCH  31  34
ENDBRANCH   2  30
BRANCH   1  41
HETATM   41  O   UNL     1      28.997  41.725  52.923  1.00  0.00    -0.349 OA
BRANCH  41  42
HETATM   42  C   UNL     1      29.891  42.844  52.933  1.00  0.00     0.171 C 
HETATM   43  C   UNL     1      30.183  43.201  54.379  1.00  0.00     0.034 C 
ENDBRANCH  41  42
ENDBRANCH   1  41
TORSDOF 11
ENDMDL
MODEL 8
REMARK VINA RESULT:      -8.3      3.629      4.531
REMARK  11 active torsions:
REMARK  status: ('A' for Active; 'I' for Inactive)
REMARK    1  A    between atoms: C_2  and  O_3 
REMARK    2  A    between atoms: O_3  and  C_4 
REMARK    3  A    between atoms: C_5  and  N_6 
REMARK       I    between atoms: N_6  and  C_7 
REMARK    4  A    between atoms: C_7  and  C_8 
REMARK    5  A    between atoms: C_9  and  C_10 
REMARK    6  A    between atoms: C_10  and  N_11 
REMARK    7  A    between atoms: C_24  and  N_25 
REMARK    8  A    between atoms: N_25  and  C_26 
REMARK    9  A    between atoms: C_30  and  O_31 
REMARK   10  A    between atoms: O_31  and  C_32 
REMARK   11  A    between atoms: C_32  and  C_33 
ROOT
HETATM    1  C   UNL     1      20.897  49.775  48.125  1.00  0.00     0.097 A 
HETATM    2  C   UNL     1      21.045  48.714  49.021  1.00  0.00     0.069 A 
HETATM    3  C   UNL     1      22.333  48.289  49.371  1.00  0.00     0.048 A 
HETATM    4  C   UNL     1      23.506  48.926  48.901  1.00  0.00     0.023 A 
HETATM    5  C   UNL     1      23.329  50.002  48.001  1.00  0.00     0.071 A 
HETATM    6  N   UNL     1      24.348  50.690  47.474  1.00  0.00    -0.259 NA
HETATM    7  C   UNL     1      25.603  50.341  47.821  1.00  0.00     0.142 A 
HETATM    8  C   UNL     1      25.903  49.296  48.673  1.00  0.00     0.089 A 
HETATM    9  C   UNL     1      27.277  49.014  48.950  1.00  0.00     0.103 C 
HETATM   10  N   UNL     1      28.384  48.746  49.170  1.00  0.00    -0.191 NA
HETATM   11  C   UNL     1      24.847  48.543  49.226  1.00  0.00     0.067 A 
HETATM   12  C   UNL     1      22.049  50.383  47.615  1.00  0.00     0.071 A 
ENDROOT
BRANCH  11  13
HETATM   13  N   UNL     1      25.168  47.448  50.074  1.00  0.00    -0.354 N 
HETATM   14  H   UNL     1      25.034  47.643  51.067  1.00  0.00     0.166 HD
BRANCH  13  15
HETATM   15  C   UNL     1      25.437  46.082  49.861  1.00  0.00     0.034 A 
HETATM   16  C   UNL     1      24.342  45.213  49.733  1.00  0.00     0.056 A 
HETATM   17  C   UNL     1      24.525  43.834  49.616  1.00  0.00     0.069 A 
HETATM   18 CL   UNL     1      23.130  42.829  49.470  1.00  0.00    -0.081 Cl
HETATM   19  C   UNL     1      25.812  43.298  49.648  1.00  0.00     0.091 A 
HETATM   20  C   UNL     1      26.914  44.150  49.738  1.00  0.00     0.041 A 
HETATM   21  C   UNL     1      26.725  45.535  49.851  1.00  0.00     0.032 A 
BRANCH  19  22
HETATM   22  O   UNL     1      25.984  41.948  49.507  1.00  0.00    -0.344 OA
BRANCH  22  23
HETATM   23  C   UNL     1      27.243  41.598  48.912  1.00  0.00     0.235 C 
BRANCH  23  24
HETATM   24  C   UNL     1      27.511  40.107  48.966  1.00  0.00     0.058 A 
HETATM   25  N   UNL     1      28.641  39.673  48.342  1.00  0.00    -0.263 NA
HETATM   26  C   UNL     1      28.873  38.340  48.331  1.00  0.00     0.117 A 
HETATM   27  C   UNL     1      28.041  37.405  48.920  1.00  0.00     0.019 A 
HETATM   28  C   UNL     1      26.893  37.860  49.553  1.00  0.00     0.003 A 
HETATM   29  C   UNL     1      26.616  39.224  49.569  1.00  0.00     0.029 A 
ENDBRANCH  23  24
ENDBRANCH  22  23
ENDBRANCH  19  22
ENDBRANCH  13  15
ENDBRANCH  11  13
BRANCH   2  30
HETATM   30  N   UNL     1      19.992  48.110  49.743  1.00  0.00    -0.321 N 
HETATM   31  C   UNL     1      18.758  47.729  49.306  1.00  0.00     0.245 C 
HETATM   32  O   UNL     1      17.758  47.863  50.007  1.00  0.00    -0.268 OA
HETATM   33  H   UNL     1      20.003  48.316  50.737  1.00  0.00     0.169 HD
BRANCH  31  34
HETATM   34  C   UNL     1      18.742  46.834  48.115  1.00  0.00     0.072 C 
HETATM   35  C   UNL     1      19.245  45.595  48.254  1.00  0.00     0.006 C 
BRANCH  35  36
HETATM   36  C   UNL     1      19.606  44.691  47.128  1.00  0.00     0.261 C 
BRANCH  36  37
HETATM   37  N   UNL     1      21.091  44.393  47.153  1.00  0.00    -0.076 N 
HETATM   38  H   UNL     1      21.310  44.115  48.120  1.00  0.00     0.279 HD
HETATM   39  C   UNL     1      21.474  43.230  46.278  1.00  0.00     0.269 C 
HETATM   40  C   UNL     1      21.930  45.601  46.859  1.00  0.00     0.269 C 
ENDBRANCH  36  37
ENDBRANCH  35  36
ENDBRANCH  31  34
ENDBRANCH   2  30
BRANCH   1  41
HETATM   41  O   UNL     1      19.632  50.198  47.815  1.00  0.00    -0.349 OA
BRANCH  41  42
HETATM   42  C   UNL     1      19.352  51.581  48.059  1.00  0.00     0.171 C 
HETATM   43  C   UNL     1      19.126  51.759  49.550  1.00  0.00     0.034 C 
ENDBRANCH  41  42
ENDBRANCH   1  41
TORSDOF 11
ENDMDL
MODEL 9
REMARK VINA RESULT:      -8.1      3.496      5.569
REMARK  11 active torsions:
REMARK  status: ('A' for Active; 'I' for Inactive)
REMARK    1  A    between atoms: C_2  and  O_3 
REMARK    2  A    between atoms: O_3  and  C_4 
REMARK    3  A    between atoms: C_5  and  N_6 
REMARK       I    between atoms: N_6  and  C_7 
REMARK    4  A    between atoms: C_7  and  C_8 
REMARK    5  A    between atoms: C_9  and  C_10 
REMARK    6  A    between atoms: C_10  and  N_11 
REMARK    7  A    between atoms: C_24  and  N_25 
REMARK    8  A    between atoms: N_25  and  C_26 
REMARK    9  A    between atoms: C_30  and  O_31 
REMARK   10  A    between atoms: O_31  and  C_32 
REMARK   11  A    between atoms: C_32  and  C_33 
ROOT
HETATM    1  C   UNL     1      20.835  49.959  47.912  1.00  0.00     0.097 A 
HETATM    2  C   UNL     1      20.852  49.037  48.962  1.00  0.00     0.069 A 
HETATM    3  C   UNL     1      22.081  48.559  49.432  1.00  0.00     0.048 A 
HETATM    4  C   UNL     1      23.324  49.012  48.929  1.00  0.00     0.023 A 
HETATM    5  C   UNL     1      23.280  49.949  47.872  1.00  0.00     0.071 A 
HETATM    6  N   UNL     1      24.377  50.457  47.298  1.00  0.00    -0.259 NA
HETATM    7  C   UNL     1      25.581  50.056  47.752  1.00  0.00     0.142 A 
HETATM    8  C   UNL     1      25.752  49.130  48.763  1.00  0.00     0.089 A 
HETATM    9  C   UNL     1      27.083  48.773  49.144  1.00  0.00     0.103 C 
HETATM   10  N   UNL     1      28.152  48.447  49.455  1.00  0.00    -0.191 NA
HETATM   11  C   UNL     1      24.612  48.566  49.371  1.00  0.00     0.067 A 
HETATM   12  C   UNL     1      22.056  50.378  47.373  1.00  0.00     0.071 A 
ENDROOT
BRANCH  11  13
HETATM   13  N   UNL     1      24.799  47.589  50.386  1.00  0.00    -0.354 N 
HETATM   14  H   UNL     1      24.598  47.929  51.328  1.00  0.00     0.166 HD
BRANCH  13  15
HETATM   15  C   UNL     1      25.004  46.195  50.388  1.00  0.00     0.034 A 
HETATM   16  C   UNL     1      25.635  45.630  51.508  1.00  0.00     0.056 A 
HETATM   17  C   UNL     1      25.960  44.273  51.545  1.00  0.00     0.069 A 
HETATM   18 CL   UNL     1      26.743  43.653  52.952  1.00  0.00    -0.081 Cl
HETATM   19  C   UNL     1      25.678  43.460  50.447  1.00  0.00     0.091 A 
HETATM   20  C   UNL     1      25.018  43.998  49.340  1.00  0.00     0.041 A 
HETATM   21  C   UNL     1      24.689  45.361  49.311  1.00  0.00     0.032 A 
BRANCH  19  22
HETATM   22  O   UNL     1      25.977  42.126  50.501  1.00  0.00    -0.344 OA
BRANCH  22  23
HETATM   23  C   UNL     1      27.237  41.805  49.890  1.00  0.00     0.235 C 
BRANCH  23  24
HETATM   24  C   UNL     1      27.066  41.105  48.556  1.00  0.00     0.058 A 
HETATM   25  N   UNL     1      28.030  41.340  47.623  1.00  0.00    -0.263 NA
HETATM   26  C   UNL     1      27.871  40.769  46.406  1.00  0.00     0.117 A 
HETATM   27  C   UNL     1      26.802  39.961  46.064  1.00  0.00     0.019 A 
HETATM   28  C   UNL     1      25.827  39.728  47.024  1.00  0.00     0.003 A 
HETATM   29  C   UNL     1      25.952  40.314  48.281  1.00  0.00     0.029 A 
ENDBRANCH  23  24
ENDBRANCH  22  23
ENDBRANCH  19  22
ENDBRANCH  13  15
ENDBRANCH  11  13
BRANCH   2  30
HETATM   30  N   UNL     1      19.723  48.645  49.714  1.00  0.00    -0.321 N 
HETATM   31  C   UNL     1      19.043  49.339  50.669  1.00  0.00     0.245 C 
HETATM   32  O   UNL     1      18.591  48.784  51.668  1.00  0.00    -0.268 OA
HETATM   33  H   UNL     1      19.635  47.640  49.830  1.00  0.00     0.169 HD
BRANCH  31  34
HETATM   34  C   UNL     1      18.573  50.696  50.271  1.00  0.00     0.072 C 
HETATM   35  C   UNL     1      17.300  50.825  49.862  1.00  0.00     0.006 C 
BRANCH  35  36
HETATM   36  C   UNL     1      16.755  52.003  49.133  1.00  0.00     0.261 C 
BRANCH  36  37
HETATM   37  N   UNL     1      15.678  51.565  48.162  1.00  0.00    -0.076 N 
HETATM   38  H   UNL     1      14.780  51.773  48.620  1.00  0.00     0.279 HD
HETATM   39  C   UNL     1      15.691  52.345  46.875  1.00  0.00     0.269 C 
HETATM   40  C   UNL     1      15.694  50.088  47.908  1.00  0.00     0.269 C 
ENDBRANCH  36  37
ENDBRANCH  35  36
ENDBRANCH  31  34
ENDBRANCH   2  30
BRANCH   1  41
HETATM   41  O   UNL     1      19.626  50.439  47.482  1.00  0.00    -0.349 OA
BRANCH  41  42
HETATM   42  C   UNL     1      19.017  49.734  46.395  1.00  0.00     0.171 C 
HETATM   43  C   UNL     1      18.612  50.750  45.343  1.00  0.00     0.034 C 
ENDBRANCH  41  42
ENDBRANCH   1  41
TORSDOF 11
ENDMDL
MODEL 10
REMARK VINA RESULT:      -8.1      4.470      9.048
REMARK  11 active torsions:
REMARK  status: ('A' for Active; 'I' for Inactive)
REMARK    1  A    between atoms: C_2  and  O_3 
REMARK    2  A    between atoms: O_3  and  C_4 
REMARK    3  A    between atoms: C_5  and  N_6 
REMARK       I    between atoms: N_6  and  C_7 
REMARK    4  A    between atoms: C_7  and  C_8 
REMARK    5  A    between atoms: C_9  and  C_10 
REMARK    6  A    between atoms: C_10  and  N_11 
REMARK    7  A    between atoms: C_24  and  N_25 
REMARK    8  A    between atoms: N_25  and  C_26 
REMARK    9  A    between atoms: C_30  and  O_31 
REMARK   10  A    between atoms: O_31  and  C_32 
REMARK   11  A    between atoms: C_32  and  C_33 
ROOT
HETATM    1  C   UNL     1      26.224  45.933  53.538  1.00  0.00     0.097 A 
HETATM    2  C   UNL     1      25.809  44.642  53.204  1.00  0.00     0.069 A 
HETATM    3  C   UNL     1      25.016  44.451  52.066  1.00  0.00     0.048 A 
HETATM    4  C   UNL     1      24.657  45.507  51.194  1.00  0.00     0.023 A 
HETATM    5  C   UNL     1      25.095  46.803  51.551  1.00  0.00     0.071 A 
HETATM    6  N   UNL     1      24.823  47.893  50.823  1.00  0.00    -0.259 NA
HETATM    7  C   UNL     1      24.100  47.745  49.695  1.00  0.00     0.142 A 
HETATM    8  C   UNL     1      23.599  46.535  49.255  1.00  0.00     0.089 A 
HETATM    9  C   UNL     1      22.830  46.512  48.050  1.00  0.00     0.103 C 
HETATM   10  N   UNL     1      22.181  46.469  47.091  1.00  0.00    -0.191 NA
HETATM   11  C   UNL     1      23.854  45.375  50.015  1.00  0.00     0.067 A 
HETATM   12  C   UNL     1      25.835  46.993  52.711  1.00  0.00     0.071 A 
ENDROOT
BRANCH  11  13
HETATM   13  N   UNL     1      23.305  44.141  49.573  1.00  0.00    -0.354 N 
HETATM   14  H   UNL     1      22.285  44.115  49.591  1.00  0.00     0.166 HD
BRANCH  13  15
HETATM   15  C   UNL     1      23.827  43.007  48.921  1.00  0.00     0.034 A 
HETATM   16  C   UNL     1      23.512  42.831  47.564  1.00  0.00     0.056 A 
HETATM   17  C   UNL     1      23.910  41.685  46.873  1.00  0.00     0.069 A 
HETATM   18 CL   UNL     1      23.478  41.537  45.209  1.00  0.00    -0.081 Cl
HETATM   19  C   UNL     1      24.615  40.682  47.538  1.00  0.00     0.091 A 
HETATM   20  C   UNL     1      24.969  40.857  48.877  1.00  0.00     0.041 A 
HETATM   21  C   UNL     1      24.570  42.012  49.565  1.00  0.00     0.032 A 
BRANCH  19  22
HETATM   22  O   UNL     1      25.024  39.574  46.847  1.00  0.00    -0.344 OA
BRANCH  22  23
HETATM   23  C   UNL     1      26.421  39.600  46.516  1.00  0.00     0.235 C 
BRANCH  23  24
HETATM   24  C   UNL     1      27.279  38.959  47.590  1.00  0.00     0.058 A 
HETATM   25  N   UNL     1      26.800  37.808  48.138  1.00  0.00    -0.263 NA
HETATM   26  C   UNL     1      27.522  37.247  49.135  1.00  0.00     0.117 A 
HETATM   27  C   UNL     1      28.710  37.766  49.617  1.00  0.00     0.019 A 
HETATM   28  C   UNL     1      29.188  38.938  49.049  1.00  0.00     0.003 A 
HETATM   29  C   UNL     1      28.461  39.551  48.032  1.00  0.00     0.029 A 
ENDBRANCH  23  24
ENDBRANCH  22  23
ENDBRANCH  19  22
ENDBRANCH  13  15
ENDBRANCH  11  13
BRANCH   2  30
HETATM   30  N   UNL     1      26.250  43.460  53.839  1.00  0.00    -0.321 N 
HETATM   31  C   UNL     1      27.421  42.782  53.677  1.00  0.00     0.245 C 
HETATM   32  O   UNL     1      27.460  41.554  53.692  1.00  0.00    -0.268 OA
HETATM   33  H   UNL     1      25.496  42.859  54.157  1.00  0.00     0.169 HD
BRANCH  31  34
HETATM   34  C   UNL     1      28.663  43.589  53.841  1.00  0.00     0.072 C 
HETATM   35  C   UNL     1      29.692  43.030  54.500  1.00  0.00     0.006 C 
BRANCH  35  36
HETATM   36  C   UNL     1      30.864  43.774  55.036  1.00  0.00     0.261 C 
BRANCH  36  37
HETATM   37  N   UNL     1      30.604  44.199  56.466  1.00  0.00    -0.076 N 
HETATM   38  H   UNL     1      29.739  43.721  56.753  1.00  0.00     0.279 HD
HETATM   39  C   UNL     1      31.678  43.750  57.421  1.00  0.00     0.269 C 
HETATM   40  C   UNL     1      30.338  45.670  56.594  1.00  0.00     0.269 C 
ENDBRANCH  36  37
ENDBRANCH  35  36
ENDBRANCH  31  34
ENDBRANCH   2  30
BRANCH   1  41
HETATM   41  O   UNL     1      27.023  46.100  54.637  1.00  0.00    -0.349 OA
BRANCH  41  42
HETATM   42  C   UNL     1      27.586  47.405  54.815  1.00  0.00     0.171 C 
HETATM   43  C   UNL     1      26.719  48.161  55.805  1.00  0.00     0.034 C 
ENDBRANCH  41  42
ENDBRANCH   1  41
TORSDOF 11
ENDMDL
