MODEL 1
REMARK VINA RESULT:      -9.8      0.000      0.000
REMARK  8 active torsions:
REMARK  status: ('A' for Active; 'I' for Inactive)
REMARK    1  A    between atoms: C_2  and  C_3 
REMARK    2  A    between atoms: C_6  and  N_7 
REMARK       I    between atoms: N_7  and  C_8 
REMARK    3  A    between atoms: C_8  and  C_9 
REMARK    4  A    between atoms: C_9  and  N_10 
REMARK    5  A    between atoms: C_13  and  C_14 
REMARK       I    between atoms: C_14  and  N_15 
REMARK    6  A    between atoms: N_15  and  C_16 
REMARK    7  A    between atoms: C_17  and  O_18 
REMARK    8  A    between atoms: C_26  and  N_27 
ROOT
HETATM    1  N   UNL     1      23.919  46.541  49.829  1.00  0.00    -0.248 N 
HETATM    2  N   UNL     1      24.455  47.631  50.427  1.00  0.00     0.007 NA
HETATM    3  N   UNL     1      25.132  47.214  51.482  1.00  0.00    -0.150 NA
HETATM    4  C   UNL     1      24.987  45.845  51.579  1.00  0.00     0.187 A 
HETATM    5  C   UNL     1      24.205  45.395  50.526  1.00  0.00     0.151 A 
ENDROOT
BRANCH   1   6
HETATM    6  C   UNL     1      23.209  46.715  48.581  1.00  0.00     0.251 C 
BRANCH   6   7
HETATM    7  C   UNL     1      22.533  48.072  48.480  1.00  0.00     0.241 C 
HETATM    8  N   UNL     1      21.469  48.249  49.350  1.00  0.00    -0.326 N 
HETATM    9  H   UNL     1      21.320  47.513  50.040  1.00  0.00     0.169 HD
HETATM   10  O   UNL     1      22.903  48.875  47.625  1.00  0.00    -0.271 OA
BRANCH   8  11
HETATM   11  C   UNL     1      20.599  49.351  49.458  1.00  0.00     0.034 A 
HETATM   12  C   UNL     1      20.920  50.646  49.056  1.00  0.00     0.030 A 
HETATM   13  C   UNL     1      19.981  51.678  49.185  1.00  0.00     0.009 A 
HETATM   14  C   UNL     1      18.713  51.432  49.725  1.00  0.00    -0.058 A 
HETATM   15  C   UNL     1      18.393  50.131  50.126  1.00  0.00     0.009 A 
HETATM   16  C   UNL     1      19.328  49.101  49.990  1.00  0.00     0.030 A 
BRANCH  14  17
HETATM   17  C   UNL     1      17.698  52.540  49.841  1.00  0.00     0.034 C 
HETATM   18  C   UNL     1      16.283  52.035  49.606  1.00  0.00     0.010 C 
ENDBRANCH  14  17
ENDBRANCH   8  11
ENDBRANCH   6   7
ENDBRANCH   1   6
BRANCH   5  19
HETATM   19  N   UNL     1      23.786  44.160  50.174  1.00  0.00    -0.382 N 
HETATM   20  H   UNL     1      24.228  43.346  50.612  1.00  0.00     0.157 HD
HETATM   21  H   UNL     1      23.282  43.932  49.322  1.00  0.00     0.157 HD
ENDBRANCH   5  19
BRANCH   4  22
HETATM   22  C   UNL     1      25.635  45.063  52.631  1.00  0.00     0.280 C 
HETATM   23  N   UNL     1      27.011  45.208  52.584  1.00  0.00    -0.319 N 
HETATM   24  H   UNL     1      27.347  45.675  51.748  1.00  0.00     0.169 HD
HETATM   25  O   UNL     1      24.990  44.336  53.376  1.00  0.00    -0.265 OA
BRANCH  23  26
HETATM   26  C   UNL     1      27.987  44.589  53.392  1.00  0.00     0.069 A 
HETATM   27  C   UNL     1      28.585  43.345  53.158  1.00  0.00     0.095 A 
HETATM   28  C   UNL     1      29.608  42.883  53.996  1.00  0.00     0.039 A 
HETATM   29  C   UNL     1      30.001  43.625  55.109  1.00  0.00     0.009 A 
HETATM   30  C   UNL     1      29.376  44.839  55.397  1.00  0.00    -0.060 A 
HETATM   31  C   UNL     1      29.770  45.647  56.599  1.00  0.00     0.048 C 
HETATM   32  C   UNL     1      28.364  45.304  54.543  1.00  0.00     0.039 A 
BRANCH  27  33
HETATM   33  O   UNL     1      28.213  42.486  52.160  1.00  0.00    -0.354 OA
HETATM   34  C   UNL     1      28.515  41.138  52.516  1.00  0.00     0.210 C 
ENDBRANCH  27  33
ENDBRANCH  23  26
ENDBRANCH   4  22
TORSDOF 8
ENDMDL
MODEL 2
REMARK VINA RESULT:      -9.7      2.207     10.226
REMARK  8 active torsions:
REMARK  status: ('A' for Active; 'I' for Inactive)
REMARK    1  A    between atoms: C_2  and  C_3 
REMARK    2  A    between atoms: C_6  and  N_7 
REMARK       I    between atoms: N_7  and  C_8 
REMARK    3  A    between atoms: C_8  and  C_9 
REMARK    4  A    between atoms: C_9  and  N_10 
REMARK    5  A    between atoms: C_13  and  C_14 
REMARK       I    between atoms: C_14  and  N_15 
REMARK    6  A    between atoms: N_15  and  C_16 
REMARK    7  A    between atoms: C_17  and  O_18 
REMARK    8  A    between atoms: C_26  and  N_27 
ROOT
HETATM    1  N   UNL     1      26.235  43.888  50.136  1.00  0.00    -0.248 N 
HETATM    2  N   UNL     1      27.184  44.661  49.557  1.00  0.00     0.007 NA
HETATM    3  N   UNL     1      26.717  45.896  49.511  1.00  0.00    -0.150 NA
HETATM    4  C   UNL     1      25.438  45.897  50.028  1.00  0.00     0.187 A 
HETATM    5  C   UNL     1      25.109  44.613  50.430  1.00  0.00     0.151 A 
ENDROOT
BRANCH   1   6
HETATM    6  C   UNL     1      26.541  42.499  50.401  1.00  0.00     0.251 C 
BRANCH   6   7
HETATM    7  C   UNL     1      27.345  42.313  51.677  1.00  0.00     0.241 C 
HETATM    8  N   UNL     1      27.840  43.488  52.220  1.00  0.00    -0.326 N 
HETATM    9  H   UNL     1      27.526  44.357  51.785  1.00  0.00     0.169 HD
HETATM   10  O   UNL     1      27.561  41.179  52.101  1.00  0.00    -0.271 OA
BRANCH   8  11
HETATM   11  C   UNL     1      28.672  43.652  53.344  1.00  0.00     0.034 A 
HETATM   12  C   UNL     1      29.795  42.872  53.611  1.00  0.00     0.030 A 
HETATM   13  C   UNL     1      30.574  43.121  54.748  1.00  0.00     0.009 A 
HETATM   14  C   UNL     1      30.237  44.147  55.639  1.00  0.00    -0.058 A 
HETATM   15  C   UNL     1      29.110  44.930  55.368  1.00  0.00     0.009 A 
HETATM   16  C   UNL     1      28.337  44.684  54.231  1.00  0.00     0.030 A 
BRANCH  14  17
HETATM   17  C   UNL     1      31.091  44.427  56.849  1.00  0.00     0.034 C 
HETATM   18  C   UNL     1      31.982  43.244  57.196  1.00  0.00     0.010 C 
ENDBRANCH  14  17
ENDBRANCH   8  11
ENDBRANCH   6   7
ENDBRANCH   1   6
BRANCH   5  19
HETATM   19  N   UNL     1      23.995  44.099  50.997  1.00  0.00    -0.382 N 
HETATM   20  H   UNL     1      23.138  44.045  50.437  1.00  0.00     0.157 HD
HETATM   21  H   UNL     1      23.826  44.021  51.996  1.00  0.00     0.157 HD
ENDBRANCH   5  19
BRANCH   4  22
HETATM   22  C   UNL     1      24.643  47.120  50.143  1.00  0.00     0.280 C 
HETATM   23  N   UNL     1      23.908  47.347  48.992  1.00  0.00    -0.319 N 
HETATM   24  H   UNL     1      24.166  46.747  48.215  1.00  0.00     0.169 HD
HETATM   25  O   UNL     1      24.722  47.842  51.129  1.00  0.00    -0.265 OA
BRANCH  23  26
HETATM   26  C   UNL     1      23.059  48.431  48.693  1.00  0.00     0.069 A 
HETATM   27  C   UNL     1      23.433  49.779  48.626  1.00  0.00     0.095 A 
HETATM   28  C   UNL     1      22.506  50.752  48.232  1.00  0.00     0.039 A 
HETATM   29  C   UNL     1      21.183  50.401  47.960  1.00  0.00     0.009 A 
HETATM   30  C   UNL     1      20.774  49.073  48.079  1.00  0.00    -0.060 A 
HETATM   31  C   UNL     1      19.353  48.674  47.809  1.00  0.00     0.048 C 
HETATM   32  C   UNL     1      21.713  48.101  48.458  1.00  0.00     0.039 A 
BRANCH  27  33
HETATM   33  O   UNL     1      24.670  50.254  48.968  1.00  0.00    -0.354 OA
HETATM   34  C   UNL     1      25.575  50.136  47.871  1.00  0.00     0.210 C 
ENDBRANCH  27  33
ENDBRANCH  23  26
ENDBRANCH   4  22
TORSDOF 8
ENDMDL
MODEL 3
REMARK VINA RESULT:      -9.7      1.381      2.000
REMARK  8 active torsions:
REMARK  status: ('A' for Active; 'I' for Inactive)
REMARK    1  A    between atoms: C_2  and  C_3 
REMARK    2  A    between atoms: C_6  and  N_7 
REMARK       I    between atoms: N_7  and  C_8 
REMARK    3  A    between atoms: C_8  and  C_9 
REMARK    4  A    between atoms: C_9  and  N_10 
REMARK    5  A    between atoms: C_13  and  C_14 
REMARK       I    between atoms: C_14  and  N_15 
REMARK    6  A    between atoms: N_15  and  C_16 
REMARK    7  A    between atoms: C_17  and  O_18 
REMARK    8  A    between atoms: C_26  and  N_27 
ROOT
HETATM    1  N   UNL     1      24.477  47.944  49.557  1.00  0.00    -0.248 N 
HETATM    2  N   UNL     1      25.608  48.425  50.125  1.00  0.00     0.007 NA
HETATM    3  N   UNL     1      26.080  47.488  50.929  1.00  0.00    -0.150 NA
HETATM    4  C   UNL     1      25.212  46.416  50.904  1.00  0.00     0.187 A 
HETATM    5  C   UNL     1      24.172  46.693  50.031  1.00  0.00     0.151 A 
ENDROOT
BRANCH   1   6
HETATM    6  C   UNL     1      23.816  48.741  48.549  1.00  0.00     0.251 C 
BRANCH   6   7
HETATM    7  C   UNL     1      22.804  49.708  49.141  1.00  0.00     0.241 C 
HETATM    8  N   UNL     1      21.504  49.520  48.698  1.00  0.00    -0.326 N 
HETATM    9  H   UNL     1      21.335  48.695  48.121  1.00  0.00     0.169 HD
HETATM   10  O   UNL     1      23.185  50.605  49.890  1.00  0.00    -0.271 OA
BRANCH   8  11
HETATM   11  C   UNL     1      20.358  50.282  48.997  1.00  0.00     0.034 A 
HETATM   12  C   UNL     1      19.347  49.871  49.863  1.00  0.00     0.030 A 
HETATM   13  C   UNL     1      18.250  50.707  50.114  1.00  0.00     0.009 A 
HETATM   14  C   UNL     1      18.145  51.959  49.498  1.00  0.00    -0.058 A 
HETATM   15  C   UNL     1      19.163  52.370  48.631  1.00  0.00     0.009 A 
HETATM   16  C   UNL     1      20.259  51.538  48.386  1.00  0.00     0.030 A 
BRANCH  14  17
HETATM   17  C   UNL     1      16.976  52.864  49.789  1.00  0.00     0.034 C 
HETATM   18  C   UNL     1      15.649  52.135  49.647  1.00  0.00     0.010 C 
ENDBRANCH  14  17
ENDBRANCH   8  11
ENDBRANCH   6   7
ENDBRANCH   1   6
BRANCH   5  19
HETATM   19  N   UNL     1      23.090  45.976  49.656  1.00  0.00    -0.382 N 
HETATM   20  H   UNL     1      22.157  46.359  49.839  1.00  0.00     0.157 HD
HETATM   21  H   UNL     1      23.082  44.977  49.471  1.00  0.00     0.157 HD
ENDBRANCH   5  19
BRANCH   4  22
HETATM   22  C   UNL     1      25.456  45.195  51.672  1.00  0.00     0.280 C 
HETATM   23  N   UNL     1      26.784  44.813  51.591  1.00  0.00    -0.319 N 
HETATM   24  H   UNL     1      27.316  45.322  50.894  1.00  0.00     0.169 HD
HETATM   25  O   UNL     1      24.543  44.599  52.229  1.00  0.00    -0.265 OA
BRANCH  23  26
HETATM   26  C   UNL     1      27.405  43.678  52.150  1.00  0.00     0.069 A 
HETATM   27  C   UNL     1      27.208  42.349  51.755  1.00  0.00     0.095 A 
HETATM   28  C   UNL     1      27.956  41.319  52.337  1.00  0.00     0.039 A 
HETATM   29  C   UNL     1      28.863  41.593  53.361  1.00  0.00     0.009 A 
HETATM   30  C   UNL     1      29.031  42.902  53.813  1.00  0.00    -0.060 A 
HETATM   31  C   UNL     1      29.988  43.219  54.925  1.00  0.00     0.048 C 
HETATM   32  C   UNL     1      28.291  43.931  53.213  1.00  0.00     0.039 A 
BRANCH  27  33
HETATM   33  O   UNL     1      26.277  41.949  50.835  1.00  0.00    -0.354 OA
HETATM   34  C   UNL     1      26.233  40.525  50.748  1.00  0.00     0.210 C 
ENDBRANCH  27  33
ENDBRANCH  23  26
ENDBRANCH   4  22
TORSDOF 8
ENDMDL
MODEL 4
REMARK VINA RESULT:      -9.5      2.031      9.927
REMARK  8 active torsions:
REMARK  status: ('A' for Active; 'I' for Inactive)
REMARK    1  A    between atoms: C_2  and  C_3 
REMARK    2  A    between atoms: C_6  and  N_7 
REMARK       I    between atoms: N_7  and  C_8 
REMARK    3  A    between atoms: C_8  and  C_9 
REMARK    4  A    between atoms: C_9  and  N_10 
REMARK    5  A    between atoms: C_13  and  C_14 
REMARK       I    between atoms: C_14  and  N_15 
REMARK    6  A    between atoms: N_15  and  C_16 
REMARK    7  A    between atoms: C_17  and  O_18 
REMARK    8  A    between atoms: C_26  and  N_27 
ROOT
HETATM    1  N   UNL     1      24.521  42.967  50.375  1.00  0.00    -0.248 N 
HETATM    2  N   UNL     1      23.275  42.973  50.902  1.00  0.00     0.007 NA
HETATM    3  N   UNL     1      22.629  44.005  50.388  1.00  0.00    -0.150 NA
HETATM    4  C   UNL     1      23.493  44.688  49.557  1.00  0.00     0.187 A 
HETATM    5  C   UNL     1      24.717  44.038  49.540  1.00  0.00     0.151 A 
ENDROOT
BRANCH   1   6
HETATM    6  C   UNL     1      25.405  41.869  50.699  1.00  0.00     0.251 C 
BRANCH   6   7
HETATM    7  C   UNL     1      26.723  42.338  51.293  1.00  0.00     0.241 C 
HETATM    8  N   UNL     1      26.717  42.463  52.673  1.00  0.00    -0.326 N 
HETATM    9  H   UNL     1      25.885  42.124  53.157  1.00  0.00     0.169 HD
HETATM   10  O   UNL     1      27.655  42.634  50.549  1.00  0.00    -0.271 OA
BRANCH   8  11
HETATM   11  C   UNL     1      27.743  42.936  53.514  1.00  0.00     0.034 A 
HETATM   12  C   UNL     1      28.877  42.202  53.858  1.00  0.00     0.030 A 
HETATM   13  C   UNL     1      29.856  42.763  54.688  1.00  0.00     0.009 A 
HETATM   14  C   UNL     1      29.713  44.060  55.193  1.00  0.00    -0.058 A 
HETATM   15  C   UNL     1      28.575  44.796  54.845  1.00  0.00     0.009 A 
HETATM   16  C   UNL     1      27.602  44.238  54.012  1.00  0.00     0.030 A 
BRANCH  14  17
HETATM   17  C   UNL     1      30.779  44.669  56.067  1.00  0.00     0.034 C 
HETATM   18  C   UNL     1      31.535  43.609  56.855  1.00  0.00     0.010 C 
ENDBRANCH  14  17
ENDBRANCH   8  11
ENDBRANCH   6   7
ENDBRANCH   1   6
BRANCH   5  19
HETATM   19  N   UNL     1      25.871  44.298  48.888  1.00  0.00    -0.382 N 
HETATM   20  H   UNL     1      26.089  43.765  48.040  1.00  0.00     0.157 HD
HETATM   21  H   UNL     1      26.682  44.759  49.290  1.00  0.00     0.157 HD
ENDBRANCH   5  19
BRANCH   4  22
HETATM   22  C   UNL     1      23.082  45.875  48.808  1.00  0.00     0.280 C 
HETATM   23  N   UNL     1      23.321  47.029  49.534  1.00  0.00    -0.319 N 
HETATM   24  H   UNL     1      23.569  46.861  50.503  1.00  0.00     0.169 HD
HETATM   25  O   UNL     1      22.535  45.784  47.716  1.00  0.00    -0.265 OA
BRANCH  23  26
HETATM   26  C   UNL     1      23.027  48.363  49.184  1.00  0.00     0.069 A 
HETATM   27  C   UNL     1      23.960  49.380  48.945  1.00  0.00     0.095 A 
HETATM   28  C   UNL     1      23.535  50.644  48.518  1.00  0.00     0.039 A 
HETATM   29  C   UNL     1      22.176  50.927  48.385  1.00  0.00     0.009 A 
HETATM   30  C   UNL     1      21.226  49.947  48.678  1.00  0.00    -0.060 A 
HETATM   31  C   UNL     1      19.758  50.234  48.559  1.00  0.00     0.048 C 
HETATM   32  C   UNL     1      21.660  48.677  49.087  1.00  0.00     0.039 A 
BRANCH  27  33
HETATM   33  O   UNL     1      25.308  49.249  49.139  1.00  0.00    -0.354 OA
HETATM   34  C   UNL     1      26.033  49.894  48.093  1.00  0.00     0.210 C 
ENDBRANCH  27  33
ENDBRANCH  23  26
ENDBRANCH   4  22
TORSDOF 8
ENDMDL
MODEL 5
REMARK VINA RESULT:      -9.5      1.643     10.543
REMARK  8 active torsions:
REMARK  status: ('A' for Active; 'I' for Inactive)
REMARK    1  A    between atoms: C_2  and  C_3 
REMARK    2  A    between atoms: C_6  and  N_7 
REMARK       I    between atoms: N_7  and  C_8 
REMARK    3  A    between atoms: C_8  and  C_9 
REMARK    4  A    between atoms: C_9  and  N_10 
REMARK    5  A    between atoms: C_13  and  C_14 
REMARK       I    between atoms: C_14  and  N_15 
REMARK    6  A    between atoms: N_15  and  C_16 
REMARK    7  A    between atoms: C_17  and  O_18 
REMARK    8  A    between atoms: C_26  and  N_27 
ROOT
HETATM    1  N   UNL     1      25.490  45.438  51.251  1.00  0.00    -0.248 N 
HETATM    2  N   UNL     1      25.736  46.423  52.146  1.00  0.00     0.007 NA
HETATM    3  N   UNL     1      25.184  47.530  51.682  1.00  0.00    -0.150 NA
HETATM    4  C   UNL     1      24.619  47.253  50.454  1.00  0.00     0.187 A 
HETATM    5  C   UNL     1      24.811  45.913  50.158  1.00  0.00     0.151 A 
ENDROOT
BRANCH   1   6
HETATM    6  C   UNL     1      25.903  44.090  51.574  1.00  0.00     0.251 C 
BRANCH   6   7
HETATM    7  C   UNL     1      26.578  43.997  52.932  1.00  0.00     0.241 C 
HETATM    8  N   UNL     1      27.949  44.195  52.905  1.00  0.00    -0.326 N 
HETATM    9  H   UNL     1      28.348  44.494  52.015  1.00  0.00     0.169 HD
HETATM   10  O   UNL     1      25.914  43.696  53.923  1.00  0.00    -0.271 OA
BRANCH   8  11
HETATM   11  C   UNL     1      28.868  44.107  53.969  1.00  0.00     0.034 A 
HETATM   12  C   UNL     1      29.776  43.065  54.137  1.00  0.00     0.030 A 
HETATM   13  C   UNL     1      30.667  43.072  55.219  1.00  0.00     0.009 A 
HETATM   14  C   UNL     1      30.656  44.116  56.151  1.00  0.00    -0.058 A 
HETATM   15  C   UNL     1      29.744  45.162  55.979  1.00  0.00     0.009 A 
HETATM   16  C   UNL     1      28.860  45.157  54.897  1.00  0.00     0.030 A 
BRANCH  14  17
HETATM   17  C   UNL     1      31.631  44.132  57.300  1.00  0.00     0.034 C 
HETATM   18  C   UNL     1      31.130  44.988  58.453  1.00  0.00     0.010 C 
ENDBRANCH  14  17
ENDBRANCH   8  11
ENDBRANCH   6   7
ENDBRANCH   1   6
BRANCH   5  19
HETATM   19  N   UNL     1      24.446  45.159  49.097  1.00  0.00    -0.382 N 
HETATM   20  H   UNL     1      24.889  45.338  48.190  1.00  0.00     0.157 HD
HETATM   21  H   UNL     1      23.584  44.626  49.023  1.00  0.00     0.157 HD
ENDBRANCH   5  19
BRANCH   4  22
HETATM   22  C   UNL     1      23.902  48.264  49.677  1.00  0.00     0.280 C 
HETATM   23  N   UNL     1      22.568  47.925  49.529  1.00  0.00    -0.319 N 
HETATM   24  H   UNL     1      22.350  46.979  49.821  1.00  0.00     0.169 HD
HETATM   25  O   UNL     1      24.484  49.223  49.187  1.00  0.00    -0.265 OA
BRANCH  23  26
HETATM   26  C   UNL     1      21.563  48.610  48.816  1.00  0.00     0.069 A 
HETATM   27  C   UNL     1      21.026  48.235  47.579  1.00  0.00     0.095 A 
HETATM   28  C   UNL     1      19.967  48.959  47.018  1.00  0.00     0.039 A 
HETATM   29  C   UNL     1      19.473  50.099  47.653  1.00  0.00     0.009 A 
HETATM   30  C   UNL     1      20.035  50.527  48.856  1.00  0.00    -0.060 A 
HETATM   31  C   UNL     1      19.533  51.760  49.548  1.00  0.00     0.048 C 
HETATM   32  C   UNL     1      21.084  49.786  49.421  1.00  0.00     0.039 A 
BRANCH  27  33
HETATM   33  O   UNL     1      21.495  47.198  46.818  1.00  0.00    -0.354 OA
HETATM   34  C   UNL     1      20.487  46.737  45.919  1.00  0.00     0.210 C 
ENDBRANCH  27  33
ENDBRANCH  23  26
ENDBRANCH   4  22
TORSDOF 8
ENDMDL
MODEL 6
REMARK VINA RESULT:      -9.3      1.682     10.538
REMARK  8 active torsions:
REMARK  status: ('A' for Active; 'I' for Inactive)
REMARK    1  A    between atoms: C_2  and  C_3 
REMARK    2  A    between atoms: C_6  and  N_7 
REMARK       I    between atoms: N_7  and  C_8 
REMARK    3  A    between atoms: C_8  and  C_9 
REMARK    4  A    between atoms: C_9  and  N_10 
REMARK    5  A    between atoms: C_13  and  C_14 
REMARK       I    between atoms: C_14  and  N_15 
REMARK    6  A    between atoms: N_15  and  C_16 
REMARK    7  A    between atoms: C_17  and  O_18 
REMARK    8  A    between atoms: C_26  and  N_27 
ROOT
HETATM    1  N   UNL     1      24.753  45.529  50.386  1.00  0.00    -0.248 N 
HETATM    2  N   UNL     1      25.155  46.637  51.050  1.00  0.00     0.007 NA
HETATM    3  N   UNL     1      24.482  47.662  50.560  1.00  0.00    -0.150 NA
HETATM    4  C   UNL     1      23.673  47.204  49.541  1.00  0.00     0.187 A 
HETATM    5  C   UNL     1      23.838  45.834  49.410  1.00  0.00     0.151 A 
ENDROOT
BRANCH   1   6
HETATM    6  C   UNL     1      25.267  44.244  50.806  1.00  0.00     0.251 C 
BRANCH   6   7
HETATM    7  C   UNL     1      26.642  44.347  51.445  1.00  0.00     0.241 C 
HETATM    8  N   UNL     1      26.638  44.274  52.829  1.00  0.00    -0.326 N 
HETATM    9  H   UNL     1      25.746  44.045  53.269  1.00  0.00     0.169 HD
HETATM   10  O   UNL     1      27.628  44.551  50.739  1.00  0.00    -0.271 OA
BRANCH   8  11
HETATM   11  C   UNL     1      27.723  44.405  53.716  1.00  0.00     0.034 A 
HETATM   12  C   UNL     1      27.979  45.541  54.481  1.00  0.00     0.030 A 
HETATM   13  C   UNL     1      29.075  45.573  55.353  1.00  0.00     0.009 A 
HETATM   14  C   UNL     1      29.935  44.474  55.466  1.00  0.00    -0.058 A 
HETATM   15  C   UNL     1      29.675  43.334  54.699  1.00  0.00     0.009 A 
HETATM   16  C   UNL     1      28.577  43.301  53.834  1.00  0.00     0.030 A 
BRANCH  14  17
HETATM   17  C   UNL     1      31.100  44.504  56.422  1.00  0.00     0.034 C 
HETATM   18  C   UNL     1      31.410  43.121  56.976  1.00  0.00     0.010 C 
ENDBRANCH  14  17
ENDBRANCH   8  11
ENDBRANCH   6   7
ENDBRANCH   1   6
BRANCH   5  19
HETATM   19  N   UNL     1      23.276  44.930  48.578  1.00  0.00    -0.382 N 
HETATM   20  H   UNL     1      23.495  43.938  48.708  1.00  0.00     0.157 HD
HETATM   21  H   UNL     1      22.886  45.137  47.663  1.00  0.00     0.157 HD
ENDBRANCH   5  19
BRANCH   4  22
HETATM   22  C   UNL     1      22.774  48.088  48.799  1.00  0.00     0.280 C 
HETATM   23  N   UNL     1      21.489  48.035  49.310  1.00  0.00    -0.319 N 
HETATM   24  H   UNL     1      21.344  47.285  49.979  1.00  0.00     0.169 HD
HETATM   25  O   UNL     1      23.158  48.710  47.816  1.00  0.00    -0.265 OA
BRANCH  23  26
HETATM   26  C   UNL     1      20.333  48.698  48.851  1.00  0.00     0.069 A 
HETATM   27  C   UNL     1      19.157  48.090  48.395  1.00  0.00     0.095 A 
HETATM   28  C   UNL     1      18.047  48.869  48.047  1.00  0.00     0.039 A 
HETATM   29  C   UNL     1      18.117  50.262  48.088  1.00  0.00     0.009 A 
HETATM   30  C   UNL     1      19.300  50.891  48.480  1.00  0.00    -0.060 A 
HETATM   31  C   UNL     1      19.405  52.387  48.516  1.00  0.00     0.048 C 
HETATM   32  C   UNL     1      20.402  50.103  48.845  1.00  0.00     0.039 A 
BRANCH  27  33
HETATM   33  O   UNL     1      19.006  46.742  48.216  1.00  0.00    -0.354 OA
HETATM   34  C   UNL     1      17.623  46.390  48.180  1.00  0.00     0.210 C 
ENDBRANCH  27  33
ENDBRANCH  23  26
ENDBRANCH   4  22
TORSDOF 8
ENDMDL
MODEL 7
REMARK VINA RESULT:      -9.2      1.793     10.695
REMARK  8 active torsions:
REMARK  status: ('A' for Active; 'I' for Inactive)
REMARK    1  A    between atoms: C_2  and  C_3 
REMARK    2  A    between atoms: C_6  and  N_7 
REMARK       I    between atoms: N_7  and  C_8 
REMARK    3  A    between atoms: C_8  and  C_9 
REMARK    4  A    between atoms: C_9  and  N_10 
REMARK    5  A    between atoms: C_13  and  C_14 
REMARK       I    between atoms: C_14  and  N_15 
REMARK    6  A    between atoms: N_15  and  C_16 
REMARK    7  A    between atoms: C_17  and  O_18 
REMARK    8  A    between atoms: C_26  and  N_27 
ROOT
HETATM    1  N   UNL     1      24.715  45.521  50.951  1.00  0.00    -0.248 N 
HETATM    2  N   UNL     1      25.186  46.627  51.573  1.00  0.00     0.007 NA
HETATM    3  N   UNL     1      24.734  47.678  50.912  1.00  0.00    -0.150 NA
HETATM    4  C   UNL     1      24.003  47.231  49.831  1.00  0.00     0.187 A 
HETATM    5  C   UNL     1      23.984  45.845  49.836  1.00  0.00     0.151 A 
ENDROOT
BRANCH   1   6
HETATM    6  C   UNL     1      24.983  44.228  51.541  1.00  0.00     0.251 C 
BRANCH   6   7
HETATM    7  C   UNL     1      25.701  44.334  52.876  1.00  0.00     0.241 C 
HETATM    8  N   UNL     1      27.073  44.500  52.778  1.00  0.00    -0.326 N 
HETATM    9  H   UNL     1      27.446  44.649  51.840  1.00  0.00     0.169 HD
HETATM   10  O   UNL     1      25.066  44.204  53.922  1.00  0.00    -0.271 OA
BRANCH   8  11
HETATM   11  C   UNL     1      28.025  44.561  53.814  1.00  0.00     0.034 A 
HETATM   12  C   UNL     1      28.105  45.593  54.747  1.00  0.00     0.030 A 
HETATM   13  C   UNL     1      29.076  45.558  55.756  1.00  0.00     0.009 A 
HETATM   14  C   UNL     1      29.985  44.498  55.842  1.00  0.00    -0.058 A 
HETATM   15  C   UNL     1      29.901  43.462  54.906  1.00  0.00     0.009 A 
HETATM   16  C   UNL     1      28.928  43.494  53.904  1.00  0.00     0.030 A 
BRANCH  14  17
HETATM   17  C   UNL     1      31.013  44.453  56.943  1.00  0.00     0.034 C 
HETATM   18  C   UNL     1      31.757  43.127  56.966  1.00  0.00     0.010 C 
ENDBRANCH  14  17
ENDBRANCH   8  11
ENDBRANCH   6   7
ENDBRANCH   1   6
BRANCH   5  19
HETATM   19  N   UNL     1      23.408  44.945  49.011  1.00  0.00    -0.382 N 
HETATM   20  H   UNL     1      23.057  45.263  48.102  1.00  0.00     0.157 HD
HETATM   21  H   UNL     1      23.025  44.048  49.295  1.00  0.00     0.157 HD
ENDBRANCH   5  19
BRANCH   4  22
HETATM   22  C   UNL     1      23.341  48.147  48.902  1.00  0.00     0.280 C 
HETATM   23  N   UNL     1      21.964  48.034  48.988  1.00  0.00    -0.319 N 
HETATM   24  H   UNL     1      21.650  47.237  49.532  1.00  0.00     0.169 HD
HETATM   25  O   UNL     1      23.983  48.843  48.125  1.00  0.00    -0.265 OA
BRANCH  23  26
HETATM   26  C   UNL     1      20.980  48.706  48.234  1.00  0.00     0.069 A 
HETATM   27  C   UNL     1      20.719  50.081  48.255  1.00  0.00     0.095 A 
HETATM   28  C   UNL     1      19.768  50.634  47.389  1.00  0.00     0.039 A 
HETATM   29  C   UNL     1      19.024  49.817  46.538  1.00  0.00     0.009 A 
HETATM   30  C   UNL     1      19.223  48.436  46.545  1.00  0.00    -0.060 A 
HETATM   31  C   UNL     1      18.422  47.534  45.652  1.00  0.00     0.048 C 
HETATM   32  C   UNL     1      20.191  47.891  47.403  1.00  0.00     0.039 A 
BRANCH  27  33
HETATM   33  O   UNL     1      21.313  50.965  49.115  1.00  0.00    -0.354 OA
HETATM   34  C   UNL     1      20.635  50.978  50.371  1.00  0.00     0.210 C 
ENDBRANCH  27  33
ENDBRANCH  23  26
ENDBRANCH   4  22
TORSDOF 8
ENDMDL
MODEL 8
REMARK VINA RESULT:      -9.0      1.992      2.634
REMARK  8 active torsions:
REMARK  status: ('A' for Active; 'I' for Inactive)
REMARK    1  A    between atoms: C_2  and  C_3 
REMARK    2  A    between atoms: C_6  and  N_7 
REMARK       I    between atoms: N_7  and  C_8 
REMARK    3  A    between atoms: C_8  and  C_9 
REMARK    4  A    between atoms: C_9  and  N_10 
REMARK    5  A    between atoms: C_13  and  C_14 
REMARK       I    between atoms: C_14  and  N_15 
REMARK    6  A    between atoms: N_15  and  C_16 
REMARK    7  A    between atoms: C_17  and  O_18 
REMARK    8  A    between atoms: C_26  and  N_27 
ROOT
HETATM    1  N   UNL     1      23.702  43.797  49.842  1.00  0.00    -0.248 N 
HETATM    2  N   UNL     1      23.343  44.204  51.082  1.00  0.00     0.007 NA
HETATM    3  N   UNL     1      24.449  44.346  51.791  1.00  0.00    -0.150 NA
HETATM    4  C   UNL     1      25.520  43.981  51.003  1.00  0.00     0.187 A 
HETATM    5  C   UNL     1      25.059  43.619  49.747  1.00  0.00     0.151 A 
ENDROOT
BRANCH   1   6
HETATM    6  C   UNL     1      22.676  43.666  48.832  1.00  0.00     0.251 C 
BRANCH   6   7
HETATM    7  C   UNL     1      21.803  44.905  48.725  1.00  0.00     0.241 C 
HETATM    8  N   UNL     1      22.500  46.081  48.496  1.00  0.00    -0.326 N 
HETATM    9  H   UNL     1      23.498  45.987  48.307  1.00  0.00     0.169 HD
HETATM   10  O   UNL     1      20.590  44.813  48.910  1.00  0.00    -0.271 OA
BRANCH   8  11
HETATM   11  C   UNL     1      22.000  47.395  48.417  1.00  0.00     0.034 A 
HETATM   12  C   UNL     1      20.923  47.778  47.621  1.00  0.00     0.030 A 
HETATM   13  C   UNL     1      20.483  49.109  47.621  1.00  0.00     0.009 A 
HETATM   14  C   UNL     1      21.118  50.075  48.410  1.00  0.00    -0.058 A 
HETATM   15  C   UNL     1      22.198  49.687  49.210  1.00  0.00     0.009 A 
HETATM   16  C   UNL     1      22.631  48.359  49.214  1.00  0.00     0.030 A 
BRANCH  14  17
HETATM   17  C   UNL     1      20.628  51.500  48.425  1.00  0.00     0.034 C 
HETATM   18  C   UNL     1      19.466  51.686  49.389  1.00  0.00     0.010 C 
ENDBRANCH  14  17
ENDBRANCH   8  11
ENDBRANCH   6   7
ENDBRANCH   1   6
BRANCH   5  19
HETATM   19  N   UNL     1      25.700  43.200  48.634  1.00  0.00    -0.382 N 
HETATM   20  H   UNL     1      25.298  43.427  47.719  1.00  0.00     0.157 HD
HETATM   21  H   UNL     1      26.380  42.446  48.596  1.00  0.00     0.157 HD
ENDBRANCH   5  19
BRANCH   4  22
HETATM   22  C   UNL     1      26.901  44.045  51.483  1.00  0.00     0.280 C 
HETATM   23  N   UNL     1      26.964  43.829  52.849  1.00  0.00    -0.319 N 
HETATM   24  H   UNL     1      26.060  43.838  53.308  1.00  0.00     0.169 HD
HETATM   25  O   UNL     1      27.825  44.331  50.732  1.00  0.00    -0.265 OA
BRANCH  23  26
HETATM   26  C   UNL     1      28.096  43.853  53.689  1.00  0.00     0.069 A 
HETATM   27  C   UNL     1      29.203  43.001  53.609  1.00  0.00     0.095 A 
HETATM   28  C   UNL     1      30.304  43.189  54.454  1.00  0.00     0.039 A 
HETATM   29  C   UNL     1      30.287  44.187  55.428  1.00  0.00     0.009 A 
HETATM   30  C   UNL     1      29.168  45.009  55.567  1.00  0.00    -0.060 A 
HETATM   31  C   UNL     1      29.120  46.078  56.619  1.00  0.00     0.048 C 
HETATM   32  C   UNL     1      28.077  44.826  54.705  1.00  0.00     0.039 A 
BRANCH  27  33
HETATM   33  O   UNL     1      29.290  41.927  52.765  1.00  0.00    -0.354 OA
HETATM   34  C   UNL     1      28.585  40.807  53.300  1.00  0.00     0.210 C 
ENDBRANCH  27  33
ENDBRANCH  23  26
ENDBRANCH   4  22
TORSDOF 8
ENDMDL
MODEL 9
REMARK VINA RESULT:      -8.9      2.150      3.406
REMARK  8 active torsions:
REMARK  status: ('A' for Active; 'I' for Inactive)
REMARK    1  A    between atoms: C_2  and  C_3 
REMARK    2  A    between atoms: C_6  and  N_7 
REMARK       I    between atoms: N_7  and  C_8 
REMARK    3  A    between atoms: C_8  and  C_9 
REMARK    4  A    between atoms: C_9  and  N_10 
REMARK    5  A    between atoms: C_13  and  C_14 
REMARK       I    between atoms: C_14  and  N_15 
REMARK    6  A    between atoms: N_15  and  C_16 
REMARK    7  A    between atoms: C_17  and  O_18 
REMARK    8  A    between atoms: C_26  and  N_27 
ROOT
HETATM    1  N   UNL     1      23.937  43.678  49.919  1.00  0.00    -0.248 N 
HETATM    2  N   UNL     1      23.442  43.669  51.179  1.00  0.00     0.007 NA
HETATM    3  N   UNL     1      24.452  43.871  52.006  1.00  0.00    -0.150 NA
HETATM    4  C   UNL     1      25.610  43.966  51.263  1.00  0.00     0.187 A 
HETATM    5  C   UNL     1      25.300  43.839  49.918  1.00  0.00     0.151 A 
ENDROOT
BRANCH   1   6
HETATM    6  C   UNL     1      23.014  43.580  48.811  1.00  0.00     0.251 C 
BRANCH   6   7
HETATM    7  C   UNL     1      22.076  44.772  48.727  1.00  0.00     0.241 C 
HETATM    8  N   UNL     1      22.699  45.971  48.421  1.00  0.00    -0.326 N 
HETATM    9  H   UNL     1      23.687  45.919  48.172  1.00  0.00     0.169 HD
HETATM   10  O   UNL     1      20.883  44.629  48.990  1.00  0.00    -0.271 OA
BRANCH   8  11
HETATM   11  C   UNL     1      22.132  47.258  48.338  1.00  0.00     0.034 A 
HETATM   12  C   UNL     1      21.075  47.597  47.496  1.00  0.00     0.030 A 
HETATM   13  C   UNL     1      20.563  48.901  47.496  1.00  0.00     0.009 A 
HETATM   14  C   UNL     1      21.105  49.886  48.330  1.00  0.00    -0.058 A 
HETATM   15  C   UNL     1      22.165  49.542  49.176  1.00  0.00     0.009 A 
HETATM   16  C   UNL     1      22.670  48.240  49.180  1.00  0.00     0.030 A 
BRANCH  14  17
HETATM   17  C   UNL     1      20.537  51.281  48.343  1.00  0.00     0.034 C 
HETATM   18  C   UNL     1      19.710  51.542  49.593  1.00  0.00     0.010 C 
ENDBRANCH  14  17
ENDBRANCH   8  11
ENDBRANCH   6   7
ENDBRANCH   1   6
BRANCH   5  19
HETATM   19  N   UNL     1      26.066  43.868  48.806  1.00  0.00    -0.382 N 
HETATM   20  H   UNL     1      25.632  44.132  47.915  1.00  0.00     0.157 HD
HETATM   21  H   UNL     1      26.954  43.387  48.691  1.00  0.00     0.157 HD
ENDBRANCH   5  19
BRANCH   4  22
HETATM   22  C   UNL     1      26.914  44.215  51.877  1.00  0.00     0.280 C 
HETATM   23  N   UNL     1      26.775  44.651  53.184  1.00  0.00    -0.319 N 
HETATM   24  H   UNL     1      25.822  44.889  53.438  1.00  0.00     0.169 HD
HETATM   25  O   UNL     1      27.952  44.104  51.237  1.00  0.00    -0.265 OA
BRANCH  23  26
HETATM   26  C   UNL     1      27.782  45.036  54.092  1.00  0.00     0.069 A 
HETATM   27  C   UNL     1      27.920  46.295  54.688  1.00  0.00     0.095 A 
HETATM   28  C   UNL     1      28.918  46.520  55.643  1.00  0.00     0.039 A 
HETATM   29  C   UNL     1      29.828  45.514  55.969  1.00  0.00     0.009 A 
HETATM   30  C   UNL     1      29.748  44.270  55.342  1.00  0.00    -0.060 A 
HETATM   31  C   UNL     1      30.725  43.178  55.662  1.00  0.00     0.048 C 
HETATM   32  C   UNL     1      28.733  44.046  54.399  1.00  0.00     0.039 A 
BRANCH  27  33
HETATM   33  O   UNL     1      27.153  47.384  54.374  1.00  0.00    -0.354 OA
HETATM   34  C   UNL     1      26.678  48.025  55.558  1.00  0.00     0.210 C 
ENDBRANCH  27  33
ENDBRANCH  23  26
ENDBRANCH   4  22
TORSDOF 8
ENDMDL
MODEL 10
REMARK VINA RESULT:      -8.6      5.352      9.731
REMARK  8 active torsions:
REMARK  status: ('A' for Active; 'I' for Inactive)
REMARK    1  A    between atoms: C_2  and  C_3 
REMARK    2  A    between atoms: C_6  and  N_7 
REMARK       I    between atoms: N_7  and  C_8 
REMARK    3  A    between atoms: C_8  and  C_9 
REMARK    4  A    between atoms: C_9  and  N_10 
REMARK    5  A    between atoms: C_13  and  C_14 
REMARK       I    between atoms: C_14  and  N_15 
REMARK    6  A    between atoms: N_15  and  C_16 
REMARK    7  A    between atoms: C_17  and  O_18 
REMARK    8  A    between atoms: C_26  and  N_27 
ROOT
HETATM    1  N   UNL     1      25.802  44.507  51.025  1.00  0.00    -0.248 N 
HETATM    2  N   UNL     1      26.829  44.934  50.253  1.00  0.00     0.007 NA
HETATM    3  N   UNL     1      27.023  44.028  49.311  1.00  0.00    -0.150 NA
HETATM    4  C   UNL     1      26.136  42.992  49.515  1.00  0.00     0.187 A 
HETATM    5  C   UNL     1      25.345  43.279  50.617  1.00  0.00     0.151 A 
ENDROOT
BRANCH   1   6
HETATM    6  C   UNL     1      25.318  45.375  52.075  1.00  0.00     0.251 C 
BRANCH   6   7
HETATM    7  C   UNL     1      26.088  45.203  53.374  1.00  0.00     0.241 C 
HETATM    8  N   UNL     1      27.454  45.036  53.213  1.00  0.00    -0.326 N 
HETATM    9  H   UNL     1      27.818  45.158  52.267  1.00  0.00     0.169 HD
HETATM   10  O   UNL     1      25.480  45.155  54.441  1.00  0.00    -0.271 OA
BRANCH   8  11
HETATM   11  C   UNL     1      28.429  44.786  54.198  1.00  0.00     0.034 A 
HETATM   12  C   UNL     1      29.176  43.613  54.283  1.00  0.00     0.030 A 
HETATM   13  C   UNL     1      30.139  43.461  55.289  1.00  0.00     0.009 A 
HETATM   14  C   UNL     1      30.363  44.474  56.228  1.00  0.00    -0.058 A 
HETATM   15  C   UNL     1      29.613  45.652  56.139  1.00  0.00     0.009 A 
HETATM   16  C   UNL     1      28.657  45.805  55.132  1.00  0.00     0.030 A 
BRANCH  14  17
HETATM   17  C   UNL     1      31.416  44.317  57.295  1.00  0.00     0.034 C 
HETATM   18  C   UNL     1      32.057  42.938  57.255  1.00  0.00     0.010 C 
ENDBRANCH  14  17
ENDBRANCH   8  11
ENDBRANCH   6   7
ENDBRANCH   1   6
BRANCH   5  19
HETATM   19  N   UNL     1      24.340  42.601  51.211  1.00  0.00    -0.382 N 
HETATM   20  H   UNL     1      23.586  43.130  51.662  1.00  0.00     0.157 HD
HETATM   21  H   UNL     1      24.383  41.631  51.513  1.00  0.00     0.157 HD
ENDBRANCH   5  19
BRANCH   4  22
HETATM   22  C   UNL     1      26.072  41.830  48.627  1.00  0.00     0.280 C 
HETATM   23  N   UNL     1      27.295  41.601  48.020  1.00  0.00    -0.319 N 
HETATM   24  H   UNL     1      27.964  42.353  48.147  1.00  0.00     0.169 HD
HETATM   25  O   UNL     1      25.023  41.230  48.435  1.00  0.00    -0.265 OA
BRANCH  23  26
HETATM   26  C   UNL     1      27.632  40.614  47.071  1.00  0.00     0.069 A 
HETATM   27  C   UNL     1      27.708  39.235  47.303  1.00  0.00     0.095 A 
HETATM   28  C   UNL     1      27.970  38.353  46.248  1.00  0.00     0.039 A 
HETATM   29  C   UNL     1      28.219  38.838  44.965  1.00  0.00     0.009 A 
HETATM   30  C   UNL     1      28.210  40.212  44.722  1.00  0.00    -0.060 A 
HETATM   31  C   UNL     1      28.493  40.758  43.354  1.00  0.00     0.048 C 
HETATM   32  C   UNL     1      27.929  41.089  45.781  1.00  0.00     0.039 A 
BRANCH  27  33
HETATM   33  O   UNL     1      27.582  38.654  48.536  1.00  0.00    -0.354 OA
HETATM   34  C   UNL     1      28.862  38.467  49.139  1.00  0.00     0.210 C 
ENDBRANCH  27  33
ENDBRANCH  23  26
ENDBRANCH   4  22
TORSDOF 8
ENDMDL
