MODEL 1
REMARK VINA RESULT:      -8.8      0.000      0.000
REMARK  5 active torsions:
REMARK  status: ('A' for Active; 'I' for Inactive)
REMARK    1  A    between atoms: C_6  and  N_7 
REMARK       I    between atoms: N_7  and  C_8 
REMARK    2  A    between atoms: C_8  and  C_9 
REMARK    3  A    between atoms: C_9  and  O_10 
REMARK    4  A    between atoms: O_10  and  C_11 
REMARK    5  A    between atoms: C_19  and  C_20 
ROOT
HETATM    1  C   UNL     1      32.006  43.330  57.052  1.00  0.00     0.073 C 
HETATM    2  C   UNL     1      30.957  44.379  57.049  1.00  0.00     0.065 A 
HETATM    3  N   UNL     1      30.965  45.334  57.990  1.00  0.00    -0.177 NA
HETATM    4  N   UNL     1      29.902  46.098  57.684  1.00  0.00    -0.262 N 
HETATM    5  H   UNL     1      29.678  46.906  58.261  1.00  0.00     0.191 HD
HETATM    6  C   UNL     1      29.204  45.664  56.586  1.00  0.00     0.137 A 
HETATM    7  C   UNL     1      29.875  44.543  56.138  1.00  0.00     0.046 A 
ENDROOT
BRANCH   6   8
HETATM    8  N   UNL     1      28.058  46.274  56.108  1.00  0.00    -0.309 N 
HETATM    9  C   UNL     1      28.103  47.255  55.123  1.00  0.00     0.252 C 
HETATM   10  O   UNL     1      29.141  47.632  54.579  1.00  0.00    -0.270 OA
HETATM   11  H   UNL     1      27.175  46.007  56.528  1.00  0.00     0.170 HD
BRANCH   9  12
HETATM   12  C   UNL     1      26.703  47.799  54.755  1.00  0.00     0.217 C 
HETATM   13  C   UNL     1      26.231  48.701  55.894  1.00  0.00     0.050 C 
BRANCH  12  14
HETATM   14  O   UNL     1      25.704  46.798  54.577  1.00  0.00    -0.337 OA
BRANCH  14  15
HETATM   15  C   UNL     1      25.665  46.276  53.311  1.00  0.00     0.070 A 
HETATM   16  C   UNL     1      25.185  44.974  53.183  1.00  0.00     0.037 A 
HETATM   17  C   UNL     1      25.095  44.384  51.924  1.00  0.00     0.003 A 
HETATM   18  C   UNL     1      25.470  45.103  50.789  1.00  0.00     0.000 A 
HETATM   19  C   UNL     1      25.922  46.416  50.915  1.00  0.00     0.003 A 
HETATM   20  C   UNL     1      26.011  47.009  52.176  1.00  0.00     0.037 A 
ENDBRANCH  14  15
ENDBRANCH  12  14
ENDBRANCH   9  12
ENDBRANCH   6   8
BRANCH   7  21
HETATM   21  C   UNL     1      29.484  43.746  54.993  1.00  0.00    -0.020 A 
HETATM   22  C   UNL     1      28.142  43.386  54.806  1.00  0.00     0.014 A 
HETATM   23  C   UNL     1      27.768  42.615  53.702  1.00  0.00     0.020 A 
HETATM   24  C   UNL     1      28.734  42.210  52.783  1.00  0.00     0.011 A 
HETATM   25 BR   UNL     1      28.228  41.168  51.289  1.00  0.00    -0.051 Br
HETATM   26  C   UNL     1      30.070  42.569  52.955  1.00  0.00     0.020 A 
HETATM   27  C   UNL     1      30.445  43.338  54.060  1.00  0.00     0.014 A 
ENDBRANCH   7  21
TORSDOF 5
ENDMDL
MODEL 2
REMARK VINA RESULT:      -8.6      3.701      6.855
REMARK  5 active torsions:
REMARK  status: ('A' for Active; 'I' for Inactive)
REMARK    1  A    between atoms: C_6  and  N_7 
REMARK       I    between atoms: N_7  and  C_8 
REMARK    2  A    between atoms: C_8  and  C_9 
REMARK    3  A    between atoms: C_9  and  O_10 
REMARK    4  A    between atoms: O_10  and  C_11 
REMARK    5  A    between atoms: C_19  and  C_20 
ROOT
HETATM    1  C   UNL     1      27.583  39.623  48.522  1.00  0.00     0.073 C 
HETATM    2  C   UNL     1      27.909  40.084  49.895  1.00  0.00     0.065 A 
HETATM    3  N   UNL     1      28.803  39.410  50.630  1.00  0.00    -0.177 NA
HETATM    4  N   UNL     1      28.854  40.095  51.785  1.00  0.00    -0.262 N 
HETATM    5  H   UNL     1      29.468  39.780  52.533  1.00  0.00     0.191 HD
HETATM    6  C   UNL     1      28.017  41.180  51.824  1.00  0.00     0.137 A 
HETATM    7  C   UNL     1      27.388  41.208  50.594  1.00  0.00     0.046 A 
ENDROOT
BRANCH   6   8
HETATM    8  N   UNL     1      27.878  42.010  52.922  1.00  0.00    -0.309 N 
HETATM    9  C   UNL     1      28.801  43.009  53.211  1.00  0.00     0.252 C 
HETATM   10  O   UNL     1      29.783  43.257  52.511  1.00  0.00    -0.270 OA
HETATM   11  H   UNL     1      27.090  41.843  53.538  1.00  0.00     0.170 HD
BRANCH   9  12
HETATM   12  C   UNL     1      28.446  43.803  54.489  1.00  0.00     0.217 C 
HETATM   13  C   UNL     1      27.026  44.346  54.330  1.00  0.00     0.050 C 
BRANCH  12  14
HETATM   14  O   UNL     1      29.290  44.921  54.750  1.00  0.00    -0.337 OA
BRANCH  14  15
HETATM   15  C   UNL     1      30.041  44.791  55.888  1.00  0.00     0.070 A 
HETATM   16  C   UNL     1      29.811  45.720  56.901  1.00  0.00     0.037 A 
HETATM   17  C   UNL     1      30.521  45.639  58.098  1.00  0.00     0.003 A 
HETATM   18  C   UNL     1      31.450  44.616  58.287  1.00  0.00     0.000 A 
HETATM   19  C   UNL     1      31.657  43.668  57.285  1.00  0.00     0.003 A 
HETATM   20  C   UNL     1      30.946  43.748  56.087  1.00  0.00     0.037 A 
ENDBRANCH  14  15
ENDBRANCH  12  14
ENDBRANCH   9  12
ENDBRANCH   6   8
BRANCH   7  21
HETATM   21  C   UNL     1      26.403  42.193  50.191  1.00  0.00    -0.020 A 
HETATM   22  C   UNL     1      25.048  41.847  50.112  1.00  0.00     0.014 A 
HETATM   23  C   UNL     1      24.101  42.798  49.720  1.00  0.00     0.020 A 
HETATM   24  C   UNL     1      24.510  44.094  49.412  1.00  0.00     0.011 A 
HETATM   25 BR   UNL     1      23.231  45.379  48.882  1.00  0.00    -0.051 Br
HETATM   26  C   UNL     1      25.855  44.450  49.493  1.00  0.00     0.020 A 
HETATM   27  C   UNL     1      26.803  43.499  49.883  1.00  0.00     0.014 A 
ENDBRANCH   7  21
TORSDOF 5
ENDMDL
MODEL 3
REMARK VINA RESULT:      -8.6      3.267      7.138
REMARK  5 active torsions:
REMARK  status: ('A' for Active; 'I' for Inactive)
REMARK    1  A    between atoms: C_6  and  N_7 
REMARK       I    between atoms: N_7  and  C_8 
REMARK    2  A    between atoms: C_8  and  C_9 
REMARK    3  A    between atoms: C_9  and  O_10 
REMARK    4  A    between atoms: O_10  and  C_11 
REMARK    5  A    between atoms: C_19  and  C_20 
ROOT
HETATM    1  C   UNL     1      23.639  43.680  48.985  1.00  0.00     0.073 C 
HETATM    2  C   UNL     1      24.239  43.822  50.335  1.00  0.00     0.065 A 
HETATM    3  N   UNL     1      24.118  42.829  51.227  1.00  0.00    -0.177 NA
HETATM    4  N   UNL     1      24.770  43.287  52.310  1.00  0.00    -0.262 N 
HETATM    5  H   UNL     1      24.822  42.712  53.148  1.00  0.00     0.191 HD
HETATM    6  C   UNL     1      25.296  44.543  52.151  1.00  0.00     0.137 A 
HETATM    7  C   UNL     1      24.974  44.920  50.861  1.00  0.00     0.046 A 
ENDROOT
BRANCH   6   8
HETATM    8  N   UNL     1      25.977  45.227  53.142  1.00  0.00    -0.309 N 
HETATM    9  C   UNL     1      27.034  44.651  53.840  1.00  0.00     0.252 C 
HETATM   10  O   UNL     1      27.467  43.521  53.616  1.00  0.00    -0.270 OA
HETATM   11  H   UNL     1      25.656  46.160  53.373  1.00  0.00     0.170 HD
BRANCH   9  12
HETATM   12  C   UNL     1      27.635  45.597  54.905  1.00  0.00     0.217 C 
HETATM   13  C   UNL     1      26.956  46.960  54.766  1.00  0.00     0.050 C 
BRANCH  12  14
HETATM   14  O   UNL     1      29.038  45.818  54.781  1.00  0.00    -0.337 OA
BRANCH  14  15
HETATM   15  C   UNL     1      29.766  45.345  55.839  1.00  0.00     0.070 A 
HETATM   16  C   UNL     1      29.545  45.952  57.074  1.00  0.00     0.037 A 
HETATM   17  C   UNL     1      30.234  45.510  58.203  1.00  0.00     0.003 A 
HETATM   18  C   UNL     1      31.131  44.447  58.099  1.00  0.00     0.000 A 
HETATM   19  C   UNL     1      31.328  43.820  56.869  1.00  0.00     0.003 A 
HETATM   20  C   UNL     1      30.638  44.261  55.738  1.00  0.00     0.037 A 
ENDBRANCH  14  15
ENDBRANCH  12  14
ENDBRANCH   9  12
ENDBRANCH   6   8
BRANCH   7  21
HETATM   21  C   UNL     1      25.328  46.190  50.258  1.00  0.00    -0.020 A 
HETATM   22  C   UNL     1      24.342  47.154  50.008  1.00  0.00     0.014 A 
HETATM   23  C   UNL     1      24.686  48.376  49.423  1.00  0.00     0.020 A 
HETATM   24  C   UNL     1      26.015  48.635  49.095  1.00  0.00     0.011 A 
HETATM   25 BR   UNL     1      26.480  50.288  48.305  1.00  0.00    -0.051 Br
HETATM   26  C   UNL     1      27.005  47.687  49.347  1.00  0.00     0.020 A 
HETATM   27  C   UNL     1      26.661  46.464  49.929  1.00  0.00     0.014 A 
ENDBRANCH   7  21
TORSDOF 5
ENDMDL
MODEL 4
REMARK VINA RESULT:      -8.5      3.481      5.842
REMARK  5 active torsions:
REMARK  status: ('A' for Active; 'I' for Inactive)
REMARK    1  A    between atoms: C_6  and  N_7 
REMARK       I    between atoms: N_7  and  C_8 
REMARK    2  A    between atoms: C_8  and  C_9 
REMARK    3  A    between atoms: C_9  and  O_10 
REMARK    4  A    between atoms: O_10  and  C_11 
REMARK    5  A    between atoms: C_19  and  C_20 
ROOT
HETATM    1  C   UNL     1      26.621  40.526  48.926  1.00  0.00     0.073 C 
HETATM    2  C   UNL     1      27.299  40.775  50.223  1.00  0.00     0.065 A 
HETATM    3  N   UNL     1      28.048  39.812  50.779  1.00  0.00    -0.177 NA
HETATM    4  N   UNL     1      28.502  40.372  51.914  1.00  0.00    -0.262 N 
HETATM    5  H   UNL     1      29.103  39.836  52.536  1.00  0.00     0.191 HD
HETATM    6  C   UNL     1      28.064  41.657  52.113  1.00  0.00     0.137 A 
HETATM    7  C   UNL     1      27.280  41.956  51.016  1.00  0.00     0.046 A 
ENDROOT
BRANCH   6   8
HETATM    8  N   UNL     1      28.377  42.416  53.226  1.00  0.00    -0.309 N 
HETATM    9  C   UNL     1      29.525  43.198  53.285  1.00  0.00     0.252 C 
HETATM   10  O   UNL     1      30.328  43.307  52.357  1.00  0.00    -0.270 OA
HETATM   11  H   UNL     1      27.754  42.356  54.024  1.00  0.00     0.170 HD
BRANCH   9  12
HETATM   12  C   UNL     1      29.671  43.949  54.628  1.00  0.00     0.217 C 
HETATM   13  C   UNL     1      30.558  43.109  55.547  1.00  0.00     0.050 C 
BRANCH  12  14
HETATM   14  O   UNL     1      28.446  44.170  55.322  1.00  0.00    -0.337 OA
BRANCH  14  15
HETATM   15  C   UNL     1      27.820  45.338  54.977  1.00  0.00     0.070 A 
HETATM   16  C   UNL     1      26.579  45.224  54.353  1.00  0.00     0.037 A 
HETATM   17  C   UNL     1      25.871  46.370  53.992  1.00  0.00     0.003 A 
HETATM   18  C   UNL     1      26.398  47.630  54.272  1.00  0.00     0.000 A 
HETATM   19  C   UNL     1      27.626  47.743  54.924  1.00  0.00     0.003 A 
HETATM   20  C   UNL     1      28.335  46.597  55.287  1.00  0.00     0.037 A 
ENDBRANCH  14  15
ENDBRANCH  12  14
ENDBRANCH   9  12
ENDBRANCH   6   8
BRANCH   7  21
HETATM   21  C   UNL     1      26.600  43.218  50.805  1.00  0.00    -0.020 A 
HETATM   22  C   UNL     1      25.264  43.377  51.197  1.00  0.00     0.014 A 
HETATM   23  C   UNL     1      24.610  44.594  50.990  1.00  0.00     0.020 A 
HETATM   24  C   UNL     1      25.293  45.653  50.396  1.00  0.00     0.011 A 
HETATM   25 BR   UNL     1      24.408  47.300  50.116  1.00  0.00    -0.051 Br
HETATM   26  C   UNL     1      26.624  45.509  50.008  1.00  0.00     0.020 A 
HETATM   27  C   UNL     1      27.278  44.291  50.213  1.00  0.00     0.014 A 
ENDBRANCH   7  21
TORSDOF 5
ENDMDL
MODEL 5
REMARK VINA RESULT:      -8.2      6.400      8.811
REMARK  5 active torsions:
REMARK  status: ('A' for Active; 'I' for Inactive)
REMARK    1  A    between atoms: C_6  and  N_7 
REMARK       I    between atoms: N_7  and  C_8 
REMARK    2  A    between atoms: C_8  and  C_9 
REMARK    3  A    between atoms: C_9  and  O_10 
REMARK    4  A    between atoms: O_10  and  C_11 
REMARK    5  A    between atoms: C_19  and  C_20 
ROOT
HETATM    1  C   UNL     1      27.792  48.841  49.120  1.00  0.00     0.073 C 
HETATM    2  C   UNL     1      26.332  49.003  48.902  1.00  0.00     0.065 A 
HETATM    3  N   UNL     1      25.887  49.869  47.982  1.00  0.00    -0.177 NA
HETATM    4  N   UNL     1      24.549  49.752  48.049  1.00  0.00    -0.262 N 
HETATM    5  H   UNL     1      23.961  50.320  47.443  1.00  0.00     0.191 HD
HETATM    6  C   UNL     1      24.118  48.849  48.987  1.00  0.00     0.137 A 
HETATM    7  C   UNL     1      25.264  48.330  49.559  1.00  0.00     0.046 A 
ENDROOT
BRANCH   6   8
HETATM    8  N   UNL     1      22.785  48.589  49.254  1.00  0.00    -0.309 N 
HETATM    9  C   UNL     1      21.956  47.969  48.325  1.00  0.00     0.252 C 
HETATM   10  O   UNL     1      22.337  47.576  47.223  1.00  0.00    -0.270 OA
HETATM   11  H   UNL     1      22.417  48.901  50.145  1.00  0.00     0.170 HD
BRANCH   9  12
HETATM   12  C   UNL     1      20.509  47.792  48.839  1.00  0.00     0.217 C 
HETATM   13  C   UNL     1      20.180  46.299  48.824  1.00  0.00     0.050 C 
BRANCH  12  14
HETATM   14  O   UNL     1      19.514  48.443  48.052  1.00  0.00    -0.337 OA
BRANCH  14  15
HETATM   15  C   UNL     1      19.212  49.707  48.482  1.00  0.00     0.070 A 
HETATM   16  C   UNL     1      18.216  49.820  49.450  1.00  0.00     0.037 A 
HETATM   17  C   UNL     1      17.869  51.073  49.953  1.00  0.00     0.003 A 
HETATM   18  C   UNL     1      18.531  52.213  49.498  1.00  0.00     0.000 A 
HETATM   19  C   UNL     1      19.549  52.097  48.552  1.00  0.00     0.003 A 
HETATM   20  C   UNL     1      19.898  50.842  48.049  1.00  0.00     0.037 A 
ENDBRANCH  14  15
ENDBRANCH  12  14
ENDBRANCH   9  12
ENDBRANCH   6   8
BRANCH   7  21
HETATM   21  C   UNL     1      25.285  47.336  50.613  1.00  0.00    -0.020 A 
HETATM   22  C   UNL     1      25.999  47.572  51.795  1.00  0.00     0.014 A 
HETATM   23  C   UNL     1      26.020  46.610  52.808  1.00  0.00     0.020 A 
HETATM   24  C   UNL     1      25.323  45.415  52.640  1.00  0.00     0.011 A 
HETATM   25 BR   UNL     1      25.352  44.113  54.011  1.00  0.00    -0.051 Br
HETATM   26  C   UNL     1      24.605  45.172  51.471  1.00  0.00     0.020 A 
HETATM   27  C   UNL     1      24.585  46.133  50.457  1.00  0.00     0.014 A 
ENDBRANCH   7  21
TORSDOF 5
ENDMDL
MODEL 6
REMARK VINA RESULT:      -7.9      3.201      4.665
REMARK  5 active torsions:
REMARK  status: ('A' for Active; 'I' for Inactive)
REMARK    1  A    between atoms: C_6  and  N_7 
REMARK       I    between atoms: N_7  and  C_8 
REMARK    2  A    between atoms: C_8  and  C_9 
REMARK    3  A    between atoms: C_9  and  O_10 
REMARK    4  A    between atoms: O_10  and  C_11 
REMARK    5  A    between atoms: C_19  and  C_20 
ROOT
HETATM    1  C   UNL     1      28.890  46.056  56.133  1.00  0.00     0.073 C 
HETATM    2  C   UNL     1      27.767  46.479  55.259  1.00  0.00     0.065 A 
HETATM    3  N   UNL     1      27.156  47.651  55.480  1.00  0.00    -0.177 NA
HETATM    4  N   UNL     1      26.216  47.711  54.520  1.00  0.00    -0.262 N 
HETATM    5  H   UNL     1      25.597  48.516  54.469  1.00  0.00     0.191 HD
HETATM    6  C   UNL     1      26.195  46.615  53.696  1.00  0.00     0.137 A 
HETATM    7  C   UNL     1      27.208  45.791  54.147  1.00  0.00     0.046 A 
ENDROOT
BRANCH   6   8
HETATM    8  N   UNL     1      25.293  46.444  52.661  1.00  0.00    -0.309 N 
HETATM    9  C   UNL     1      25.437  47.101  51.443  1.00  0.00     0.252 C 
HETATM   10  O   UNL     1      26.378  47.848  51.176  1.00  0.00    -0.270 OA
HETATM   11  H   UNL     1      24.493  45.845  52.831  1.00  0.00     0.170 HD
BRANCH   9  12
HETATM   12  C   UNL     1      24.306  46.764  50.444  1.00  0.00     0.217 C 
HETATM   13  C   UNL     1      24.255  45.246  50.281  1.00  0.00     0.050 C 
BRANCH  12  14
HETATM   14  O   UNL     1      24.481  47.316  49.141  1.00  0.00    -0.337 OA
BRANCH  14  15
HETATM   15  C   UNL     1      23.658  48.378  48.877  1.00  0.00     0.070 A 
HETATM   16  C   UNL     1      24.276  49.588  48.564  1.00  0.00     0.037 A 
HETATM   17  C   UNL     1      23.504  50.709  48.263  1.00  0.00     0.003 A 
HETATM   18  C   UNL     1      22.113  50.615  48.257  1.00  0.00     0.000 A 
HETATM   19  C   UNL     1      21.496  49.396  48.540  1.00  0.00     0.003 A 
HETATM   20  C   UNL     1      22.268  48.272  48.841  1.00  0.00     0.037 A 
ENDBRANCH  14  15
ENDBRANCH  12  14
ENDBRANCH   9  12
ENDBRANCH   6   8
BRANCH   7  21
HETATM   21  C   UNL     1      27.548  44.506  53.569  1.00  0.00    -0.020 A 
HETATM   22  C   UNL     1      27.493  43.343  54.348  1.00  0.00     0.014 A 
HETATM   23  C   UNL     1      27.824  42.105  53.790  1.00  0.00     0.020 A 
HETATM   24  C   UNL     1      28.204  42.031  52.451  1.00  0.00     0.011 A 
HETATM   25 BR   UNL     1      28.652  40.358  51.695  1.00  0.00    -0.051 Br
HETATM   26  C   UNL     1      28.255  43.181  51.665  1.00  0.00     0.020 A 
HETATM   27  C   UNL     1      27.926  44.419  52.224  1.00  0.00     0.014 A 
ENDBRANCH   7  21
TORSDOF 5
ENDMDL
MODEL 7
REMARK VINA RESULT:      -7.8     13.818     16.241
REMARK  5 active torsions:
REMARK  status: ('A' for Active; 'I' for Inactive)
REMARK    1  A    between atoms: C_6  and  N_7 
REMARK       I    between atoms: N_7  and  C_8 
REMARK    2  A    between atoms: C_8  and  C_9 
REMARK    3  A    between atoms: C_9  and  O_10 
REMARK    4  A    between atoms: O_10  and  C_11 
REMARK    5  A    between atoms: C_19  and  C_20 
ROOT
HETATM    1  C   UNL     1      44.116  47.125  65.379  1.00  0.00     0.073 C 
HETATM    2  C   UNL     1      43.029  46.127  65.219  1.00  0.00     0.065 A 
HETATM    3  N   UNL     1      43.331  44.852  64.939  1.00  0.00    -0.177 NA
HETATM    4  N   UNL     1      42.134  44.244  64.872  1.00  0.00    -0.262 N 
HETATM    5  H   UNL     1      42.083  43.250  64.662  1.00  0.00     0.191 HD
HETATM    6  C   UNL     1      41.072  45.084  65.089  1.00  0.00     0.137 A 
HETATM    7  C   UNL     1      41.625  46.327  65.330  1.00  0.00     0.046 A 
ENDROOT
BRANCH   6   8
HETATM    8  N   UNL     1      39.748  44.686  65.036  1.00  0.00    -0.309 N 
HETATM    9  C   UNL     1      39.144  44.297  63.845  1.00  0.00     0.252 C 
HETATM   10  O   UNL     1      39.732  44.241  62.765  1.00  0.00    -0.270 OA
HETATM   11  H   UNL     1      39.214  44.722  65.896  1.00  0.00     0.170 HD
BRANCH   9  12
HETATM   12  C   UNL     1      37.660  43.904  64.027  1.00  0.00     0.217 C 
HETATM   13  C   UNL     1      37.407  42.625  63.230  1.00  0.00     0.050 C 
BRANCH  12  14
HETATM   14  O   UNL     1      36.726  44.875  63.559  1.00  0.00    -0.337 OA
BRANCH  14  15
HETATM   15  C   UNL     1      36.463  45.867  64.465  1.00  0.00     0.070 A 
HETATM   16  C   UNL     1      36.039  45.466  65.731  1.00  0.00     0.037 A 
HETATM   17  C   UNL     1      35.773  46.419  66.713  1.00  0.00     0.003 A 
HETATM   18  C   UNL     1      35.949  47.774  66.434  1.00  0.00     0.000 A 
HETATM   19  C   UNL     1      36.403  48.173  65.177  1.00  0.00     0.003 A 
HETATM   20  C   UNL     1      36.671  47.220  64.193  1.00  0.00     0.037 A 
ENDBRANCH  14  15
ENDBRANCH  12  14
ENDBRANCH   9  12
ENDBRANCH   6   8
BRANCH   7  21
HETATM   21  C   UNL     1      40.866  47.531  65.605  1.00  0.00    -0.020 A 
HETATM   22  C   UNL     1      40.668  47.957  66.926  1.00  0.00     0.014 A 
HETATM   23  C   UNL     1      39.934  49.116  67.188  1.00  0.00     0.020 A 
HETATM   24  C   UNL     1      39.403  49.852  66.130  1.00  0.00     0.011 A 
HETATM   25 BR   UNL     1      38.409  51.420  66.485  1.00  0.00    -0.051 Br
HETATM   26  C   UNL     1      39.600  49.441  64.813  1.00  0.00     0.020 A 
HETATM   27  C   UNL     1      40.332  48.281  64.550  1.00  0.00     0.014 A 
ENDBRANCH   7  21
TORSDOF 5
ENDMDL
MODEL 8
REMARK VINA RESULT:      -7.7      5.180      8.864
REMARK  5 active torsions:
REMARK  status: ('A' for Active; 'I' for Inactive)
REMARK    1  A    between atoms: C_6  and  N_7 
REMARK       I    between atoms: N_7  and  C_8 
REMARK    2  A    between atoms: C_8  and  C_9 
REMARK    3  A    between atoms: C_9  and  O_10 
REMARK    4  A    between atoms: O_10  and  C_11 
REMARK    5  A    between atoms: C_19  and  C_20 
ROOT
HETATM    1  C   UNL     1      23.473  50.546  47.726  1.00  0.00     0.073 C 
HETATM    2  C   UNL     1      23.992  49.414  48.532  1.00  0.00     0.065 A 
HETATM    3  N   UNL     1      25.273  49.407  48.926  1.00  0.00    -0.177 NA
HETATM    4  N   UNL     1      25.390  48.264  49.624  1.00  0.00    -0.262 N 
HETATM    5  H   UNL     1      26.287  48.013  50.035  1.00  0.00     0.191 HD
HETATM    6  C   UNL     1      24.234  47.530  49.684  1.00  0.00     0.137 A 
HETATM    7  C   UNL     1      23.292  48.261  48.986  1.00  0.00     0.046 A 
ENDROOT
BRANCH   6   8
HETATM    8  N   UNL     1      24.128  46.305  50.319  1.00  0.00    -0.309 N 
HETATM    9  C   UNL     1      25.058  45.290  50.120  1.00  0.00     0.252 C 
HETATM   10  O   UNL     1      26.052  45.404  49.403  1.00  0.00    -0.270 OA
HETATM   11  H   UNL     1      23.322  46.155  50.915  1.00  0.00     0.170 HD
BRANCH   9  12
HETATM   12  C   UNL     1      24.731  44.012  50.924  1.00  0.00     0.217 C 
HETATM   13  C   UNL     1      23.433  43.423  50.372  1.00  0.00     0.050 C 
BRANCH  12  14
HETATM   14  O   UNL     1      24.530  44.222  52.320  1.00  0.00    -0.337 OA
BRANCH  14  15
HETATM   15  C   UNL     1      25.687  44.457  53.014  1.00  0.00     0.070 A 
HETATM   16  C   UNL     1      25.721  45.604  53.806  1.00  0.00     0.037 A 
HETATM   17  C   UNL     1      26.857  45.899  54.558  1.00  0.00     0.003 A 
HETATM   18  C   UNL     1      27.952  45.036  54.533  1.00  0.00     0.000 A 
HETATM   19  C   UNL     1      27.905  43.873  53.764  1.00  0.00     0.003 A 
HETATM   20  C   UNL     1      26.768  43.576  53.011  1.00  0.00     0.037 A 
ENDBRANCH  14  15
ENDBRANCH  12  14
ENDBRANCH   9  12
ENDBRANCH   6   8
BRANCH   7  21
HETATM   21  C   UNL     1      21.914  47.858  48.785  1.00  0.00    -0.020 A 
HETATM   22  C   UNL     1      20.867  48.643  49.285  1.00  0.00     0.014 A 
HETATM   23  C   UNL     1      19.540  48.251  49.092  1.00  0.00     0.020 A 
HETATM   24  C   UNL     1      19.261  47.077  48.395  1.00  0.00     0.011 A 
HETATM   25 BR   UNL     1      17.466  46.546  48.134  1.00  0.00    -0.051 Br
HETATM   26  C   UNL     1      20.295  46.292  47.887  1.00  0.00     0.020 A 
HETATM   27  C   UNL     1      21.622  46.683  48.082  1.00  0.00     0.014 A 
ENDBRANCH   7  21
TORSDOF 5
ENDMDL
MODEL 9
REMARK VINA RESULT:      -7.6      3.489      5.123
REMARK  5 active torsions:
REMARK  status: ('A' for Active; 'I' for Inactive)
REMARK    1  A    between atoms: C_6  and  N_7 
REMARK       I    between atoms: N_7  and  C_8 
REMARK    2  A    between atoms: C_8  and  C_9 
REMARK    3  A    between atoms: C_9  and  O_10 
REMARK    4  A    between atoms: O_10  and  C_11 
REMARK    5  A    between atoms: C_19  and  C_20 
ROOT
HETATM    1  C   UNL     1      30.924  43.551  55.871  1.00  0.00     0.073 C 
HETATM    2  C   UNL     1      30.270  43.285  54.566  1.00  0.00     0.065 A 
HETATM    3  N   UNL     1      30.691  42.265  53.804  1.00  0.00    -0.177 NA
HETATM    4  N   UNL     1      29.891  42.316  52.725  1.00  0.00    -0.262 N 
HETATM    5  H   UNL     1      30.010  41.638  51.976  1.00  0.00     0.191 HD
HETATM    6  C   UNL     1      28.976  43.337  52.760  1.00  0.00     0.137 A 
HETATM    7  C   UNL     1      29.191  43.987  53.960  1.00  0.00     0.046 A 
ENDROOT
BRANCH   6   8
HETATM    8  N   UNL     1      28.074  43.602  51.746  1.00  0.00    -0.309 N 
HETATM    9  C   UNL     1      27.355  42.591  51.118  1.00  0.00     0.252 C 
HETATM   10  O   UNL     1      27.432  41.402  51.429  1.00  0.00    -0.270 OA
HETATM   11  H   UNL     1      27.979  44.565  51.444  1.00  0.00     0.170 HD
BRANCH   9  12
HETATM   12  C   UNL     1      26.417  43.122  50.010  1.00  0.00     0.217 C 
HETATM   13  C   UNL     1      26.299  42.044  48.932  1.00  0.00     0.050 C 
BRANCH  12  14
HETATM   14  O   UNL     1      26.872  44.308  49.363  1.00  0.00    -0.337 OA
BRANCH  14  15
HETATM   15  C   UNL     1      26.065  45.394  49.573  1.00  0.00     0.070 A 
HETATM   16  C   UNL     1      26.699  46.596  49.883  1.00  0.00     0.037 A 
HETATM   17  C   UNL     1      25.945  47.750  50.089  1.00  0.00     0.003 A 
HETATM   18  C   UNL     1      24.557  47.706  49.966  1.00  0.00     0.000 A 
HETATM   19  C   UNL     1      23.925  46.510  49.625  1.00  0.00     0.003 A 
HETATM   20  C   UNL     1      24.679  45.353  49.418  1.00  0.00     0.037 A 
ENDBRANCH  14  15
ENDBRANCH  12  14
ENDBRANCH   9  12
ENDBRANCH   6   8
BRANCH   7  21
HETATM   21  C   UNL     1      28.448  45.144  54.419  1.00  0.00    -0.020 A 
HETATM   22  C   UNL     1      27.379  45.645  53.664  1.00  0.00     0.014 A 
HETATM   23  C   UNL     1      26.667  46.762  54.107  1.00  0.00     0.020 A 
HETATM   24  C   UNL     1      27.021  47.375  55.308  1.00  0.00     0.011 A 
HETATM   25 BR   UNL     1      26.057  48.886  55.908  1.00  0.00    -0.051 Br
HETATM   26  C   UNL     1      28.078  46.881  56.071  1.00  0.00     0.020 A 
HETATM   27  C   UNL     1      28.792  45.765  55.626  1.00  0.00     0.014 A 
ENDBRANCH   7  21
TORSDOF 5
ENDMDL
MODEL 10
REMARK VINA RESULT:      -7.5     13.874     15.145
REMARK  5 active torsions:
REMARK  status: ('A' for Active; 'I' for Inactive)
REMARK    1  A    between atoms: C_6  and  N_7 
REMARK       I    between atoms: N_7  and  C_8 
REMARK    2  A    between atoms: C_8  and  C_9 
REMARK    3  A    between atoms: C_9  and  O_10 
REMARK    4  A    between atoms: O_10  and  C_11 
REMARK    5  A    between atoms: C_19  and  C_20 
ROOT
HETATM    1  C   UNL     1      43.246  45.427  63.992  1.00  0.00     0.073 C 
HETATM    2  C   UNL     1      41.888  45.964  64.254  1.00  0.00     0.065 A 
HETATM    3  N   UNL     1      41.721  47.274  64.479  1.00  0.00    -0.177 NA
HETATM    4  N   UNL     1      40.395  47.403  64.667  1.00  0.00    -0.262 N 
HETATM    5  H   UNL     1      40.000  48.320  64.866  1.00  0.00     0.191 HD
HETATM    6  C   UNL     1      39.706  46.221  64.581  1.00  0.00     0.137 A 
HETATM    7  C   UNL     1      40.654  45.257  64.301  1.00  0.00     0.046 A 
ENDROOT
BRANCH   6   8
HETATM    8  N   UNL     1      38.340  46.108  64.773  1.00  0.00    -0.309 N 
HETATM    9  C   UNL     1      37.739  46.420  65.987  1.00  0.00     0.252 C 
HETATM   10  O   UNL     1      38.353  46.848  66.965  1.00  0.00    -0.270 OA
HETATM   11  H   UNL     1      37.787  45.751  64.002  1.00  0.00     0.170 HD
BRANCH   9  12
HETATM   12  C   UNL     1      36.208  46.208  65.970  1.00  0.00     0.217 C 
HETATM   13  C   UNL     1      35.541  47.536  66.329  1.00  0.00     0.050 C 
BRANCH  12  14
HETATM   14  O   UNL     1      35.731  45.240  66.901  1.00  0.00    -0.337 OA
BRANCH  14  15
HETATM   15  C   UNL     1      35.562  43.993  66.361  1.00  0.00     0.070 A 
HETATM   16  C   UNL     1      34.285  43.441  66.441  1.00  0.00     0.037 A 
HETATM   17  C   UNL     1      34.031  42.185  65.894  1.00  0.00     0.003 A 
HETATM   18  C   UNL     1      35.052  41.486  65.251  1.00  0.00     0.000 A 
HETATM   19  C   UNL     1      36.323  42.052  65.145  1.00  0.00     0.003 A 
HETATM   20  C   UNL     1      36.578  43.311  65.691  1.00  0.00     0.037 A 
ENDBRANCH  14  15
ENDBRANCH  12  14
ENDBRANCH   9  12
ENDBRANCH   6   8
BRANCH   7  21
HETATM   21  C   UNL     1      40.373  43.845  64.129  1.00  0.00    -0.020 A 
HETATM   22  C   UNL     1      40.789  42.918  65.093  1.00  0.00     0.014 A 
HETATM   23  C   UNL     1      40.519  41.557  64.924  1.00  0.00     0.020 A 
HETATM   24  C   UNL     1      39.828  41.126  63.793  1.00  0.00     0.011 A 
HETATM   25 BR   UNL     1      39.463  39.286  63.563  1.00  0.00    -0.051 Br
HETATM   26  C   UNL     1      39.403  42.041  62.831  1.00  0.00     0.020 A 
HETATM   27  C   UNL     1      39.675  43.401  62.999  1.00  0.00     0.014 A 
ENDBRANCH   7  21
TORSDOF 5
ENDMDL
