MODEL 1
REMARK VINA RESULT:     -10.2      0.000      0.000
REMARK  8 active torsions:
REMARK  status: ('A' for Active; 'I' for Inactive)
REMARK    1  A    between atoms: C_7  and  C_8 
REMARK    2  A    between atoms: C_9  and  O_10 
REMARK    3  A    between atoms: C_12  and  N_13 
REMARK    4  A    between atoms: C_14  and  N_15 
REMARK       I    between atoms: N_15  and  C_16 
REMARK    5  A    between atoms: C_16  and  C_17 
REMARK    6  A    between atoms: C_19  and  O_20 
REMARK    7  A    between atoms: O_20  and  C_21 
REMARK    8  A    between atoms: C_21  and  C_22 
ROOT
HETATM    1  C   UNL     1      27.829  42.896  51.927  1.00  0.00     0.050 A 
HETATM    2  C   UNL     1      27.164  41.664  51.842  1.00  0.00     0.082 A 
HETATM    3  C   UNL     1      26.441  41.309  50.704  1.00  0.00     0.067 A 
HETATM    4  C   UNL     1      26.415  42.157  49.593  1.00  0.00     0.036 A 
HETATM    5  C   UNL     1      27.067  43.389  49.662  1.00  0.00     0.030 A 
HETATM    6  C   UNL     1      27.763  43.758  50.823  1.00  0.00     0.021 A 
ENDROOT
BRANCH   4   7
HETATM    7  N   UNL     1      25.663  41.737  48.480  1.00  0.00    -0.337 N 
HETATM    8  C   UNL     1      24.364  41.945  48.174  1.00  0.00     0.157 C 
HETATM    9  S   UNL     1      23.531  40.766  47.324  1.00  0.00    -0.047 SA
HETATM   10  H   UNL     1      26.111  41.022  47.916  1.00  0.00     0.168 HD
BRANCH   8  11
HETATM   11  N   UNL     1      23.713  43.113  48.429  1.00  0.00    -0.201 NA
HETATM   12  C   UNL     1      23.251  43.448  49.698  1.00  0.00     0.237 C 
HETATM   13  O   UNL     1      22.405  42.840  50.342  1.00  0.00    -0.274 OA
HETATM   14  H   UNL     1      24.253  43.843  47.987  1.00  0.00     0.139 HD
BRANCH  12  15
HETATM   15  C   UNL     1      23.823  44.688  50.295  1.00  0.00     0.029 A 
HETATM   16  C   UNL     1      23.827  45.924  49.631  1.00  0.00     0.053 A 
HETATM   17  C   UNL     1      24.448  47.026  50.225  1.00  0.00     0.069 A 
HETATM   18  C   UNL     1      25.024  46.896  51.492  1.00  0.00     0.037 A 
HETATM   19  C   UNL     1      24.993  45.678  52.169  1.00  0.00     0.004 A 
HETATM   20  C   UNL     1      24.394  44.574  51.570  1.00  0.00     0.017 A 
BRANCH  17  21
HETATM   21  O   UNL     1      24.561  48.275  49.683  1.00  0.00    -0.351 OA
BRANCH  21  22
HETATM   22  C   UNL     1      23.385  48.877  49.145  1.00  0.00     0.179 C 
BRANCH  22  23
HETATM   23  C   UNL     1      23.776  49.888  48.054  1.00  0.00     0.002 C 
HETATM   24  C   UNL     1      23.134  51.255  48.298  1.00  0.00     0.011 C 
HETATM   25  C   UNL     1      25.297  50.035  47.962  1.00  0.00     0.011 C 
ENDBRANCH  22  23
ENDBRANCH  21  22
ENDBRANCH  17  21
ENDBRANCH  12  15
ENDBRANCH   8  11
ENDBRANCH   4   7
BRANCH   2  26
HETATM   26  O   UNL     1      27.181  40.739  52.857  1.00  0.00    -0.360 OA
HETATM   27  H   UNL     1      27.715  39.970  52.562  1.00  0.00     0.217 HD
ENDBRANCH   2  26
BRANCH   1  28
HETATM   28  C   UNL     1      28.581  43.250  53.123  1.00  0.00     0.183 A 
HETATM   29  O   UNL     1      28.290  44.447  53.721  1.00  0.00    -0.288 OA
HETATM   30  C   UNL     1      29.128  44.491  54.799  1.00  0.00     0.112 A 
HETATM   31  C   UNL     1      29.884  43.330  54.788  1.00  0.00     0.094 A 
HETATM   32  C   UNL     1      29.233  45.506  55.750  1.00  0.00    -0.025 A 
HETATM   33  C   UNL     1      30.865  43.144  55.771  1.00  0.00     0.041 A 
HETATM   34  N   UNL     1      29.501  42.528  53.743  1.00  0.00    -0.221 NA
HETATM   35  C   UNL     1      31.044  44.148  56.738  1.00  0.00    -0.059 A 
HETATM   36  C   UNL     1      32.112  44.008  57.786  1.00  0.00     0.048 C 
HETATM   37  C   UNL     1      30.233  45.299  56.721  1.00  0.00     0.016 A 
HETATM   38  C   UNL     1      28.386  46.737  55.763  1.00  0.00     0.051 C 
ENDBRANCH   1  28
TORSDOF 8
ENDMDL
MODEL 2
REMARK VINA RESULT:     -10.0      3.723      5.472
REMARK  8 active torsions:
REMARK  status: ('A' for Active; 'I' for Inactive)
REMARK    1  A    between atoms: C_7  and  C_8 
REMARK    2  A    between atoms: C_9  and  O_10 
REMARK    3  A    between atoms: C_12  and  N_13 
REMARK    4  A    between atoms: C_14  and  N_15 
REMARK       I    between atoms: N_15  and  C_16 
REMARK    5  A    between atoms: C_16  and  C_17 
REMARK    6  A    between atoms: C_19  and  O_20 
REMARK    7  A    between atoms: O_20  and  C_21 
REMARK    8  A    between atoms: C_21  and  C_22 
ROOT
HETATM    1  C   UNL     1      25.998  45.741  52.217  1.00  0.00     0.050 A 
HETATM    2  C   UNL     1      25.083  44.705  51.987  1.00  0.00     0.082 A 
HETATM    3  C   UNL     1      24.177  44.760  50.928  1.00  0.00     0.067 A 
HETATM    4  C   UNL     1      24.206  45.833  50.033  1.00  0.00     0.036 A 
HETATM    5  C   UNL     1      25.108  46.877  50.250  1.00  0.00     0.030 A 
HETATM    6  C   UNL     1      25.992  46.834  51.337  1.00  0.00     0.021 A 
ENDROOT
BRANCH   4   7
HETATM    7  N   UNL     1      23.261  45.827  48.990  1.00  0.00    -0.337 N 
HETATM    8  C   UNL     1      22.131  46.549  48.829  1.00  0.00     0.157 C 
HETATM    9  S   UNL     1      20.833  45.857  48.028  1.00  0.00    -0.047 SA
HETATM   10  H   UNL     1      23.342  45.039  48.356  1.00  0.00     0.168 HD
BRANCH   8  11
HETATM   11  N   UNL     1      22.019  47.856  49.195  1.00  0.00    -0.201 NA
HETATM   12  C   UNL     1      22.133  48.899  48.281  1.00  0.00     0.237 C 
HETATM   13  O   UNL     1      23.126  49.174  47.619  1.00  0.00    -0.274 OA
HETATM   14  H   UNL     1      21.200  47.917  49.783  1.00  0.00     0.139 HD
BRANCH  12  15
HETATM   15  C   UNL     1      20.936  49.775  48.139  1.00  0.00     0.029 A 
HETATM   16  C   UNL     1      19.764  49.368  47.483  1.00  0.00     0.053 A 
HETATM   17  C   UNL     1      18.710  50.272  47.326  1.00  0.00     0.069 A 
HETATM   18  C   UNL     1      18.816  51.559  47.860  1.00  0.00     0.037 A 
HETATM   19  C   UNL     1      19.965  51.956  48.542  1.00  0.00     0.004 A 
HETATM   20  C   UNL     1      21.025  51.065  48.680  1.00  0.00     0.017 A 
BRANCH  17  21
HETATM   21  O   UNL     1      17.531  50.028  46.681  1.00  0.00    -0.351 OA
BRANCH  21  22
HETATM   22  C   UNL     1      17.180  48.670  46.420  1.00  0.00     0.179 C 
BRANCH  22  23
HETATM   23  C   UNL     1      16.112  48.210  47.426  1.00  0.00     0.002 C 
HETATM   24  C   UNL     1      16.725  47.397  48.567  1.00  0.00     0.011 C 
HETATM   25  C   UNL     1      15.341  49.405  47.992  1.00  0.00     0.011 C 
ENDBRANCH  22  23
ENDBRANCH  21  22
ENDBRANCH  17  21
ENDBRANCH  12  15
ENDBRANCH   8  11
ENDBRANCH   4   7
BRANCH   2  26
HETATM   26  O   UNL     1      25.018  43.581  52.775  1.00  0.00    -0.360 OA
HETATM   27  H   UNL     1      25.205  43.845  53.701  1.00  0.00     0.217 HD
ENDBRANCH   2  26
BRANCH   1  28
HETATM   28  C   UNL     1      26.939  45.665  53.327  1.00  0.00     0.183 A 
HETATM   29  O   UNL     1      27.877  44.668  53.292  1.00  0.00    -0.288 OA
HETATM   30  C   UNL     1      28.605  44.859  54.433  1.00  0.00     0.112 A 
HETATM   31  C   UNL     1      28.063  45.948  55.097  1.00  0.00     0.094 A 
HETATM   32  C   UNL     1      29.693  44.110  54.879  1.00  0.00    -0.025 A 
HETATM   33  C   UNL     1      28.601  46.331  56.332  1.00  0.00     0.041 A 
HETATM   34  N   UNL     1      27.031  46.480  54.366  1.00  0.00    -0.221 NA
HETATM   35  C   UNL     1      29.678  45.594  56.853  1.00  0.00    -0.059 A 
HETATM   36  C   UNL     1      30.259  45.945  58.194  1.00  0.00     0.048 C 
HETATM   37  C   UNL     1      30.209  44.510  56.128  1.00  0.00     0.016 A 
HETATM   38  C   UNL     1      30.284  42.957  54.132  1.00  0.00     0.051 C 
ENDBRANCH   1  28
TORSDOF 8
ENDMDL
MODEL 3
REMARK VINA RESULT:      -9.8      4.655     11.103
REMARK  8 active torsions:
REMARK  status: ('A' for Active; 'I' for Inactive)
REMARK    1  A    between atoms: C_7  and  C_8 
REMARK    2  A    between atoms: C_9  and  O_10 
REMARK    3  A    between atoms: C_12  and  N_13 
REMARK    4  A    between atoms: C_14  and  N_15 
REMARK       I    between atoms: N_15  and  C_16 
REMARK    5  A    between atoms: C_16  and  C_17 
REMARK    6  A    between atoms: C_19  and  O_20 
REMARK    7  A    between atoms: O_20  and  C_21 
REMARK    8  A    between atoms: C_21  and  C_22 
ROOT
HETATM    1  C   UNL     1      21.140  50.307  48.919  1.00  0.00     0.050 A 
HETATM    2  C   UNL     1      21.446  48.967  49.199  1.00  0.00     0.082 A 
HETATM    3  C   UNL     1      22.745  48.478  49.065  1.00  0.00     0.067 A 
HETATM    4  C   UNL     1      23.786  49.336  48.703  1.00  0.00     0.036 A 
HETATM    5  C   UNL     1      23.500  50.672  48.416  1.00  0.00     0.030 A 
HETATM    6  C   UNL     1      22.186  51.151  48.517  1.00  0.00     0.021 A 
ENDROOT
BRANCH   4   7
HETATM    7  N   UNL     1      25.072  48.774  48.583  1.00  0.00    -0.337 N 
HETATM    8  C   UNL     1      25.954  48.399  49.534  1.00  0.00     0.157 C 
HETATM    9  S   UNL     1      27.594  48.536  49.218  1.00  0.00    -0.047 SA
HETATM   10  H   UNL     1      25.466  48.824  47.650  1.00  0.00     0.168 HD
BRANCH   8  11
HETATM   11  N   UNL     1      25.588  47.817  50.708  1.00  0.00    -0.201 NA
HETATM   12  C   UNL     1      25.347  46.451  50.821  1.00  0.00     0.237 C 
HETATM   13  O   UNL     1      24.471  45.822  50.241  1.00  0.00    -0.274 OA
HETATM   14  H   UNL     1      26.215  48.179  51.413  1.00  0.00     0.139 HD
BRANCH  12  15
HETATM   15  C   UNL     1      26.224  45.710  51.771  1.00  0.00     0.029 A 
HETATM   16  C   UNL     1      26.483  46.154  53.077  1.00  0.00     0.053 A 
HETATM   17  C   UNL     1      27.374  45.443  53.885  1.00  0.00     0.069 A 
HETATM   18  C   UNL     1      27.968  44.275  53.400  1.00  0.00     0.037 A 
HETATM   19  C   UNL     1      27.689  43.812  52.115  1.00  0.00     0.004 A 
HETATM   20  C   UNL     1      26.818  44.530  51.301  1.00  0.00     0.017 A 
BRANCH  17  21
HETATM   21  O   UNL     1      27.748  45.776  55.156  1.00  0.00    -0.351 OA
BRANCH  21  22
HETATM   22  C   UNL     1      28.907  46.591  55.320  1.00  0.00     0.179 C 
BRANCH  22  23
HETATM   23  C   UNL     1      29.802  46.000  56.422  1.00  0.00     0.002 C 
HETATM   24  C   UNL     1      29.067  45.917  57.760  1.00  0.00     0.011 C 
HETATM   25  C   UNL     1      30.321  44.616  56.024  1.00  0.00     0.011 C 
ENDBRANCH  22  23
ENDBRANCH  21  22
ENDBRANCH  17  21
ENDBRANCH  12  15
ENDBRANCH   8  11
ENDBRANCH   4   7
BRANCH   2  26
HETATM   26  O   UNL     1      20.502  48.061  49.618  1.00  0.00    -0.360 OA
HETATM   27  H   UNL     1      20.587  47.958  50.591  1.00  0.00     0.217 HD
ENDBRANCH   2  26
BRANCH   1  28
HETATM   28  C   UNL     1      19.778  50.802  49.067  1.00  0.00     0.183 A 
HETATM   29  O   UNL     1      18.785  50.122  48.411  1.00  0.00    -0.288 OA
HETATM   30  C   UNL     1      17.646  50.799  48.745  1.00  0.00     0.112 A 
HETATM   31  C   UNL     1      18.011  51.851  49.569  1.00  0.00     0.094 A 
HETATM   32  C   UNL     1      16.342  50.514  48.341  1.00  0.00    -0.025 A 
HETATM   33  C   UNL     1      17.026  52.739  50.021  1.00  0.00     0.041 A 
HETATM   34  N   UNL     1      19.363  51.821  49.802  1.00  0.00    -0.221 NA
HETATM   35  C   UNL     1      15.696  52.526  49.620  1.00  0.00    -0.059 A 
HETATM   36  C   UNL     1      14.614  53.477  50.047  1.00  0.00     0.048 C 
HETATM   37  C   UNL     1      15.373  51.427  48.801  1.00  0.00     0.016 A 
HETATM   38  C   UNL     1      15.964  49.354  47.477  1.00  0.00     0.051 C 
ENDBRANCH   1  28
TORSDOF 8
ENDMDL
MODEL 4
REMARK VINA RESULT:      -9.8      3.717      5.514
REMARK  8 active torsions:
REMARK  status: ('A' for Active; 'I' for Inactive)
REMARK    1  A    between atoms: C_7  and  C_8 
REMARK    2  A    between atoms: C_9  and  O_10 
REMARK    3  A    between atoms: C_12  and  N_13 
REMARK    4  A    between atoms: C_14  and  N_15 
REMARK       I    between atoms: N_15  and  C_16 
REMARK    5  A    between atoms: C_16  and  C_17 
REMARK    6  A    between atoms: C_19  and  O_20 
REMARK    7  A    between atoms: O_20  and  C_21 
REMARK    8  A    between atoms: C_21  and  C_22 
ROOT
HETATM    1  C   UNL     1      25.945  45.774  52.166  1.00  0.00     0.050 A 
HETATM    2  C   UNL     1      24.991  44.766  51.966  1.00  0.00     0.082 A 
HETATM    3  C   UNL     1      24.059  44.846  50.932  1.00  0.00     0.067 A 
HETATM    4  C   UNL     1      24.098  45.913  50.031  1.00  0.00     0.036 A 
HETATM    5  C   UNL     1      25.038  46.929  50.218  1.00  0.00     0.030 A 
HETATM    6  C   UNL     1      25.950  46.862  51.281  1.00  0.00     0.021 A 
ENDROOT
BRANCH   4   7
HETATM    7  N   UNL     1      23.125  45.932  49.013  1.00  0.00    -0.337 N 
HETATM    8  C   UNL     1      22.023  46.701  48.872  1.00  0.00     0.157 C 
HETATM    9  S   UNL     1      20.675  46.054  48.117  1.00  0.00    -0.047 SA
HETATM   10  H   UNL     1      23.154  45.132  48.390  1.00  0.00     0.168 HD
BRANCH   8  11
HETATM   11  N   UNL     1      21.978  48.016  49.219  1.00  0.00    -0.201 NA
HETATM   12  C   UNL     1      22.112  49.039  48.286  1.00  0.00     0.237 C 
HETATM   13  O   UNL     1      23.099  49.261  47.595  1.00  0.00    -0.274 OA
HETATM   14  H   UNL     1      21.178  48.122  49.827  1.00  0.00     0.139 HD
BRANCH  12  15
HETATM   15  C   UNL     1      20.951  49.965  48.161  1.00  0.00     0.029 A 
HETATM   16  C   UNL     1      19.967  49.826  47.171  1.00  0.00     0.053 A 
HETATM   17  C   UNL     1      18.947  50.777  47.072  1.00  0.00     0.069 A 
HETATM   18  C   UNL     1      18.894  51.833  47.985  1.00  0.00     0.037 A 
HETATM   19  C   UNL     1      19.851  51.956  48.991  1.00  0.00     0.004 A 
HETATM   20  C   UNL     1      20.880  51.023  49.078  1.00  0.00     0.017 A 
BRANCH  17  21
HETATM   21  O   UNL     1      17.948  50.790  46.140  1.00  0.00    -0.351 OA
BRANCH  21  22
HETATM   22  C   UNL     1      18.314  50.941  44.770  1.00  0.00     0.179 C 
BRANCH  22  23
HETATM   23  C   UNL     1      17.226  51.734  44.028  1.00  0.00     0.002 C 
HETATM   24  C   UNL     1      16.955  53.081  44.700  1.00  0.00     0.011 C 
HETATM   25  C   UNL     1      17.607  51.949  42.562  1.00  0.00     0.011 C 
ENDBRANCH  22  23
ENDBRANCH  21  22
ENDBRANCH  17  21
ENDBRANCH  12  15
ENDBRANCH   8  11
ENDBRANCH   4   7
BRANCH   2  26
HETATM   26  O   UNL     1      24.912  43.649  52.762  1.00  0.00    -0.360 OA
HETATM   27  H   UNL     1      25.009  42.858  52.190  1.00  0.00     0.217 HD
ENDBRANCH   2  26
BRANCH   1  28
HETATM   28  C   UNL     1      26.913  45.673  53.250  1.00  0.00     0.183 A 
HETATM   29  O   UNL     1      27.822  44.650  53.192  1.00  0.00    -0.288 OA
HETATM   30  C   UNL     1      28.585  44.823  54.312  1.00  0.00     0.112 A 
HETATM   31  C   UNL     1      28.092  45.926  54.989  1.00  0.00     0.094 A 
HETATM   32  C   UNL     1      29.664  44.044  54.730  1.00  0.00    -0.025 A 
HETATM   33  C   UNL     1      28.673  46.296  56.209  1.00  0.00     0.041 A 
HETATM   34  N   UNL     1      27.055  46.485  54.285  1.00  0.00    -0.221 NA
HETATM   35  C   UNL     1      29.743  45.529  56.702  1.00  0.00    -0.059 A 
HETATM   36  C   UNL     1      30.369  45.865  58.026  1.00  0.00     0.048 C 
HETATM   37  C   UNL     1      30.224  44.431  55.964  1.00  0.00     0.016 A 
HETATM   38  C   UNL     1      30.203  42.875  53.969  1.00  0.00     0.051 C 
ENDBRANCH   1  28
TORSDOF 8
ENDMDL
MODEL 5
REMARK VINA RESULT:      -9.6      3.096      4.297
REMARK  8 active torsions:
REMARK  status: ('A' for Active; 'I' for Inactive)
REMARK    1  A    between atoms: C_7  and  C_8 
REMARK    2  A    between atoms: C_9  and  O_10 
REMARK    3  A    between atoms: C_12  and  N_13 
REMARK    4  A    between atoms: C_14  and  N_15 
REMARK       I    between atoms: N_15  and  C_16 
REMARK    5  A    between atoms: C_16  and  C_17 
REMARK    6  A    between atoms: C_19  and  O_20 
REMARK    7  A    between atoms: O_20  and  C_21 
REMARK    8  A    between atoms: C_21  and  C_22 
ROOT
HETATM    1  C   UNL     1      26.992  44.456  51.923  1.00  0.00     0.050 A 
HETATM    2  C   UNL     1      25.633  44.159  52.097  1.00  0.00     0.082 A 
HETATM    3  C   UNL     1      24.728  44.261  51.041  1.00  0.00     0.067 A 
HETATM    4  C   UNL     1      25.174  44.607  49.763  1.00  0.00     0.036 A 
HETATM    5  C   UNL     1      26.524  44.911  49.572  1.00  0.00     0.030 A 
HETATM    6  C   UNL     1      27.423  44.842  50.645  1.00  0.00     0.021 A 
ENDROOT
BRANCH   4   7
HETATM    7  N   UNL     1      24.206  44.695  48.745  1.00  0.00    -0.337 N 
HETATM    8  C   UNL     1      22.968  45.234  48.760  1.00  0.00     0.157 C 
HETATM    9  S   UNL     1      21.773  44.549  47.807  1.00  0.00    -0.047 SA
HETATM   10  H   UNL     1      24.392  44.109  47.937  1.00  0.00     0.168 HD
BRANCH   8  11
HETATM   11  N   UNL     1      22.656  46.374  49.434  1.00  0.00    -0.201 NA
HETATM   12  C   UNL     1      23.148  47.621  49.059  1.00  0.00     0.237 C 
HETATM   13  O   UNL     1      24.325  47.958  49.043  1.00  0.00    -0.274 OA
HETATM   14  H   UNL     1      21.656  46.357  49.575  1.00  0.00     0.139 HD
BRANCH  12  15
HETATM   15  C   UNL     1      22.126  48.639  48.684  1.00  0.00     0.029 A 
HETATM   16  C   UNL     1      20.827  48.303  48.273  1.00  0.00     0.053 A 
HETATM   17  C   UNL     1      19.948  49.310  47.867  1.00  0.00     0.069 A 
HETATM   18  C   UNL     1      20.357  50.646  47.912  1.00  0.00     0.037 A 
HETATM   19  C   UNL     1      21.636  50.987  48.351  1.00  0.00     0.004 A 
HETATM   20  C   UNL     1      22.520  49.984  48.736  1.00  0.00     0.017 A 
BRANCH  17  21
HETATM   21  O   UNL     1      18.673  49.130  47.410  1.00  0.00    -0.351 OA
BRANCH  21  22
HETATM   22  C   UNL     1      17.609  49.725  48.149  1.00  0.00     0.179 C 
BRANCH  22  23
HETATM   23  C   UNL     1      16.511  48.680  48.406  1.00  0.00     0.002 C 
HETATM   24  C   UNL     1      15.281  48.929  47.533  1.00  0.00     0.011 C 
HETATM   25  C   UNL     1      17.037  47.262  48.173  1.00  0.00     0.011 C 
ENDBRANCH  22  23
ENDBRANCH  21  22
ENDBRANCH  17  21
ENDBRANCH  12  15
ENDBRANCH   8  11
ENDBRANCH   4   7
BRANCH   2  26
HETATM   26  O   UNL     1      25.109  43.753  53.300  1.00  0.00    -0.360 OA
HETATM   27  H   UNL     1      25.432  42.845  53.485  1.00  0.00     0.217 HD
ENDBRANCH   2  26
BRANCH   1  28
HETATM   28  C   UNL     1      27.923  44.342  53.037  1.00  0.00     0.183 A 
HETATM   29  O   UNL     1      27.807  45.255  54.053  1.00  0.00    -0.288 OA
HETATM   30  C   UNL     1      28.784  44.891  54.936  1.00  0.00     0.112 A 
HETATM   31  C   UNL     1      29.441  43.792  54.405  1.00  0.00     0.094 A 
HETATM   32  C   UNL     1      29.094  45.497  56.153  1.00  0.00    -0.025 A 
HETATM   33  C   UNL     1      30.528  43.245  55.099  1.00  0.00     0.041 A 
HETATM   34  N   UNL     1      28.860  43.425  53.217  1.00  0.00    -0.221 NA
HETATM   35  C   UNL     1      30.912  43.833  56.316  1.00  0.00    -0.059 A 
HETATM   36  C   UNL     1      32.097  43.304  57.072  1.00  0.00     0.048 C 
HETATM   37  C   UNL     1      30.196  44.934  56.826  1.00  0.00     0.016 A 
HETATM   38  C   UNL     1      28.353  46.663  56.725  1.00  0.00     0.051 C 
ENDBRANCH   1  28
TORSDOF 8
ENDMDL
MODEL 6
REMARK VINA RESULT:      -9.5      3.076      3.872
REMARK  8 active torsions:
REMARK  status: ('A' for Active; 'I' for Inactive)
REMARK    1  A    between atoms: C_7  and  C_8 
REMARK    2  A    between atoms: C_9  and  O_10 
REMARK    3  A    between atoms: C_12  and  N_13 
REMARK    4  A    between atoms: C_14  and  N_15 
REMARK       I    between atoms: N_15  and  C_16 
REMARK    5  A    between atoms: C_16  and  C_17 
REMARK    6  A    between atoms: C_19  and  O_20 
REMARK    7  A    between atoms: O_20  and  C_21 
REMARK    8  A    between atoms: C_21  and  C_22 
ROOT
HETATM    1  C   UNL     1      26.836  44.170  51.410  1.00  0.00     0.050 A 
HETATM    2  C   UNL     1      26.115  43.026  51.039  1.00  0.00     0.082 A 
HETATM    3  C   UNL     1      25.234  43.045  49.958  1.00  0.00     0.067 A 
HETATM    4  C   UNL     1      25.097  44.200  49.182  1.00  0.00     0.036 A 
HETATM    5  C   UNL     1      25.804  45.349  49.541  1.00  0.00     0.030 A 
HETATM    6  C   UNL     1      26.662  45.335  50.650  1.00  0.00     0.021 A 
ENDROOT
BRANCH   4   7
HETATM    7  N   UNL     1      24.187  44.150  48.109  1.00  0.00    -0.337 N 
HETATM    8  C   UNL     1      22.837  44.184  48.106  1.00  0.00     0.157 C 
HETATM    9  S   UNL     1      22.007  43.338  46.922  1.00  0.00    -0.047 SA
HETATM   10  H   UNL     1      24.596  43.864  47.226  1.00  0.00     0.168 HD
BRANCH   8  11
HETATM   11  N   UNL     1      22.105  44.956  48.956  1.00  0.00    -0.201 NA
HETATM   12  C   UNL     1      21.935  46.324  48.762  1.00  0.00     0.237 C 
HETATM   13  O   UNL     1      22.821  47.169  48.765  1.00  0.00    -0.274 OA
HETATM   14  H   UNL     1      21.242  44.458  49.120  1.00  0.00     0.139 HD
BRANCH  12  15
HETATM   15  C   UNL     1      20.531  46.786  48.576  1.00  0.00     0.029 A 
HETATM   16  C   UNL     1      20.125  48.110  48.805  1.00  0.00     0.053 A 
HETATM   17  C   UNL     1      18.776  48.451  48.680  1.00  0.00     0.069 A 
HETATM   18  C   UNL     1      17.850  47.480  48.289  1.00  0.00     0.037 A 
HETATM   19  C   UNL     1      18.253  46.172  48.028  1.00  0.00     0.004 A 
HETATM   20  C   UNL     1      19.593  45.824  48.173  1.00  0.00     0.017 A 
BRANCH  17  21
HETATM   21  O   UNL     1      18.234  49.684  48.906  1.00  0.00    -0.351 OA
BRANCH  21  22
HETATM   22  C   UNL     1      18.586  50.358  50.113  1.00  0.00     0.179 C 
BRANCH  22  23
HETATM   23  C   UNL     1      18.776  51.857  49.831  1.00  0.00     0.002 C 
HETATM   24  C   UNL     1      19.612  52.092  48.572  1.00  0.00     0.011 C 
HETATM   25  C   UNL     1      17.426  52.567  49.701  1.00  0.00     0.011 C 
ENDBRANCH  22  23
ENDBRANCH  21  22
ENDBRANCH  17  21
ENDBRANCH  12  15
ENDBRANCH   8  11
ENDBRANCH   4   7
BRANCH   2  26
HETATM   26  O   UNL     1      26.227  41.828  51.702  1.00  0.00    -0.360 OA
HETATM   27  H   UNL     1      26.999  41.882  52.305  1.00  0.00     0.217 HD
ENDBRANCH   2  26
BRANCH   1  28
HETATM   28  C   UNL     1      27.754  44.131  52.541  1.00  0.00     0.183 A 
HETATM   29  O   UNL     1      27.641  45.121  53.481  1.00  0.00    -0.288 OA
HETATM   30  C   UNL     1      28.603  44.814  54.402  1.00  0.00     0.112 A 
HETATM   31  C   UNL     1      29.250  43.669  53.965  1.00  0.00     0.094 A 
HETATM   32  C   UNL     1      28.908  45.509  55.571  1.00  0.00    -0.025 A 
HETATM   33  C   UNL     1      30.322  43.163  54.712  1.00  0.00     0.041 A 
HETATM   34  N   UNL     1      28.676  43.218  52.803  1.00  0.00    -0.221 NA
HETATM   35  C   UNL     1      30.701  43.839  55.884  1.00  0.00    -0.059 A 
HETATM   36  C   UNL     1      31.871  43.355  56.693  1.00  0.00     0.048 C 
HETATM   37  C   UNL     1      29.996  44.986  56.298  1.00  0.00     0.016 A 
HETATM   38  C   UNL     1      28.178  46.726  56.042  1.00  0.00     0.051 C 
ENDBRANCH   1  28
TORSDOF 8
ENDMDL
MODEL 7
REMARK VINA RESULT:      -9.2      4.023      5.872
REMARK  8 active torsions:
REMARK  status: ('A' for Active; 'I' for Inactive)
REMARK    1  A    between atoms: C_7  and  C_8 
REMARK    2  A    between atoms: C_9  and  O_10 
REMARK    3  A    between atoms: C_12  and  N_13 
REMARK    4  A    between atoms: C_14  and  N_15 
REMARK       I    between atoms: N_15  and  C_16 
REMARK    5  A    between atoms: C_16  and  C_17 
REMARK    6  A    between atoms: C_19  and  O_20 
REMARK    7  A    between atoms: O_20  and  C_21 
REMARK    8  A    between atoms: C_21  and  C_22 
ROOT
HETATM    1  C   UNL     1      25.470  45.331  51.224  1.00  0.00     0.050 A 
HETATM    2  C   UNL     1      25.289  46.610  50.679  1.00  0.00     0.082 A 
HETATM    3  C   UNL     1      24.318  46.852  49.708  1.00  0.00     0.067 A 
HETATM    4  C   UNL     1      23.461  45.826  49.299  1.00  0.00     0.036 A 
HETATM    5  C   UNL     1      23.631  44.545  49.828  1.00  0.00     0.030 A 
HETATM    6  C   UNL     1      24.632  44.299  50.778  1.00  0.00     0.021 A 
ENDROOT
BRANCH   4   7
HETATM    7  N   UNL     1      22.507  46.139  48.312  1.00  0.00    -0.337 N 
HETATM    8  C   UNL     1      21.308  46.751  48.419  1.00  0.00     0.157 C 
HETATM    9  S   UNL     1      20.076  46.308  47.374  1.00  0.00    -0.047 SA
HETATM   10  H   UNL     1      22.658  45.678  47.421  1.00  0.00     0.168 HD
BRANCH   8  11
HETATM   11  N   UNL     1      21.068  47.788  49.267  1.00  0.00    -0.201 NA
HETATM   12  C   UNL     1      21.418  49.099  48.960  1.00  0.00     0.237 C 
HETATM   13  O   UNL     1      22.554  49.519  48.774  1.00  0.00    -0.274 OA
HETATM   14  H   UNL     1      20.114  47.684  49.581  1.00  0.00     0.139 HD
BRANCH  12  15
HETATM   15  C   UNL     1      20.294  50.076  48.895  1.00  0.00     0.029 A 
HETATM   16  C   UNL     1      18.953  49.711  49.083  1.00  0.00     0.053 A 
HETATM   17  C   UNL     1      17.948  50.671  48.935  1.00  0.00     0.069 A 
HETATM   18  C   UNL     1      18.291  51.993  48.640  1.00  0.00     0.037 A 
HETATM   19  C   UNL     1      19.625  52.367  48.484  1.00  0.00     0.004 A 
HETATM   20  C   UNL     1      20.626  51.408  48.610  1.00  0.00     0.017 A 
BRANCH  17  21
HETATM   21  O   UNL     1      16.604  50.453  49.052  1.00  0.00    -0.351 OA
BRANCH  21  22
HETATM   22  C   UNL     1      15.750  50.997  48.047  1.00  0.00     0.179 C 
BRANCH  22  23
HETATM   23  C   UNL     1      15.713  50.051  46.834  1.00  0.00     0.002 C 
HETATM   24  C   UNL     1      15.185  48.668  47.215  1.00  0.00     0.011 C 
HETATM   25  C   UNL     1      14.866  50.641  45.704  1.00  0.00     0.011 C 
ENDBRANCH  22  23
ENDBRANCH  21  22
ENDBRANCH  17  21
ENDBRANCH  12  15
ENDBRANCH   8  11
ENDBRANCH   4   7
BRANCH   2  26
HETATM   26  O   UNL     1      26.040  47.695  51.060  1.00  0.00    -0.360 OA
HETATM   27  H   UNL     1      26.909  47.641  50.606  1.00  0.00     0.217 HD
ENDBRANCH   2  26
BRANCH   1  28
HETATM   28  C   UNL     1      26.488  45.098  52.240  1.00  0.00     0.183 A 
HETATM   29  O   UNL     1      26.607  46.027  53.240  1.00  0.00    -0.288 OA
HETATM   30  C   UNL     1      27.611  45.537  54.028  1.00  0.00     0.112 A 
HETATM   31  C   UNL     1      28.049  44.352  53.459  1.00  0.00     0.094 A 
HETATM   32  C   UNL     1      28.127  46.105  55.192  1.00  0.00    -0.025 A 
HETATM   33  C   UNL     1      29.115  43.663  54.051  1.00  0.00     0.041 A 
HETATM   34  N   UNL     1      27.302  44.059  52.346  1.00  0.00    -0.221 NA
HETATM   35  C   UNL     1      29.702  44.203  55.209  1.00  0.00    -0.059 A 
HETATM   36  C   UNL     1      30.875  43.519  55.853  1.00  0.00     0.048 C 
HETATM   37  C   UNL     1      29.204  45.398  55.762  1.00  0.00     0.016 A 
HETATM   38  C   UNL     1      27.619  47.369  55.808  1.00  0.00     0.051 C 
ENDBRANCH   1  28
TORSDOF 8
ENDMDL
MODEL 8
REMARK VINA RESULT:      -9.1      2.476      3.823
REMARK  8 active torsions:
REMARK  status: ('A' for Active; 'I' for Inactive)
REMARK    1  A    between atoms: C_7  and  C_8 
REMARK    2  A    between atoms: C_9  and  O_10 
REMARK    3  A    between atoms: C_12  and  N_13 
REMARK    4  A    between atoms: C_14  and  N_15 
REMARK       I    between atoms: N_15  and  C_16 
REMARK    5  A    between atoms: C_16  and  C_17 
REMARK    6  A    between atoms: C_19  and  O_20 
REMARK    7  A    between atoms: O_20  and  C_21 
REMARK    8  A    between atoms: C_21  and  C_22 
ROOT
HETATM    1  C   UNL     1      25.015  44.063  50.641  1.00  0.00     0.050 A 
HETATM    2  C   UNL     1      25.449  43.690  49.361  1.00  0.00     0.082 A 
HETATM    3  C   UNL     1      24.544  43.482  48.321  1.00  0.00     0.067 A 
HETATM    4  C   UNL     1      23.179  43.703  48.522  1.00  0.00     0.036 A 
HETATM    5  C   UNL     1      22.728  44.070  49.792  1.00  0.00     0.030 A 
HETATM    6  C   UNL     1      23.639  44.242  50.844  1.00  0.00     0.021 A 
ENDROOT
BRANCH   4   7
HETATM    7  N   UNL     1      22.321  43.470  47.430  1.00  0.00    -0.337 N 
HETATM    8  C   UNL     1      21.537  44.324  46.737  1.00  0.00     0.157 C 
HETATM    9  S   UNL     1      20.096  43.762  46.095  1.00  0.00    -0.047 SA
HETATM   10  H   UNL     1      22.124  42.491  47.253  1.00  0.00     0.168 HD
BRANCH   8  11
HETATM   11  N   UNL     1      21.901  45.601  46.440  1.00  0.00    -0.201 NA
HETATM   12  C   UNL     1      21.079  46.692  46.706  1.00  0.00     0.237 C 
HETATM   13  O   UNL     1      19.974  46.899  46.221  1.00  0.00    -0.274 OA
HETATM   14  H   UNL     1      22.847  45.713  46.775  1.00  0.00     0.139 HD
BRANCH  12  15
HETATM   15  C   UNL     1      21.632  47.712  47.641  1.00  0.00     0.029 A 
HETATM   16  C   UNL     1      22.796  47.506  48.397  1.00  0.00     0.053 A 
HETATM   17  C   UNL     1      23.212  48.481  49.306  1.00  0.00     0.069 A 
HETATM   18  C   UNL     1      22.488  49.670  49.426  1.00  0.00     0.037 A 
HETATM   19  C   UNL     1      21.350  49.894  48.654  1.00  0.00     0.004 A 
HETATM   20  C   UNL     1      20.921  48.915  47.762  1.00  0.00     0.017 A 
BRANCH  17  21
HETATM   21  O   UNL     1      24.299  48.401  50.131  1.00  0.00    -0.351 OA
BRANCH  21  22
HETATM   22  C   UNL     1      25.540  47.988  49.561  1.00  0.00     0.179 C 
BRANCH  22  23
HETATM   23  C   UNL     1      26.392  49.224  49.228  1.00  0.00     0.002 C 
HETATM   24  C   UNL     1      27.878  48.875  49.137  1.00  0.00     0.011 C 
HETATM   25  C   UNL     1      25.928  49.874  47.922  1.00  0.00     0.011 C 
ENDBRANCH  22  23
ENDBRANCH  21  22
ENDBRANCH  17  21
ENDBRANCH  12  15
ENDBRANCH   8  11
ENDBRANCH   4   7
BRANCH   2  26
HETATM   26  O   UNL     1      26.775  43.508  49.049  1.00  0.00    -0.360 OA
HETATM   27  H   UNL     1      27.214  43.079  49.815  1.00  0.00     0.217 HD
ENDBRANCH   2  26
BRANCH   1  28
HETATM   28  C   UNL     1      25.975  44.278  51.715  1.00  0.00     0.183 A 
HETATM   29  O   UNL     1      25.867  45.438  52.436  1.00  0.00    -0.288 OA
HETATM   30  C   UNL     1      26.872  45.349  53.358  1.00  0.00     0.112 A 
HETATM   31  C   UNL     1      27.536  44.152  53.139  1.00  0.00     0.094 A 
HETATM   32  C   UNL     1      27.200  46.277  54.346  1.00  0.00    -0.025 A 
HETATM   33  C   UNL     1      28.649  43.834  53.927  1.00  0.00     0.041 A 
HETATM   34  N   UNL     1      26.933  43.459  52.120  1.00  0.00    -0.221 NA
HETATM   35  C   UNL     1      29.051  44.746  54.918  1.00  0.00    -0.059 A 
HETATM   36  C   UNL     1      30.265  44.464  55.759  1.00  0.00     0.048 C 
HETATM   37  C   UNL     1      28.329  45.937  55.118  1.00  0.00     0.016 A 
HETATM   38  C   UNL     1      26.452  47.548  54.587  1.00  0.00     0.051 C 
ENDBRANCH   1  28
TORSDOF 8
ENDMDL
MODEL 9
REMARK VINA RESULT:      -8.8     12.158     15.554
REMARK  8 active torsions:
REMARK  status: ('A' for Active; 'I' for Inactive)
REMARK    1  A    between atoms: C_7  and  C_8 
REMARK    2  A    between atoms: C_9  and  O_10 
REMARK    3  A    between atoms: C_12  and  N_13 
REMARK    4  A    between atoms: C_14  and  N_15 
REMARK       I    between atoms: N_15  and  C_16 
REMARK    5  A    between atoms: C_16  and  C_17 
REMARK    6  A    between atoms: C_19  and  O_20 
REMARK    7  A    between atoms: O_20  and  C_21 
REMARK    8  A    between atoms: C_21  and  C_22 
ROOT
HETATM    1  C   UNL     1      32.026  52.386  39.285  1.00  0.00     0.050 A 
HETATM    2  C   UNL     1      31.411  51.670  38.248  1.00  0.00     0.082 A 
HETATM    3  C   UNL     1      30.043  51.403  38.265  1.00  0.00     0.067 A 
HETATM    4  C   UNL     1      29.242  51.900  39.297  1.00  0.00     0.036 A 
HETATM    5  C   UNL     1      29.838  52.610  40.340  1.00  0.00     0.030 A 
HETATM    6  C   UNL     1      31.221  52.846  40.337  1.00  0.00     0.021 A 
ENDROOT
BRANCH   4   7
HETATM    7  N   UNL     1      27.869  51.588  39.254  1.00  0.00    -0.337 N 
HETATM    8  C   UNL     1      27.238  50.401  39.382  1.00  0.00     0.157 C 
HETATM    9  S   UNL     1      25.817  50.142  38.534  1.00  0.00    -0.047 SA
HETATM   10  H   UNL     1      27.282  52.332  38.893  1.00  0.00     0.168 HD
BRANCH   8  11
HETATM   11  N   UNL     1      27.639  49.430  40.247  1.00  0.00    -0.201 NA
HETATM   12  C   UNL     1      28.473  48.385  39.862  1.00  0.00     0.237 C 
HETATM   13  O   UNL     1      28.218  47.528  39.025  1.00  0.00    -0.274 OA
HETATM   14  H   UNL     1      27.941  49.903  41.087  1.00  0.00     0.139 HD
BRANCH  12  15
HETATM   15  C   UNL     1      29.778  48.296  40.576  1.00  0.00     0.029 A 
HETATM   16  C   UNL     1      30.089  49.074  41.702  1.00  0.00     0.053 A 
HETATM   17  C   UNL     1      31.361  48.986  42.273  1.00  0.00     0.069 A 
HETATM   18  C   UNL     1      32.299  48.096  41.743  1.00  0.00     0.037 A 
HETATM   19  C   UNL     1      31.984  47.298  40.644  1.00  0.00     0.004 A 
HETATM   20  C   UNL     1      30.724  47.398  40.060  1.00  0.00     0.017 A 
BRANCH  17  21
HETATM   21  O   UNL     1      31.814  49.706  43.343  1.00  0.00    -0.351 OA
BRANCH  21  22
HETATM   22  C   UNL     1      31.609  51.118  43.333  1.00  0.00     0.179 C 
BRANCH  22  23
HETATM   23  C   UNL     1      32.965  51.837  43.416  1.00  0.00     0.002 C 
HETATM   24  C   UNL     1      33.404  52.045  44.866  1.00  0.00     0.011 C 
HETATM   25  C   UNL     1      34.043  51.065  42.651  1.00  0.00     0.011 C 
ENDBRANCH  22  23
ENDBRANCH  21  22
ENDBRANCH  17  21
ENDBRANCH  12  15
ENDBRANCH   8  11
ENDBRANCH   4   7
BRANCH   2  26
HETATM   26  O   UNL     1      32.103  51.193  37.161  1.00  0.00    -0.360 OA
HETATM   27  H   UNL     1      32.230  51.933  36.529  1.00  0.00     0.217 HD
ENDBRANCH   2  26
BRANCH   1  28
HETATM   28  C   UNL     1      33.457  52.659  39.249  1.00  0.00     0.183 A 
HETATM   29  O   UNL     1      33.856  53.961  39.402  1.00  0.00    -0.288 OA
HETATM   30  C   UNL     1      35.220  53.898  39.339  1.00  0.00     0.112 A 
HETATM   31  C   UNL     1      35.568  52.572  39.141  1.00  0.00     0.094 A 
HETATM   32  C   UNL     1      36.122  54.956  39.443  1.00  0.00    -0.025 A 
HETATM   33  C   UNL     1      36.920  52.235  38.993  1.00  0.00     0.041 A 
HETATM   34  N   UNL     1      34.444  51.785  39.127  1.00  0.00    -0.221 NA
HETATM   35  C   UNL     1      37.877  53.263  39.054  1.00  0.00    -0.059 A 
HETATM   36  C   UNL     1      39.335  52.953  38.859  1.00  0.00     0.048 C 
HETATM   37  C   UNL     1      37.473  54.592  39.281  1.00  0.00     0.016 A 
HETATM   38  C   UNL     1      35.727  56.377  39.688  1.00  0.00     0.051 C 
ENDBRANCH   1  28
TORSDOF 8
ENDMDL
MODEL 10
REMARK VINA RESULT:      -8.7      3.801      5.166
REMARK  8 active torsions:
REMARK  status: ('A' for Active; 'I' for Inactive)
REMARK    1  A    between atoms: C_7  and  C_8 
REMARK    2  A    between atoms: C_9  and  O_10 
REMARK    3  A    between atoms: C_12  and  N_13 
REMARK    4  A    between atoms: C_14  and  N_15 
REMARK       I    between atoms: N_15  and  C_16 
REMARK    5  A    between atoms: C_16  and  C_17 
REMARK    6  A    between atoms: C_19  and  O_20 
REMARK    7  A    between atoms: O_20  and  C_21 
REMARK    8  A    between atoms: C_21  and  C_22 
ROOT
HETATM    1  C   UNL     1      25.872  44.981  51.530  1.00  0.00     0.050 A 
HETATM    2  C   UNL     1      25.589  46.109  50.747  1.00  0.00     0.082 A 
HETATM    3  C   UNL     1      24.742  46.029  49.642  1.00  0.00     0.067 A 
HETATM    4  C   UNL     1      24.108  44.824  49.327  1.00  0.00     0.036 A 
HETATM    5  C   UNL     1      24.382  43.690  50.093  1.00  0.00     0.030 A 
HETATM    6  C   UNL     1      25.263  43.767  51.182  1.00  0.00     0.021 A 
ENDROOT
BRANCH   4   7
HETATM    7  N   UNL     1      23.270  44.814  48.196  1.00  0.00    -0.337 N 
HETATM    8  C   UNL     1      21.926  44.908  48.103  1.00  0.00     0.157 C 
HETATM    9  S   UNL     1      21.140  44.099  46.864  1.00  0.00    -0.047 SA
HETATM   10  H   UNL     1      23.723  44.511  47.341  1.00  0.00     0.168 HD
BRANCH   8  11
HETATM   11  N   UNL     1      21.174  45.710  48.905  1.00  0.00    -0.201 NA
HETATM   12  C   UNL     1      20.980  47.062  48.637  1.00  0.00     0.237 C 
HETATM   13  O   UNL     1      21.851  47.923  48.600  1.00  0.00    -0.274 OA
HETATM   14  H   UNL     1      20.319  45.206  49.090  1.00  0.00     0.139 HD
BRANCH  12  15
HETATM   15  C   UNL     1      19.569  47.488  48.416  1.00  0.00     0.029 A 
HETATM   16  C   UNL     1      19.209  48.808  48.107  1.00  0.00     0.053 A 
HETATM   17  C   UNL     1      17.858  49.146  47.986  1.00  0.00     0.069 A 
HETATM   18  C   UNL     1      16.881  48.158  48.136  1.00  0.00     0.037 A 
HETATM   19  C   UNL     1      17.237  46.838  48.411  1.00  0.00     0.004 A 
HETATM   20  C   UNL     1      18.580  46.504  48.552  1.00  0.00     0.017 A 
BRANCH  17  21
HETATM   21  O   UNL     1      17.361  50.391  47.726  1.00  0.00    -0.351 OA
BRANCH  21  22
HETATM   22  C   UNL     1      16.494  50.980  48.694  1.00  0.00     0.179 C 
BRANCH  22  23
HETATM   23  C   UNL     1      17.287  51.971  49.562  1.00  0.00     0.002 C 
HETATM   24  C   UNL     1      18.463  52.575  48.795  1.00  0.00     0.011 C 
HETATM   25  C   UNL     1      16.381  53.085  50.091  1.00  0.00     0.011 C 
ENDBRANCH  22  23
ENDBRANCH  21  22
ENDBRANCH  17  21
ENDBRANCH  12  15
ENDBRANCH   8  11
ENDBRANCH   4   7
BRANCH   2  26
HETATM   26  O   UNL     1      26.116  47.349  51.012  1.00  0.00    -0.360 OA
HETATM   27  H   UNL     1      27.039  47.368  50.679  1.00  0.00     0.217 HD
ENDBRANCH   2  26
BRANCH   1  28
HETATM   28  C   UNL     1      26.757  45.084  52.683  1.00  0.00     0.183 A 
HETATM   29  O   UNL     1      27.799  44.197  52.760  1.00  0.00    -0.288 OA
HETATM   30  C   UNL     1      28.442  44.543  53.915  1.00  0.00     0.112 A 
HETATM   31  C   UNL     1      27.753  45.605  54.476  1.00  0.00     0.094 A 
HETATM   32  C   UNL     1      29.581  43.950  54.460  1.00  0.00    -0.025 A 
HETATM   33  C   UNL     1      28.182  46.127  55.703  1.00  0.00     0.041 A 
HETATM   34  N   UNL     1      26.707  45.970  53.665  1.00  0.00    -0.221 NA
HETATM   35  C   UNL     1      29.304  45.550  56.321  1.00  0.00    -0.059 A 
HETATM   36  C   UNL     1      29.774  46.051  57.658  1.00  0.00     0.048 C 
HETATM   37  C   UNL     1      29.986  44.487  55.698  1.00  0.00     0.016 A 
HETATM   38  C   UNL     1      30.330  42.824  53.823  1.00  0.00     0.051 C 
ENDBRANCH   1  28
TORSDOF 8
ENDMDL
