MODEL 1
REMARK VINA RESULT:     -10.0      0.000      0.000
REMARK  3 active torsions:
REMARK  status: ('A' for Active; 'I' for Inactive)
REMARK    1  A    between atoms: N_7  and  N_8 
REMARK       I    between atoms: N_8  and  C_9 
REMARK    2  A    between atoms: C_9  and  C_10 
REMARK    3  A    between atoms: C_14  and  C_15 
ROOT
HETATM    1  N   UNL     1      26.277  45.009  51.910  1.00  0.00    -0.241 N 
HETATM    2  C   UNL     1      26.330  45.262  50.550  1.00  0.00     0.289 C 
HETATM    3  O   UNL     1      27.265  44.939  49.820  1.00  0.00    -0.264 OA
HETATM    4  H   UNL     1      25.478  45.320  52.459  1.00  0.00     0.192 HD
ENDROOT
BRANCH   2   5
HETATM    5  C   UNL     1      25.184  45.964  50.027  1.00  0.00     0.121 A 
HETATM    6  N   UNL     1      24.263  45.335  49.239  1.00  0.00    -0.272 N 
HETATM    7  H   UNL     1      24.274  44.360  48.954  1.00  0.00     0.189 HD
HETATM    8  N   UNL     1      23.270  46.129  48.811  1.00  0.00    -0.174 NA
HETATM    9  C   UNL     1      23.532  47.327  49.358  1.00  0.00     0.089 A 
HETATM   10  C   UNL     1      24.729  47.264  50.128  1.00  0.00     0.071 A 
BRANCH   9  11
HETATM   11  C   UNL     1      22.662  48.484  49.128  1.00  0.00    -0.006 A 
HETATM   12  C   UNL     1      21.296  48.321  48.851  1.00  0.00     0.015 A 
HETATM   13  C   UNL     1      20.473  49.435  48.641  1.00  0.00     0.024 A 
HETATM   14  C   UNL     1      21.011  50.717  48.706  1.00  0.00     0.034 A 
HETATM   15 CL   UNL     1      19.997  52.083  48.451  1.00  0.00    -0.084 Cl
HETATM   16  C   UNL     1      22.365  50.899  48.975  1.00  0.00     0.024 A 
HETATM   17  C   UNL     1      23.185  49.787  49.183  1.00  0.00     0.015 A 
ENDBRANCH   9  11
ENDBRANCH   2   5
BRANCH   1  18
HETATM   18  N   UNL     1      27.308  44.377  52.550  1.00  0.00    -0.165 NA
HETATM   19  C   UNL     1      27.786  44.975  53.594  1.00  0.00     0.157 A 
HETATM   20  C   UNL     1      28.884  44.497  54.424  1.00  0.00     0.027 A 
HETATM   21  C   UNL     1      27.346  46.307  54.209  1.00  0.00     0.277 A 
HETATM   22  C   UNL     1      29.653  43.355  54.333  1.00  0.00     0.016 A 
HETATM   23  C   UNL     1      29.072  45.451  55.424  1.00  0.00     0.048 A 
HETATM   24  C   UNL     1      30.647  43.186  55.299  1.00  0.00     0.001 A 
HETATM   25  C   UNL     1      30.844  44.147  56.313  1.00  0.00     0.002 A 
HETATM   26  C   UNL     1      30.049  45.299  56.383  1.00  0.00     0.030 A 
HETATM   27  N   UNL     1      28.171  46.506  55.294  1.00  0.00    -0.321 N 
HETATM   28  H   UNL     1      28.114  47.313  55.898  1.00  0.00     0.169 HD
HETATM   29  O   UNL     1      26.446  47.001  53.782  1.00  0.00    -0.266 OA
ENDBRANCH   1  18
TORSDOF 3
ENDMDL
MODEL 2
REMARK VINA RESULT:      -9.7      3.779      9.455
REMARK  3 active torsions:
REMARK  status: ('A' for Active; 'I' for Inactive)
REMARK    1  A    between atoms: N_7  and  N_8 
REMARK       I    between atoms: N_8  and  C_9 
REMARK    2  A    between atoms: C_9  and  C_10 
REMARK    3  A    between atoms: C_14  and  C_15 
ROOT
HETATM    1  N   UNL     1      25.084  46.068  50.803  1.00  0.00    -0.241 N 
HETATM    2  C   UNL     1      25.075  44.842  51.444  1.00  0.00     0.289 C 
HETATM    3  O   UNL     1      24.113  44.078  51.466  1.00  0.00    -0.264 OA
HETATM    4  H   UNL     1      25.912  46.661  50.838  1.00  0.00     0.192 HD
ENDROOT
BRANCH   2   5
HETATM    5  C   UNL     1      26.305  44.511  52.120  1.00  0.00     0.121 A 
HETATM    6  N   UNL     1      27.231  43.684  51.550  1.00  0.00    -0.272 N 
HETATM    7  H   UNL     1      27.166  43.241  50.638  1.00  0.00     0.189 HD
HETATM    8  N   UNL     1      28.309  43.454  52.313  1.00  0.00    -0.174 NA
HETATM    9  C   UNL     1      28.100  44.177  53.425  1.00  0.00     0.089 A 
HETATM   10  C   UNL     1      26.849  44.854  53.342  1.00  0.00     0.071 A 
BRANCH   9  11
HETATM   11  C   UNL     1      29.069  44.195  54.525  1.00  0.00    -0.006 A 
HETATM   12  C   UNL     1      29.971  43.137  54.714  1.00  0.00     0.015 A 
HETATM   13  C   UNL     1      30.897  43.169  55.764  1.00  0.00     0.024 A 
HETATM   14  C   UNL     1      30.927  44.258  56.630  1.00  0.00     0.034 A 
HETATM   15 CL   UNL     1      32.068  44.296  57.917  1.00  0.00    -0.084 Cl
HETATM   16  C   UNL     1      30.037  45.316  56.462  1.00  0.00     0.024 A 
HETATM   17  C   UNL     1      29.112  45.281  55.415  1.00  0.00     0.015 A 
ENDBRANCH   9  11
ENDBRANCH   2   5
BRANCH   1  18
HETATM   18  N   UNL     1      23.976  46.528  50.145  1.00  0.00    -0.165 NA
HETATM   19  C   UNL     1      24.094  47.676  49.558  1.00  0.00     0.157 A 
HETATM   20  C   UNL     1      23.051  48.363  48.809  1.00  0.00     0.027 A 
HETATM   21  C   UNL     1      25.320  48.593  49.504  1.00  0.00     0.277 A 
HETATM   22  C   UNL     1      21.748  48.000  48.536  1.00  0.00     0.016 A 
HETATM   23  C   UNL     1      23.605  49.563  48.363  1.00  0.00     0.048 A 
HETATM   24  C   UNL     1      20.988  48.897  47.780  1.00  0.00     0.001 A 
HETATM   25  C   UNL     1      21.543  50.113  47.326  1.00  0.00     0.002 A 
HETATM   26  C   UNL     1      22.869  50.458  47.617  1.00  0.00     0.030 A 
HETATM   27  N   UNL     1      24.931  49.692  48.772  1.00  0.00    -0.321 N 
HETATM   28  H   UNL     1      25.538  50.473  48.571  1.00  0.00     0.169 HD
HETATM   29  O   UNL     1      26.390  48.346  50.022  1.00  0.00    -0.266 OA
ENDBRANCH   1  18
TORSDOF 3
ENDMDL
MODEL 3
REMARK VINA RESULT:      -9.5      1.385      1.795
REMARK  3 active torsions:
REMARK  status: ('A' for Active; 'I' for Inactive)
REMARK    1  A    between atoms: N_7  and  N_8 
REMARK       I    between atoms: N_8  and  C_9 
REMARK    2  A    between atoms: C_9  and  C_10 
REMARK    3  A    between atoms: C_14  and  C_15 
ROOT
HETATM    1  N   UNL     1      27.643  44.591  52.510  1.00  0.00    -0.241 N 
HETATM    2  C   UNL     1      26.767  43.762  51.830  1.00  0.00     0.289 C 
HETATM    3  O   UNL     1      26.741  42.539  51.944  1.00  0.00    -0.264 OA
HETATM    4  H   UNL     1      27.622  45.598  52.356  1.00  0.00     0.192 HD
ENDROOT
BRANCH   2   5
HETATM    5  C   UNL     1      25.863  44.448  50.941  1.00  0.00     0.121 A 
HETATM    6  N   UNL     1      25.362  43.839  49.826  1.00  0.00    -0.272 N 
HETATM    7  H   UNL     1      25.550  42.889  49.519  1.00  0.00     0.189 HD
HETATM    8  N   UNL     1      24.556  44.616  49.088  1.00  0.00    -0.174 NA
HETATM    9  C   UNL     1      24.503  45.781  49.754  1.00  0.00     0.089 A 
HETATM   10  C   UNL     1      25.314  45.715  50.923  1.00  0.00     0.071 A 
BRANCH   9  11
HETATM   11  C   UNL     1      23.709  46.912  49.264  1.00  0.00    -0.006 A 
HETATM   12  C   UNL     1      22.569  46.708  48.470  1.00  0.00     0.015 A 
HETATM   13  C   UNL     1      21.815  47.796  48.014  1.00  0.00     0.024 A 
HETATM   14  C   UNL     1      22.194  49.093  48.350  1.00  0.00     0.034 A 
HETATM   15 CL   UNL     1      21.262  50.426  47.791  1.00  0.00    -0.084 Cl
HETATM   16  C   UNL     1      23.323  49.315  49.133  1.00  0.00     0.024 A 
HETATM   17  C   UNL     1      24.077  48.229  49.585  1.00  0.00     0.015 A 
ENDBRANCH   9  11
ENDBRANCH   2   5
BRANCH   1  18
HETATM   18  N   UNL     1      28.578  44.077  53.367  1.00  0.00    -0.165 NA
HETATM   19  C   UNL     1      28.799  44.756  54.447  1.00  0.00     0.157 A 
HETATM   20  C   UNL     1      29.750  44.410  55.494  1.00  0.00     0.027 A 
HETATM   21  C   UNL     1      28.145  46.068  54.893  1.00  0.00     0.277 A 
HETATM   22  C   UNL     1      30.610  43.337  55.613  1.00  0.00     0.016 A 
HETATM   23  C   UNL     1      29.668  45.416  56.456  1.00  0.00     0.048 A 
HETATM   24  C   UNL     1      31.411  43.295  56.757  1.00  0.00     0.001 A 
HETATM   25  C   UNL     1      31.332  44.310  57.734  1.00  0.00     0.002 A 
HETATM   26  C   UNL     1      30.451  45.389  57.589  1.00  0.00     0.030 A 
HETATM   27  N   UNL     1      28.729  46.382  56.101  1.00  0.00    -0.321 N 
HETATM   28  H   UNL     1      28.493  47.204  56.637  1.00  0.00     0.169 HD
HETATM   29  O   UNL     1      27.292  46.663  54.266  1.00  0.00    -0.266 OA
ENDBRANCH   1  18
TORSDOF 3
ENDMDL
MODEL 4
REMARK VINA RESULT:      -9.3      1.598      2.158
REMARK  3 active torsions:
REMARK  status: ('A' for Active; 'I' for Inactive)
REMARK    1  A    between atoms: N_7  and  N_8 
REMARK       I    between atoms: N_8  and  C_9 
REMARK    2  A    between atoms: C_9  and  C_10 
REMARK    3  A    between atoms: C_14  and  C_15 
ROOT
HETATM    1  N   UNL     1      25.610  46.142  50.942  1.00  0.00    -0.241 N 
HETATM    2  C   UNL     1      25.936  46.971  49.882  1.00  0.00     0.289 C 
HETATM    3  O   UNL     1      26.992  46.911  49.255  1.00  0.00    -0.264 OA
HETATM    4  H   UNL     1      24.722  46.256  51.429  1.00  0.00     0.192 HD
ENDROOT
BRANCH   2   5
HETATM    5  C   UNL     1      24.930  47.950  49.557  1.00  0.00     0.121 A 
HETATM    6  N   UNL     1      25.267  49.195  49.105  1.00  0.00    -0.272 N 
HETATM    7  H   UNL     1      26.206  49.548  48.949  1.00  0.00     0.189 HD
HETATM    8  N   UNL     1      24.219  49.998  48.872  1.00  0.00    -0.174 NA
HETATM    9  C   UNL     1      23.143  49.248  49.157  1.00  0.00     0.089 A 
HETATM   10  C   UNL     1      23.549  47.954  49.594  1.00  0.00     0.071 A 
BRANCH   9  11
HETATM   11  C   UNL     1      21.781  49.773  49.024  1.00  0.00    -0.006 A 
HETATM   12  C   UNL     1      21.551  51.109  48.662  1.00  0.00     0.015 A 
HETATM   13  C   UNL     1      20.245  51.598  48.531  1.00  0.00     0.024 A 
HETATM   14  C   UNL     1      19.162  50.754  48.761  1.00  0.00     0.034 A 
HETATM   15 CL   UNL     1      17.559  51.357  48.596  1.00  0.00    -0.084 Cl
HETATM   16  C   UNL     1      19.370  49.426  49.125  1.00  0.00     0.024 A 
HETATM   17  C   UNL     1      20.674  48.941  49.258  1.00  0.00     0.015 A 
ENDBRANCH   9  11
ENDBRANCH   2   5
BRANCH   1  18
HETATM   18  N   UNL     1      26.481  45.183  51.382  1.00  0.00    -0.165 NA
HETATM   19  C   UNL     1      27.006  45.379  52.548  1.00  0.00     0.157 A 
HETATM   20  C   UNL     1      27.962  44.503  53.214  1.00  0.00     0.027 A 
HETATM   21  C   UNL     1      26.777  46.553  53.508  1.00  0.00     0.277 A 
HETATM   22  C   UNL     1      28.522  43.308  52.811  1.00  0.00     0.016 A 
HETATM   23  C   UNL     1      28.266  45.101  54.437  1.00  0.00     0.048 A 
HETATM   24  C   UNL     1      29.424  42.706  53.691  1.00  0.00     0.001 A 
HETATM   25  C   UNL     1      29.736  43.306  54.930  1.00  0.00     0.002 A 
HETATM   26  C   UNL     1      29.154  44.520  55.316  1.00  0.00     0.030 A 
HETATM   27  N   UNL     1      27.572  46.298  54.603  1.00  0.00    -0.321 N 
HETATM   28  H   UNL     1      27.628  46.907  55.406  1.00  0.00     0.169 HD
HETATM   29  O   UNL     1      26.034  47.488  53.289  1.00  0.00    -0.266 OA
ENDBRANCH   1  18
TORSDOF 3
ENDMDL
MODEL 5
REMARK VINA RESULT:      -9.2      3.815      9.472
REMARK  3 active torsions:
REMARK  status: ('A' for Active; 'I' for Inactive)
REMARK    1  A    between atoms: N_7  and  N_8 
REMARK       I    between atoms: N_8  and  C_9 
REMARK    2  A    between atoms: C_9  and  C_10 
REMARK    3  A    between atoms: C_14  and  C_15 
ROOT
HETATM    1  N   UNL     1      23.668  46.254  49.327  1.00  0.00    -0.241 N 
HETATM    2  C   UNL     1      23.931  44.896  49.285  1.00  0.00     0.289 C 
HETATM    3  O   UNL     1      23.186  44.060  48.779  1.00  0.00    -0.264 OA
HETATM    4  H   UNL     1      24.323  46.891  49.777  1.00  0.00     0.192 HD
ENDROOT
BRANCH   2   5
HETATM    5  C   UNL     1      25.175  44.509  49.903  1.00  0.00     0.121 A 
HETATM    6  N   UNL     1      26.188  43.949  49.177  1.00  0.00    -0.272 N 
HETATM    7  H   UNL     1      26.184  43.761  48.179  1.00  0.00     0.189 HD
HETATM    8  N   UNL     1      27.268  43.621  49.901  1.00  0.00    -0.174 NA
HETATM    9  C   UNL     1      26.968  44.001  51.153  1.00  0.00     0.089 A 
HETATM   10  C   UNL     1      25.659  44.561  51.196  1.00  0.00     0.071 A 
BRANCH   9  11
HETATM   11  C   UNL     1      27.910  43.812  52.261  1.00  0.00    -0.006 A 
HETATM   12  C   UNL     1      28.998  42.933  52.146  1.00  0.00     0.015 A 
HETATM   13  C   UNL     1      29.895  42.767  53.208  1.00  0.00     0.024 A 
HETATM   14  C   UNL     1      29.709  43.478  54.391  1.00  0.00     0.034 A 
HETATM   15 CL   UNL     1      30.815  43.273  55.693  1.00  0.00    -0.084 Cl
HETATM   16  C   UNL     1      28.633  44.351  54.526  1.00  0.00     0.024 A 
HETATM   17  C   UNL     1      27.738  44.514  53.465  1.00  0.00     0.015 A 
ENDBRANCH   9  11
ENDBRANCH   2   5
BRANCH   1  18
HETATM   18  N   UNL     1      22.510  46.764  48.805  1.00  0.00    -0.165 NA
HETATM   19  C   UNL     1      22.387  48.052  48.835  1.00  0.00     0.157 A 
HETATM   20  C   UNL     1      21.245  48.814  48.348  1.00  0.00     0.027 A 
HETATM   21  C   UNL     1      23.376  49.088  49.383  1.00  0.00     0.277 A 
HETATM   22  C   UNL     1      20.069  48.398  47.758  1.00  0.00     0.016 A 
HETATM   23  C   UNL     1      21.530  50.158  48.587  1.00  0.00     0.048 A 
HETATM   24  C   UNL     1      19.156  49.392  47.401  1.00  0.00     0.001 A 
HETATM   25  C   UNL     1      19.438  50.754  47.640  1.00  0.00     0.002 A 
HETATM   26  C   UNL     1      20.640  51.151  48.241  1.00  0.00     0.030 A 
HETATM   27  N   UNL     1      22.776  50.313  49.192  1.00  0.00    -0.321 N 
HETATM   28  H   UNL     1      23.198  51.189  49.460  1.00  0.00     0.169 HD
HETATM   29  O   UNL     1      24.454  48.820  49.874  1.00  0.00    -0.266 OA
ENDBRANCH   1  18
TORSDOF 3
ENDMDL
MODEL 6
REMARK VINA RESULT:      -9.1      6.204      9.738
REMARK  3 active torsions:
REMARK  status: ('A' for Active; 'I' for Inactive)
REMARK    1  A    between atoms: N_7  and  N_8 
REMARK       I    between atoms: N_8  and  C_9 
REMARK    2  A    between atoms: C_9  and  C_10 
REMARK    3  A    between atoms: C_14  and  C_15 
ROOT
HETATM    1  N   UNL     1      27.801  41.222  49.819  1.00  0.00    -0.241 N 
HETATM    2  C   UNL     1      27.480  42.523  50.167  1.00  0.00     0.289 C 
HETATM    3  O   UNL     1      27.055  43.366  49.380  1.00  0.00    -0.264 OA
HETATM    4  H   UNL     1      28.165  40.578  50.520  1.00  0.00     0.192 HD
ENDROOT
BRANCH   2   5
HETATM    5  C   UNL     1      27.696  42.842  51.556  1.00  0.00     0.121 A 
HETATM    6  N   UNL     1      26.924  42.292  52.540  1.00  0.00    -0.272 N 
HETATM    7  H   UNL     1      26.163  41.631  52.415  1.00  0.00     0.189 HD
HETATM    8  N   UNL     1      27.232  42.707  53.778  1.00  0.00    -0.174 NA
HETATM    9  C   UNL     1      28.265  43.547  53.609  1.00  0.00     0.089 A 
HETATM   10  C   UNL     1      28.584  43.660  52.225  1.00  0.00     0.071 A 
BRANCH   9  11
HETATM   11  C   UNL     1      28.902  44.222  54.744  1.00  0.00    -0.006 A 
HETATM   12  C   UNL     1      30.134  43.780  55.252  1.00  0.00     0.015 A 
HETATM   13  C   UNL     1      30.737  44.436  56.332  1.00  0.00     0.024 A 
HETATM   14  C   UNL     1      30.112  45.538  56.910  1.00  0.00     0.034 A 
HETATM   15 CL   UNL     1      30.858  46.344  58.234  1.00  0.00    -0.084 Cl
HETATM   16  C   UNL     1      28.889  45.989  56.423  1.00  0.00     0.024 A 
HETATM   17  C   UNL     1      28.287  45.331  55.347  1.00  0.00     0.015 A 
ENDBRANCH   9  11
ENDBRANCH   2   5
BRANCH   1  18
HETATM   18  N   UNL     1      27.676  40.786  48.529  1.00  0.00    -0.165 NA
HETATM   19  C   UNL     1      28.138  39.603  48.277  1.00  0.00     0.157 A 
HETATM   20  C   UNL     1      28.122  38.938  46.981  1.00  0.00     0.027 A 
HETATM   21  C   UNL     1      28.811  38.622  49.243  1.00  0.00     0.277 A 
HETATM   22  C   UNL     1      27.640  39.356  45.758  1.00  0.00     0.016 A 
HETATM   23  C   UNL     1      28.727  37.694  47.164  1.00  0.00     0.048 A 
HETATM   24  C   UNL     1      27.782  38.470  44.688  1.00  0.00     0.001 A 
HETATM   25  C   UNL     1      28.393  37.211  44.866  1.00  0.00     0.002 A 
HETATM   26  C   UNL     1      28.875  36.810  46.118  1.00  0.00     0.030 A 
HETATM   27  N   UNL     1      29.128  37.515  48.487  1.00  0.00    -0.321 N 
HETATM   28  H   UNL     1      29.587  36.697  48.860  1.00  0.00     0.169 HD
HETATM   29  O   UNL     1      28.999  38.834  50.423  1.00  0.00    -0.266 OA
ENDBRANCH   1  18
TORSDOF 3
ENDMDL
MODEL 7
REMARK VINA RESULT:      -8.9      2.180      2.731
REMARK  3 active torsions:
REMARK  status: ('A' for Active; 'I' for Inactive)
REMARK    1  A    between atoms: N_7  and  N_8 
REMARK       I    between atoms: N_8  and  C_9 
REMARK    2  A    between atoms: C_9  and  C_10 
REMARK    3  A    between atoms: C_14  and  C_15 
ROOT
HETATM    1  N   UNL     1      25.515  45.708  50.239  1.00  0.00    -0.241 N 
HETATM    2  C   UNL     1      25.463  47.022  49.805  1.00  0.00     0.289 C 
HETATM    3  O   UNL     1      26.434  47.773  49.750  1.00  0.00    -0.264 OA
HETATM    4  H   UNL     1      24.667  45.145  50.275  1.00  0.00     0.192 HD
ENDROOT
BRANCH   2   5
HETATM    5  C   UNL     1      24.149  47.472  49.419  1.00  0.00     0.121 A 
HETATM    6  N   UNL     1      23.133  46.589  49.187  1.00  0.00    -0.272 N 
HETATM    7  H   UNL     1      23.181  45.577  49.263  1.00  0.00     0.189 HD
HETATM    8  N   UNL     1      21.980  47.161  48.812  1.00  0.00    -0.174 NA
HETATM    9  C   UNL     1      22.235  48.479  48.818  1.00  0.00     0.089 A 
HETATM   10  C   UNL     1      23.590  48.715  49.193  1.00  0.00     0.071 A 
BRANCH   9  11
HETATM   11  C   UNL     1      21.210  49.464  48.462  1.00  0.00    -0.006 A 
HETATM   12  C   UNL     1      21.270  50.781  48.942  1.00  0.00     0.015 A 
HETATM   13  C   UNL     1      20.289  51.715  48.589  1.00  0.00     0.024 A 
HETATM   14  C   UNL     1      19.241  51.338  47.753  1.00  0.00     0.034 A 
HETATM   15 CL   UNL     1      18.039  52.489  47.318  1.00  0.00    -0.084 Cl
HETATM   16  C   UNL     1      19.161  50.035  47.269  1.00  0.00     0.024 A 
HETATM   17  C   UNL     1      20.140  49.103  47.625  1.00  0.00     0.015 A 
ENDBRANCH   9  11
ENDBRANCH   2   5
BRANCH   1  18
HETATM   18  N   UNL     1      26.691  45.153  50.665  1.00  0.00    -0.165 NA
HETATM   19  C   UNL     1      26.629  44.438  51.742  1.00  0.00     0.157 A 
HETATM   20  C   UNL     1      27.748  43.761  52.383  1.00  0.00     0.027 A 
HETATM   21  C   UNL     1      25.402  44.131  52.608  1.00  0.00     0.277 A 
HETATM   22  C   UNL     1      29.082  43.697  52.037  1.00  0.00     0.016 A 
HETATM   23  C   UNL     1      27.234  43.122  53.512  1.00  0.00     0.048 A 
HETATM   24  C   UNL     1      29.916  42.955  52.876  1.00  0.00     0.001 A 
HETATM   25  C   UNL     1      29.403  42.307  54.020  1.00  0.00     0.002 A 
HETATM   26  C   UNL     1      28.044  42.388  54.350  1.00  0.00     0.030 A 
HETATM   27  N   UNL     1      25.864  43.342  53.639  1.00  0.00    -0.321 N 
HETATM   28  H   UNL     1      25.273  42.984  54.374  1.00  0.00     0.169 HD
HETATM   29  O   UNL     1      24.279  44.530  52.380  1.00  0.00    -0.266 OA
ENDBRANCH   1  18
TORSDOF 3
ENDMDL
MODEL 8
REMARK VINA RESULT:      -8.6      4.315      5.223
REMARK  3 active torsions:
REMARK  status: ('A' for Active; 'I' for Inactive)
REMARK    1  A    between atoms: N_7  and  N_8 
REMARK       I    between atoms: N_8  and  C_9 
REMARK    2  A    between atoms: C_9  and  C_10 
REMARK    3  A    between atoms: C_14  and  C_15 
ROOT
HETATM    1  N   UNL     1      26.801  45.301  53.273  1.00  0.00    -0.241 N 
HETATM    2  C   UNL     1      25.532  44.748  53.274  1.00  0.00     0.289 C 
HETATM    3  O   UNL     1      24.892  44.483  54.289  1.00  0.00    -0.264 OA
HETATM    4  H   UNL     1      27.283  45.480  52.394  1.00  0.00     0.192 HD
ENDROOT
BRANCH   2   5
HETATM    5  C   UNL     1      24.995  44.482  51.963  1.00  0.00     0.121 A 
HETATM    6  N   UNL     1      24.314  45.438  51.265  1.00  0.00    -0.272 N 
HETATM    7  H   UNL     1      24.126  46.390  51.567  1.00  0.00     0.189 HD
HETATM    8  N   UNL     1      23.856  45.029  50.073  1.00  0.00    -0.174 NA
HETATM    9  C   UNL     1      24.271  43.756  49.967  1.00  0.00     0.089 A 
HETATM   10  C   UNL     1      24.989  43.375  51.136  1.00  0.00     0.071 A 
BRANCH   9  11
HETATM   11  C   UNL     1      23.969  42.944  48.784  1.00  0.00    -0.006 A 
HETATM   12  C   UNL     1      24.116  41.549  48.805  1.00  0.00     0.015 A 
HETATM   13  C   UNL     1      23.818  40.783  47.672  1.00  0.00     0.024 A 
HETATM   14  C   UNL     1      23.370  41.407  46.511  1.00  0.00     0.034 A 
HETATM   15 CL   UNL     1      23.001  40.463  45.121  1.00  0.00    -0.084 Cl
HETATM   16  C   UNL     1      23.221  42.791  46.468  1.00  0.00     0.024 A 
HETATM   17  C   UNL     1      23.522  43.554  47.600  1.00  0.00     0.015 A 
ENDBRANCH   9  11
ENDBRANCH   2   5
BRANCH   1  18
HETATM   18  N   UNL     1      27.449  45.580  54.446  1.00  0.00    -0.165 NA
HETATM   19  C   UNL     1      28.507  44.877  54.696  1.00  0.00     0.157 A 
HETATM   20  C   UNL     1      29.348  44.991  55.880  1.00  0.00     0.027 A 
HETATM   21  C   UNL     1      29.133  43.767  53.844  1.00  0.00     0.277 A 
HETATM   22  C   UNL     1      29.255  45.825  56.976  1.00  0.00     0.016 A 
HETATM   23  C   UNL     1      30.363  44.045  55.741  1.00  0.00     0.048 A 
HETATM   24  C   UNL     1      30.234  45.682  57.962  1.00  0.00     0.001 A 
HETATM   25  C   UNL     1      31.263  44.725  57.828  1.00  0.00     0.002 A 
HETATM   26  C   UNL     1      31.335  43.891  56.705  1.00  0.00     0.030 A 
HETATM   27  N   UNL     1      30.232  43.331  54.551  1.00  0.00    -0.321 N 
HETATM   28  H   UNL     1      30.845  42.596  54.232  1.00  0.00     0.169 HD
HETATM   29  O   UNL     1      28.701  43.392  52.774  1.00  0.00    -0.266 OA
ENDBRANCH   1  18
TORSDOF 3
ENDMDL
MODEL 9
REMARK VINA RESULT:      -8.6      3.963     10.078
REMARK  3 active torsions:
REMARK  status: ('A' for Active; 'I' for Inactive)
REMARK    1  A    between atoms: N_7  and  N_8 
REMARK       I    between atoms: N_8  and  C_9 
REMARK    2  A    between atoms: C_9  and  C_10 
REMARK    3  A    between atoms: C_14  and  C_15 
ROOT
HETATM    1  N   UNL     1      22.561  48.990  49.914  1.00  0.00    -0.241 N 
HETATM    2  C   UNL     1      23.657  48.589  49.170  1.00  0.00     0.289 C 
HETATM    3  O   UNL     1      24.025  49.130  48.130  1.00  0.00    -0.264 OA
HETATM    4  H   UNL     1      22.301  48.485  50.760  1.00  0.00     0.192 HD
ENDROOT
BRANCH   2   5
HETATM    5  C   UNL     1      24.358  47.448  49.705  1.00  0.00     0.121 A 
HETATM    6  N   UNL     1      24.106  46.183  49.255  1.00  0.00    -0.272 N 
HETATM    7  H   UNL     1      23.444  45.918  48.532  1.00  0.00     0.189 HD
HETATM    8  N   UNL     1      24.820  45.228  49.870  1.00  0.00    -0.174 NA
HETATM    9  C   UNL     1      25.593  45.890  50.745  1.00  0.00     0.089 A 
HETATM   10  C   UNL     1      25.329  47.288  50.673  1.00  0.00     0.071 A 
BRANCH   9  11
HETATM   11  C   UNL     1      26.535  45.189  51.623  1.00  0.00    -0.006 A 
HETATM   12  C   UNL     1      27.359  44.165  51.132  1.00  0.00     0.015 A 
HETATM   13  C   UNL     1      28.261  43.508  51.978  1.00  0.00     0.024 A 
HETATM   14  C   UNL     1      28.344  43.871  53.320  1.00  0.00     0.034 A 
HETATM   15 CL   UNL     1      29.455  43.064  54.356  1.00  0.00    -0.084 Cl
HETATM   16  C   UNL     1      27.532  44.882  53.827  1.00  0.00     0.024 A 
HETATM   17  C   UNL     1      26.631  45.535  52.981  1.00  0.00     0.015 A 
ENDBRANCH   9  11
ENDBRANCH   2   5
BRANCH   1  18
HETATM   18  N   UNL     1      21.782  50.041  49.512  1.00  0.00    -0.165 NA
HETATM   19  C   UNL     1      20.628  49.739  49.010  1.00  0.00     0.157 A 
HETATM   20  C   UNL     1      19.640  50.686  48.509  1.00  0.00     0.027 A 
HETATM   21  C   UNL     1      20.016  48.349  48.806  1.00  0.00     0.277 A 
HETATM   22  C   UNL     1      19.663  52.064  48.445  1.00  0.00     0.016 A 
HETATM   23  C   UNL     1      18.559  49.931  48.056  1.00  0.00     0.048 A 
HETATM   24  C   UNL     1      18.540  52.688  47.897  1.00  0.00     0.001 A 
HETATM   25  C   UNL     1      17.443  51.930  47.435  1.00  0.00     0.002 A 
HETATM   26  C   UNL     1      17.445  50.531  47.512  1.00  0.00     0.030 A 
HETATM   27  N   UNL     1      18.783  48.566  48.231  1.00  0.00    -0.321 N 
HETATM   28  H   UNL     1      18.147  47.825  47.979  1.00  0.00     0.169 HD
HETATM   29  O   UNL     1      20.556  47.306  49.110  1.00  0.00    -0.266 OA
ENDBRANCH   1  18
TORSDOF 3
ENDMDL
MODEL 10
REMARK VINA RESULT:      -8.5      3.589      4.099
REMARK  3 active torsions:
REMARK  status: ('A' for Active; 'I' for Inactive)
REMARK    1  A    between atoms: N_7  and  N_8 
REMARK       I    between atoms: N_8  and  C_9 
REMARK    2  A    between atoms: C_9  and  C_10 
REMARK    3  A    between atoms: C_14  and  C_15 
ROOT
HETATM    1  N   UNL     1      28.276  43.301  52.705  1.00  0.00    -0.241 N 
HETATM    2  C   UNL     1      27.578  42.201  52.237  1.00  0.00     0.289 C 
HETATM    3  O   UNL     1      27.693  41.064  52.688  1.00  0.00    -0.264 OA
HETATM    4  H   UNL     1      28.144  44.215  52.274  1.00  0.00     0.192 HD
ENDROOT
BRANCH   2   5
HETATM    5  C   UNL     1      26.684  42.482  51.141  1.00  0.00     0.121 A 
HETATM    6  N   UNL     1      27.036  42.213  49.849  1.00  0.00    -0.272 N 
HETATM    7  H   UNL     1      27.911  41.804  49.532  1.00  0.00     0.189 HD
HETATM    8  N   UNL     1      26.109  42.555  48.943  1.00  0.00    -0.174 NA
HETATM    9  C   UNL     1      25.090  43.047  49.666  1.00  0.00     0.089 A 
HETATM   10  C   UNL     1      25.415  43.020  51.053  1.00  0.00     0.071 A 
BRANCH   9  11
HETATM   11  C   UNL     1      23.862  43.535  49.033  1.00  0.00    -0.006 A 
HETATM   12  C   UNL     1      23.724  43.556  47.636  1.00  0.00     0.015 A 
HETATM   13  C   UNL     1      22.543  44.017  47.043  1.00  0.00     0.024 A 
HETATM   14  C   UNL     1      21.492  44.461  47.842  1.00  0.00     0.034 A 
HETATM   15 CL   UNL     1      20.042  45.025  47.109  1.00  0.00    -0.084 Cl
HETATM   16  C   UNL     1      21.612  44.453  49.228  1.00  0.00     0.024 A 
HETATM   17  C   UNL     1      22.792  43.994  49.819  1.00  0.00     0.015 A 
ENDBRANCH   9  11
ENDBRANCH   2   5
BRANCH   1  18
HETATM   18  N   UNL     1      29.182  43.180  53.723  1.00  0.00    -0.165 NA
HETATM   19  C   UNL     1      29.155  44.107  54.626  1.00  0.00     0.157 A 
HETATM   20  C   UNL     1      30.026  44.191  55.791  1.00  0.00     0.027 A 
HETATM   21  C   UNL     1      28.234  45.330  54.704  1.00  0.00     0.277 A 
HETATM   22  C   UNL     1      31.041  43.361  56.220  1.00  0.00     0.016 A 
HETATM   23  C   UNL     1      29.658  45.346  56.481  1.00  0.00     0.048 A 
HETATM   24  C   UNL     1      31.700  43.726  57.396  1.00  0.00     0.001 A 
HETATM   25  C   UNL     1      31.334  44.893  58.099  1.00  0.00     0.002 A 
HETATM   26  C   UNL     1      30.300  45.720  57.642  1.00  0.00     0.030 A 
HETATM   27  N   UNL     1      28.612  46.008  55.842  1.00  0.00    -0.321 N 
HETATM   28  H   UNL     1      28.176  46.864  56.152  1.00  0.00     0.169 HD
HETATM   29  O   UNL     1      27.368  45.594  53.896  1.00  0.00    -0.266 OA
ENDBRANCH   1  18
TORSDOF 3
ENDMDL
