MODEL 1
REMARK VINA RESULT:      -8.9      0.000      0.000
REMARK  6 active torsions:
REMARK  status: ('A' for Active; 'I' for Inactive)
REMARK    1  A    between atoms: O_2  and  C_3 
REMARK    2  A    between atoms: C_5  and  N_6 
REMARK    3  A    between atoms: C_7  and  O_8 
REMARK    4  A    between atoms: C_7  and  C_9 
REMARK       I    between atoms: C_9  and  N_10 
REMARK    5  A    between atoms: N_10  and  C_11 
REMARK    6  A    between atoms: C_11  and  C_12 
ROOT
HETATM    1  N   UNL     1      27.519  48.797  40.138  1.00  0.00    -0.254 N 
HETATM    2  C   UNL     1      28.211  49.684  41.089  1.00  0.00     0.256 C 
HETATM    3  C   UNL     1      28.504  51.059  40.515  1.00  0.00     0.034 A 
HETATM    4  C   UNL     1      28.635  51.179  39.140  1.00  0.00     0.048 A 
HETATM    5  N   UNL     1      28.383  50.065  38.351  1.00  0.00    -0.308 N 
HETATM    6  C   UNL     1      27.796  48.909  38.781  1.00  0.00     0.330 C 
HETATM    7  O   UNL     1      27.584  48.050  37.927  1.00  0.00    -0.246 OA
HETATM    8  C   UNL     1      28.767  52.183  41.316  1.00  0.00     0.015 A 
HETATM    9  C   UNL     1      29.143  53.395  40.734  1.00  0.00     0.001 A 
HETATM   10  C   UNL     1      29.276  53.492  39.350  1.00  0.00     0.002 A 
HETATM   11  C   UNL     1      29.025  52.380  38.547  1.00  0.00     0.030 A 
HETATM   12  H   UNL     1      28.485  50.126  37.345  1.00  0.00     0.170 HD
ENDROOT
BRANCH   2  13
HETATM   13  O   UNL     1      27.361  49.921  42.217  1.00  0.00    -0.359 OA
HETATM   14  H   UNL     1      26.554  50.325  41.845  1.00  0.00     0.213 HD
ENDBRANCH   2  13
BRANCH   2  15
HETATM   15  C   UNL     1      29.582  49.039  41.552  1.00  0.00     0.279 C 
HETATM   16  N   UNL     1      30.727  49.471  40.920  1.00  0.00    -0.352 N 
HETATM   17  H   UNL     1      30.654  50.103  40.132  1.00  0.00     0.162 HD
HETATM   18  O   UNL     1      29.606  48.234  42.490  1.00  0.00    -0.268 OA
BRANCH  16  19
HETATM   19  C   UNL     1      32.041  49.073  41.360  1.00  0.00     0.163 C 
BRANCH  19  20
HETATM   20  C   UNL     1      32.636  50.107  42.281  1.00  0.00    -0.019 A 
HETATM   21  C   UNL     1      33.973  50.527  42.174  1.00  0.00     0.042 A 
HETATM   22 CL   UNL     1      35.038  49.891  40.972  1.00  0.00    -0.084 Cl
HETATM   23  C   UNL     1      34.492  51.480  43.056  1.00  0.00     0.024 A 
HETATM   24  C   UNL     1      33.686  52.022  44.058  1.00  0.00     0.002 A 
HETATM   25  C   UNL     1      32.363  51.609  44.181  1.00  0.00     0.001 A 
HETATM   26  C   UNL     1      31.842  50.656  43.302  1.00  0.00     0.010 A 
ENDBRANCH  19  20
ENDBRANCH  16  19
ENDBRANCH   2  15
BRANCH   1  27
HETATM   27  C   UNL     1      26.700  47.702  40.610  1.00  0.00     0.045 A 
HETATM   28  C   UNL     1      25.298  47.815  40.600  1.00  0.00     0.066 A 
HETATM   29  C   UNL     1      24.463  46.799  41.088  1.00  0.00     0.070 A 
HETATM   30  C   UNL     1      25.029  45.636  41.596  1.00  0.00     0.037 A 
HETATM   31  C   UNL     1      26.416  45.497  41.615  1.00  0.00     0.005 A 
HETATM   32  C   UNL     1      27.241  46.518  41.131  1.00  0.00     0.030 A 
BRANCH  29  33
HETATM   33  O   UNL     1      23.124  47.079  41.021  1.00  0.00    -0.356 OA
HETATM   34  C   UNL     1      22.735  48.183  40.215  1.00  0.00     0.210 C 
ENDBRANCH  29  33
ENDBRANCH   1  27
TORSDOF 6
ENDMDL
MODEL 2
REMARK VINA RESULT:      -8.8     10.648     12.950
REMARK  6 active torsions:
REMARK  status: ('A' for Active; 'I' for Inactive)
REMARK    1  A    between atoms: O_2  and  C_3 
REMARK    2  A    between atoms: C_5  and  N_6 
REMARK    3  A    between atoms: C_7  and  O_8 
REMARK    4  A    between atoms: C_7  and  C_9 
REMARK       I    between atoms: C_9  and  N_10 
REMARK    5  A    between atoms: N_10  and  C_11 
REMARK    6  A    between atoms: C_11  and  C_12 
ROOT
HETATM    1  N   UNL     1      24.814  43.449  49.853  1.00  0.00    -0.254 N 
HETATM    2  C   UNL     1      25.889  42.529  49.444  1.00  0.00     0.256 C 
HETATM    3  C   UNL     1      25.483  41.604  48.311  1.00  0.00     0.034 A 
HETATM    4  C   UNL     1      24.137  41.305  48.162  1.00  0.00     0.048 A 
HETATM    5  N   UNL     1      23.221  41.948  48.981  1.00  0.00    -0.308 N 
HETATM    6  C   UNL     1      23.493  43.024  49.778  1.00  0.00     0.330 C 
HETATM    7  O   UNL     1      22.541  43.513  50.384  1.00  0.00    -0.246 OA
HETATM    8  C   UNL     1      26.414  40.947  47.488  1.00  0.00     0.015 A 
HETATM    9  C   UNL     1      25.985  40.020  46.535  1.00  0.00     0.001 A 
HETATM   10  C   UNL     1      24.629  39.728  46.407  1.00  0.00     0.002 A 
HETATM   11  C   UNL     1      23.699  40.369  47.225  1.00  0.00     0.030 A 
HETATM   12  H   UNL     1      22.234  41.735  48.900  1.00  0.00     0.170 HD
ENDROOT
BRANCH   2  13
HETATM   13  O   UNL     1      26.991  43.288  48.934  1.00  0.00    -0.359 OA
HETATM   14  H   UNL     1      27.759  42.689  48.994  1.00  0.00     0.213 HD
ENDBRANCH   2  13
BRANCH   2  15
HETATM   15  C   UNL     1      26.350  41.635  50.670  1.00  0.00     0.279 C 
HETATM   16  N   UNL     1      27.368  42.125  51.458  1.00  0.00    -0.352 N 
HETATM   17  H   UNL     1      27.846  42.974  51.185  1.00  0.00     0.162 HD
HETATM   18  O   UNL     1      25.759  40.581  50.929  1.00  0.00    -0.268 OA
BRANCH  16  19
HETATM   19  C   UNL     1      27.765  41.478  52.685  1.00  0.00     0.163 C 
BRANCH  19  20
HETATM   20  C   UNL     1      28.561  42.417  53.554  1.00  0.00    -0.019 A 
HETATM   21  C   UNL     1      27.954  43.280  54.482  1.00  0.00     0.042 A 
HETATM   22 CL   UNL     1      26.241  43.327  54.699  1.00  0.00    -0.084 Cl
HETATM   23  C   UNL     1      28.728  44.145  55.261  1.00  0.00     0.024 A 
HETATM   24  C   UNL     1      30.115  44.164  55.122  1.00  0.00     0.002 A 
HETATM   25  C   UNL     1      30.730  43.321  54.201  1.00  0.00     0.001 A 
HETATM   26  C   UNL     1      29.960  42.457  53.420  1.00  0.00     0.010 A 
ENDBRANCH  19  20
ENDBRANCH  16  19
ENDBRANCH   2  15
BRANCH   1  27
HETATM   27  C   UNL     1      25.122  44.708  50.494  1.00  0.00     0.045 A 
HETATM   28  C   UNL     1      25.378  45.852  49.716  1.00  0.00     0.066 A 
HETATM   29  C   UNL     1      25.724  47.084  50.288  1.00  0.00     0.070 A 
HETATM   30  C   UNL     1      25.817  47.191  51.671  1.00  0.00     0.037 A 
HETATM   31  C   UNL     1      25.565  46.075  52.466  1.00  0.00     0.005 A 
HETATM   32  C   UNL     1      25.225  44.848  51.885  1.00  0.00     0.030 A 
BRANCH  29  33
HETATM   33  O   UNL     1      25.958  48.088  49.386  1.00  0.00    -0.356 OA
HETATM   34  C   UNL     1      27.311  48.477  49.191  1.00  0.00     0.210 C 
ENDBRANCH  29  33
ENDBRANCH   1  27
TORSDOF 6
ENDMDL
MODEL 3
REMARK VINA RESULT:      -8.7     10.429     12.994
REMARK  6 active torsions:
REMARK  status: ('A' for Active; 'I' for Inactive)
REMARK    1  A    between atoms: O_2  and  C_3 
REMARK    2  A    between atoms: C_5  and  N_6 
REMARK    3  A    between atoms: C_7  and  O_8 
REMARK    4  A    between atoms: C_7  and  C_9 
REMARK       I    between atoms: C_9  and  N_10 
REMARK    5  A    between atoms: N_10  and  C_11 
REMARK    6  A    between atoms: C_11  and  C_12 
ROOT
HETATM    1  N   UNL     1      27.024  42.858  51.577  1.00  0.00    -0.254 N 
HETATM    2  C   UNL     1      25.890  43.733  51.235  1.00  0.00     0.256 C 
HETATM    3  C   UNL     1      24.831  43.037  50.401  1.00  0.00     0.034 A 
HETATM    4  C   UNL     1      25.221  41.965  49.612  1.00  0.00     0.048 A 
HETATM    5  N   UNL     1      26.529  41.514  49.706  1.00  0.00    -0.308 N 
HETATM    6  C   UNL     1      27.422  41.880  50.673  1.00  0.00     0.330 C 
HETATM    7  O   UNL     1      28.520  41.325  50.646  1.00  0.00    -0.246 OA
HETATM    8  C   UNL     1      23.508  43.501  50.299  1.00  0.00     0.015 A 
HETATM    9  C   UNL     1      22.607  42.886  49.427  1.00  0.00     0.001 A 
HETATM   10  C   UNL     1      23.022  41.815  48.637  1.00  0.00     0.002 A 
HETATM   11  C   UNL     1      24.334  41.353  48.725  1.00  0.00     0.030 A 
HETATM   12  H   UNL     1      26.840  40.741  49.130  1.00  0.00     0.170 HD
ENDROOT
BRANCH   2  13
HETATM   13  O   UNL     1      25.221  44.129  52.438  1.00  0.00    -0.359 OA
HETATM   14  H   UNL     1      24.508  44.728  52.145  1.00  0.00     0.213 HD
ENDBRANCH   2  13
BRANCH   2  15
HETATM   15  C   UNL     1      26.393  45.005  50.435  1.00  0.00     0.279 C 
HETATM   16  N   UNL     1      25.897  46.230  50.823  1.00  0.00    -0.352 N 
HETATM   17  H   UNL     1      25.172  46.274  51.529  1.00  0.00     0.162 HD
HETATM   18  O   UNL     1      27.246  44.886  49.549  1.00  0.00    -0.268 OA
BRANCH  16  19
HETATM   19  C   UNL     1      26.396  47.467  50.275  1.00  0.00     0.163 C 
BRANCH  19  20
HETATM   20  C   UNL     1      25.314  48.198  49.524  1.00  0.00    -0.019 A 
HETATM   21  C   UNL     1      25.576  49.346  48.758  1.00  0.00     0.042 A 
HETATM   22 CL   UNL     1      27.167  50.007  48.616  1.00  0.00    -0.084 Cl
HETATM   23  C   UNL     1      24.542  50.005  48.085  1.00  0.00     0.024 A 
HETATM   24  C   UNL     1      23.234  49.529  48.171  1.00  0.00     0.002 A 
HETATM   25  C   UNL     1      22.958  48.397  48.933  1.00  0.00     0.001 A 
HETATM   26  C   UNL     1      23.988  47.739  49.608  1.00  0.00     0.010 A 
ENDBRANCH  19  20
ENDBRANCH  16  19
ENDBRANCH   2  15
BRANCH   1  27
HETATM   27  C   UNL     1      27.834  43.119  52.747  1.00  0.00     0.045 A 
HETATM   28  C   UNL     1      27.886  44.414  53.293  1.00  0.00     0.066 A 
HETATM   29  C   UNL     1      28.690  44.728  54.398  1.00  0.00     0.070 A 
HETATM   30  C   UNL     1      29.463  43.731  54.984  1.00  0.00     0.037 A 
HETATM   31  C   UNL     1      29.427  42.439  54.465  1.00  0.00     0.005 A 
HETATM   32  C   UNL     1      28.626  42.137  53.358  1.00  0.00     0.030 A 
BRANCH  29  33
HETATM   33  O   UNL     1      28.637  46.039  54.790  1.00  0.00    -0.356 OA
HETATM   34  C   UNL     1      28.734  46.300  56.183  1.00  0.00     0.210 C 
ENDBRANCH  29  33
ENDBRANCH   1  27
TORSDOF 6
ENDMDL
MODEL 4
REMARK VINA RESULT:      -8.6     24.978     27.597
REMARK  6 active torsions:
REMARK  status: ('A' for Active; 'I' for Inactive)
REMARK    1  A    between atoms: O_2  and  C_3 
REMARK    2  A    between atoms: C_5  and  N_6 
REMARK    3  A    between atoms: C_7  and  O_8 
REMARK    4  A    between atoms: C_7  and  C_9 
REMARK       I    between atoms: C_9  and  N_10 
REMARK    5  A    between atoms: N_10  and  C_11 
REMARK    6  A    between atoms: C_11  and  C_12 
ROOT
HETATM    1  N   UNL     1      40.569  47.585  66.192  1.00  0.00    -0.254 N 
HETATM    2  C   UNL     1      39.419  48.228  65.533  1.00  0.00     0.256 C 
HETATM    3  C   UNL     1      38.977  49.507  66.221  1.00  0.00     0.034 A 
HETATM    4  C   UNL     1      39.247  49.647  67.574  1.00  0.00     0.048 A 
HETATM    5  N   UNL     1      40.000  48.668  68.205  1.00  0.00    -0.308 N 
HETATM    6  C   UNL     1      40.700  47.680  67.572  1.00  0.00     0.330 C 
HETATM    7  O   UNL     1      41.373  46.939  68.287  1.00  0.00    -0.246 OA
HETATM    8  C   UNL     1      38.207  50.493  65.582  1.00  0.00     0.015 A 
HETATM    9  C   UNL     1      37.733  51.594  66.299  1.00  0.00     0.001 A 
HETATM   10  C   UNL     1      38.008  51.712  67.659  1.00  0.00     0.002 A 
HETATM   11  C   UNL     1      38.765  50.734  68.303  1.00  0.00     0.030 A 
HETATM   12  H   UNL     1      40.197  48.742  69.195  1.00  0.00     0.170 HD
ENDROOT
BRANCH   2  13
HETATM   13  O   UNL     1      39.796  48.624  64.209  1.00  0.00    -0.359 OA
HETATM   14  H   UNL     1      39.363  49.488  64.071  1.00  0.00     0.213 HD
ENDBRANCH   2  13
BRANCH   2  15
HETATM   15  C   UNL     1      38.182  47.238  65.486  1.00  0.00     0.279 C 
HETATM   16  N   UNL     1      37.707  46.884  64.243  1.00  0.00    -0.352 N 
HETATM   17  H   UNL     1      38.089  47.327  63.417  1.00  0.00     0.162 HD
HETATM   18  O   UNL     1      37.725  46.764  66.531  1.00  0.00    -0.268 OA
BRANCH  16  19
HETATM   19  C   UNL     1      36.691  45.874  64.071  1.00  0.00     0.163 C 
BRANCH  19  20
HETATM   20  C   UNL     1      37.310  44.533  63.778  1.00  0.00    -0.019 A 
HETATM   21  C   UNL     1      36.922  43.362  64.452  1.00  0.00     0.042 A 
HETATM   22 CL   UNL     1      35.698  43.374  65.671  1.00  0.00    -0.084 Cl
HETATM   23  C   UNL     1      37.530  42.138  64.160  1.00  0.00     0.024 A 
HETATM   24  C   UNL     1      38.535  42.065  63.196  1.00  0.00     0.002 A 
HETATM   25  C   UNL     1      38.936  43.218  62.526  1.00  0.00     0.001 A 
HETATM   26  C   UNL     1      38.331  44.442  62.816  1.00  0.00     0.010 A 
ENDBRANCH  19  20
ENDBRANCH  16  19
ENDBRANCH   2  15
BRANCH   1  27
HETATM   27  C   UNL     1      41.454  46.713  65.450  1.00  0.00     0.045 A 
HETATM   28  C   UNL     1      42.802  47.070  65.263  1.00  0.00     0.066 A 
HETATM   29  C   UNL     1      43.687  46.281  64.516  1.00  0.00     0.070 A 
HETATM   30  C   UNL     1      43.230  45.102  63.939  1.00  0.00     0.037 A 
HETATM   31  C   UNL     1      41.899  44.723  64.111  1.00  0.00     0.005 A 
HETATM   32  C   UNL     1      41.022  45.520  64.854  1.00  0.00     0.030 A 
BRANCH  29  33
HETATM   33  O   UNL     1      44.957  46.784  64.418  1.00  0.00    -0.356 OA
HETATM   34  C   UNL     1      45.377  47.679  65.439  1.00  0.00     0.210 C 
ENDBRANCH  29  33
ENDBRANCH   1  27
TORSDOF 6
ENDMDL
MODEL 5
REMARK VINA RESULT:      -8.6     11.684     14.533
REMARK  6 active torsions:
REMARK  status: ('A' for Active; 'I' for Inactive)
REMARK    1  A    between atoms: O_2  and  C_3 
REMARK    2  A    between atoms: C_5  and  N_6 
REMARK    3  A    between atoms: C_7  and  O_8 
REMARK    4  A    between atoms: C_7  and  C_9 
REMARK       I    between atoms: C_9  and  N_10 
REMARK    5  A    between atoms: N_10  and  C_11 
REMARK    6  A    between atoms: C_11  and  C_12 
ROOT
HETATM    1  N   UNL     1      27.393  43.787  53.498  1.00  0.00    -0.254 N 
HETATM    2  C   UNL     1      27.522  43.611  52.041  1.00  0.00     0.256 C 
HETATM    3  C   UNL     1      26.365  44.214  51.265  1.00  0.00     0.034 A 
HETATM    4  C   UNL     1      25.141  44.335  51.905  1.00  0.00     0.048 A 
HETATM    5  N   UNL     1      25.061  44.005  53.250  1.00  0.00    -0.308 N 
HETATM    6  C   UNL     1      26.128  43.782  54.073  1.00  0.00     0.330 C 
HETATM    7  O   UNL     1      25.874  43.570  55.258  1.00  0.00    -0.246 OA
HETATM    8  C   UNL     1      26.446  44.539  49.900  1.00  0.00     0.015 A 
HETATM    9  C   UNL     1      25.316  44.984  49.211  1.00  0.00     0.001 A 
HETATM   10  C   UNL     1      24.094  45.092  49.871  1.00  0.00     0.002 A 
HETATM   11  C   UNL     1      24.002  44.763  51.223  1.00  0.00     0.030 A 
HETATM   12  H   UNL     1      24.175  44.073  53.735  1.00  0.00     0.170 HD
ENDROOT
BRANCH   2  13
HETATM   13  O   UNL     1      28.686  44.307  51.583  1.00  0.00    -0.359 OA
HETATM   14  H   UNL     1      29.128  43.686  50.973  1.00  0.00     0.213 HD
ENDBRANCH   2  13
BRANCH   2  15
HETATM   15  C   UNL     1      27.614  42.072  51.674  1.00  0.00     0.279 C 
HETATM   16  N   UNL     1      26.438  41.426  51.368  1.00  0.00    -0.352 N 
HETATM   17  H   UNL     1      25.557  41.914  51.475  1.00  0.00     0.162 HD
HETATM   18  O   UNL     1      28.715  41.513  51.606  1.00  0.00    -0.268 OA
BRANCH  16  19
HETATM   19  C   UNL     1      26.414  40.072  50.871  1.00  0.00     0.163 C 
BRANCH  19  20
HETATM   20  C   UNL     1      26.614  40.044  49.378  1.00  0.00    -0.019 A 
HETATM   21  C   UNL     1      27.689  39.367  48.776  1.00  0.00     0.042 A 
HETATM   22 CL   UNL     1      28.865  38.510  49.707  1.00  0.00    -0.084 Cl
HETATM   23  C   UNL     1      27.847  39.375  47.387  1.00  0.00     0.024 A 
HETATM   24  C   UNL     1      26.939  40.061  46.581  1.00  0.00     0.002 A 
HETATM   25  C   UNL     1      25.874  40.743  47.163  1.00  0.00     0.001 A 
HETATM   26  C   UNL     1      25.714  40.738  48.550  1.00  0.00     0.010 A 
ENDBRANCH  19  20
ENDBRANCH  16  19
ENDBRANCH   2  15
BRANCH   1  27
HETATM   27  C   UNL     1      28.563  43.782  54.349  1.00  0.00     0.045 A 
HETATM   28  C   UNL     1      28.876  44.914  55.123  1.00  0.00     0.066 A 
HETATM   29  C   UNL     1      30.021  44.976  55.930  1.00  0.00     0.070 A 
HETATM   30  C   UNL     1      30.882  43.885  55.976  1.00  0.00     0.037 A 
HETATM   31  C   UNL     1      30.594  42.749  55.221  1.00  0.00     0.005 A 
HETATM   32  C   UNL     1      29.451  42.700  54.415  1.00  0.00     0.030 A 
BRANCH  29  33
HETATM   33  O   UNL     1      30.184  46.157  56.602  1.00  0.00    -0.356 OA
HETATM   34  C   UNL     1      30.428  46.075  58.000  1.00  0.00     0.210 C 
ENDBRANCH  29  33
ENDBRANCH   1  27
TORSDOF 6
ENDMDL
MODEL 6
REMARK VINA RESULT:      -8.5      2.126      5.588
REMARK  6 active torsions:
REMARK  status: ('A' for Active; 'I' for Inactive)
REMARK    1  A    between atoms: O_2  and  C_3 
REMARK    2  A    between atoms: C_5  and  N_6 
REMARK    3  A    between atoms: C_7  and  O_8 
REMARK    4  A    between atoms: C_7  and  C_9 
REMARK       I    between atoms: C_9  and  N_10 
REMARK    5  A    between atoms: N_10  and  C_11 
REMARK    6  A    between atoms: C_11  and  C_12 
ROOT
HETATM    1  N   UNL     1      29.152  49.795  40.362  1.00  0.00    -0.254 N 
HETATM    2  C   UNL     1      29.984  48.803  39.661  1.00  0.00     0.256 C 
HETATM    3  C   UNL     1      29.243  47.515  39.353  1.00  0.00     0.034 A 
HETATM    4  C   UNL     1      28.176  47.164  40.169  1.00  0.00     0.048 A 
HETATM    5  N   UNL     1      27.772  48.057  41.151  1.00  0.00    -0.308 N 
HETATM    6  C   UNL     1      28.179  49.356  41.252  1.00  0.00     0.330 C 
HETATM    7  O   UNL     1      27.662  50.026  42.145  1.00  0.00    -0.246 OA
HETATM    8  C   UNL     1      29.659  46.608  38.364  1.00  0.00     0.015 A 
HETATM    9  C   UNL     1      29.004  45.385  38.204  1.00  0.00     0.001 A 
HETATM   10  C   UNL     1      27.940  45.049  39.038  1.00  0.00     0.002 A 
HETATM   11  C   UNL     1      27.525  45.939  40.028  1.00  0.00     0.030 A 
HETATM   12  H   UNL     1      27.005  47.816  41.766  1.00  0.00     0.170 HD
ENDROOT
BRANCH   2  13
HETATM   13  O   UNL     1      30.369  49.329  38.385  1.00  0.00    -0.359 OA
HETATM   14  H   UNL     1      29.533  49.593  37.958  1.00  0.00     0.213 HD
ENDBRANCH   2  13
BRANCH   2  15
HETATM   15  C   UNL     1      31.264  48.443  40.523  1.00  0.00     0.279 C 
HETATM   16  N   UNL     1      32.401  49.188  40.302  1.00  0.00    -0.352 N 
HETATM   17  H   UNL     1      32.417  49.865  39.549  1.00  0.00     0.162 HD
HETATM   18  O   UNL     1      31.201  47.573  41.398  1.00  0.00    -0.268 OA
BRANCH  16  19
HETATM   19  C   UNL     1      33.575  49.057  41.130  1.00  0.00     0.163 C 
BRANCH  19  20
HETATM   20  C   UNL     1      33.603  50.122  42.196  1.00  0.00    -0.019 A 
HETATM   21  C   UNL     1      34.747  50.895  42.456  1.00  0.00     0.042 A 
HETATM   22 CL   UNL     1      36.214  50.684  41.568  1.00  0.00    -0.084 Cl
HETATM   23  C   UNL     1      34.737  51.865  43.463  1.00  0.00     0.024 A 
HETATM   24  C   UNL     1      33.587  52.074  44.225  1.00  0.00     0.002 A 
HETATM   25  C   UNL     1      32.449  51.310  43.984  1.00  0.00     0.001 A 
HETATM   26  C   UNL     1      32.457  50.339  42.981  1.00  0.00     0.010 A 
ENDBRANCH  19  20
ENDBRANCH  16  19
ENDBRANCH   2  15
BRANCH   1  27
HETATM   27  C   UNL     1      29.453  51.208  40.275  1.00  0.00     0.045 A 
HETATM   28  C   UNL     1      30.779  51.655  40.420  1.00  0.00     0.066 A 
HETATM   29  C   UNL     1      31.116  53.016  40.387  1.00  0.00     0.070 A 
HETATM   30  C   UNL     1      30.115  53.963  40.203  1.00  0.00     0.037 A 
HETATM   31  C   UNL     1      28.794  53.546  40.055  1.00  0.00     0.005 A 
HETATM   32  C   UNL     1      28.467  52.186  40.094  1.00  0.00     0.030 A 
BRANCH  29  33
HETATM   33  O   UNL     1      32.449  53.279  40.562  1.00  0.00    -0.356 OA
HETATM   34  C   UNL     1      33.343  52.748  39.593  1.00  0.00     0.210 C 
ENDBRANCH  29  33
ENDBRANCH   1  27
TORSDOF 6
ENDMDL
MODEL 7
REMARK VINA RESULT:      -8.5     10.535     12.629
REMARK  6 active torsions:
REMARK  status: ('A' for Active; 'I' for Inactive)
REMARK    1  A    between atoms: O_2  and  C_3 
REMARK    2  A    between atoms: C_5  and  N_6 
REMARK    3  A    between atoms: C_7  and  O_8 
REMARK    4  A    between atoms: C_7  and  C_9 
REMARK       I    between atoms: C_9  and  N_10 
REMARK    5  A    between atoms: N_10  and  C_11 
REMARK    6  A    between atoms: C_11  and  C_12 
ROOT
HETATM    1  N   UNL     1      24.284  44.657  49.955  1.00  0.00    -0.254 N 
HETATM    2  C   UNL     1      25.725  44.514  50.229  1.00  0.00     0.256 C 
HETATM    3  C   UNL     1      26.199  43.073  50.183  1.00  0.00     0.034 A 
HETATM    4  C   UNL     1      25.277  42.073  50.453  1.00  0.00     0.048 A 
HETATM    5  N   UNL     1      23.949  42.429  50.641  1.00  0.00    -0.308 N 
HETATM    6  C   UNL     1      23.414  43.654  50.364  1.00  0.00     0.330 C 
HETATM    7  O   UNL     1      22.200  43.772  50.524  1.00  0.00    -0.246 OA
HETATM    8  C   UNL     1      27.546  42.715  50.002  1.00  0.00     0.015 A 
HETATM    9  C   UNL     1      27.940  41.378  50.083  1.00  0.00     0.001 A 
HETATM   10  C   UNL     1      26.998  40.389  50.362  1.00  0.00     0.002 A 
HETATM   11  C   UNL     1      25.662  40.736  50.552  1.00  0.00     0.030 A 
HETATM   12  H   UNL     1      23.261  41.717  50.852  1.00  0.00     0.170 HD
ENDROOT
BRANCH   2  13
HETATM   13  O   UNL     1      26.468  45.188  49.207  1.00  0.00    -0.359 OA
HETATM   14  H   UNL     1      27.090  45.767  49.687  1.00  0.00     0.213 HD
ENDBRANCH   2  13
BRANCH   2  15
HETATM   15  C   UNL     1      26.079  45.107  51.656  1.00  0.00     0.279 C 
HETATM   16  N   UNL     1      25.906  44.278  52.742  1.00  0.00    -0.352 N 
HETATM   17  H   UNL     1      25.478  43.369  52.614  1.00  0.00     0.162 HD
HETATM   18  O   UNL     1      26.555  46.243  51.757  1.00  0.00    -0.268 OA
BRANCH  16  19
HETATM   19  C   UNL     1      26.340  44.651  54.066  1.00  0.00     0.163 C 
BRANCH  19  20
HETATM   20  C   UNL     1      27.741  44.165  54.331  1.00  0.00    -0.019 A 
HETATM   21  C   UNL     1      28.660  44.902  55.096  1.00  0.00     0.042 A 
HETATM   22 CL   UNL     1      28.251  46.427  55.797  1.00  0.00    -0.084 Cl
HETATM   23  C   UNL     1      29.957  44.422  55.308  1.00  0.00     0.024 A 
HETATM   24  C   UNL     1      30.353  43.203  54.756  1.00  0.00     0.002 A 
HETATM   25  C   UNL     1      29.455  42.466  53.989  1.00  0.00     0.001 A 
HETATM   26  C   UNL     1      28.161  42.944  53.774  1.00  0.00     0.010 A 
ENDBRANCH  19  20
ENDBRANCH  16  19
ENDBRANCH   2  15
BRANCH   1  27
HETATM   27  C   UNL     1      23.750  45.897  49.435  1.00  0.00     0.045 A 
HETATM   28  C   UNL     1      22.929  45.886  48.293  1.00  0.00     0.066 A 
HETATM   29  C   UNL     1      22.423  47.064  47.725  1.00  0.00     0.070 A 
HETATM   30  C   UNL     1      22.734  48.289  48.304  1.00  0.00     0.037 A 
HETATM   31  C   UNL     1      23.543  48.328  49.439  1.00  0.00     0.005 A 
HETATM   32  C   UNL     1      24.048  47.147  49.995  1.00  0.00     0.030 A 
BRANCH  29  33
HETATM   33  O   UNL     1      21.657  46.876  46.606  1.00  0.00    -0.356 OA
HETATM   34  C   UNL     1      21.661  45.576  46.032  1.00  0.00     0.210 C 
ENDBRANCH  29  33
ENDBRANCH   1  27
TORSDOF 6
ENDMDL
MODEL 8
REMARK VINA RESULT:      -8.4     10.788     12.701
REMARK  6 active torsions:
REMARK  status: ('A' for Active; 'I' for Inactive)
REMARK    1  A    between atoms: O_2  and  C_3 
REMARK    2  A    between atoms: C_5  and  N_6 
REMARK    3  A    between atoms: C_7  and  O_8 
REMARK    4  A    between atoms: C_7  and  C_9 
REMARK       I    between atoms: C_9  and  N_10 
REMARK    5  A    between atoms: N_10  and  C_11 
REMARK    6  A    between atoms: C_11  and  C_12 
ROOT
HETATM    1  N   UNL     1      24.847  42.632  49.224  1.00  0.00    -0.254 N 
HETATM    2  C   UNL     1      26.178  42.007  49.140  1.00  0.00     0.256 C 
HETATM    3  C   UNL     1      26.258  40.918  48.086  1.00  0.00     0.034 A 
HETATM    4  C   UNL     1      25.090  40.255  47.741  1.00  0.00     0.048 A 
HETATM    5  N   UNL     1      23.893  40.691  48.292  1.00  0.00    -0.308 N 
HETATM    6  C   UNL     1      23.719  41.861  48.973  1.00  0.00     0.330 C 
HETATM    7  O   UNL     1      22.571  42.123  49.330  1.00  0.00    -0.246 OA
HETATM    8  C   UNL     1      27.472  40.472  47.536  1.00  0.00     0.015 A 
HETATM    9  C   UNL     1      27.494  39.389  46.655  1.00  0.00     0.001 A 
HETATM   10  C   UNL     1      26.310  38.732  46.328  1.00  0.00     0.002 A 
HETATM   11  C   UNL     1      25.102  39.162  46.875  1.00  0.00     0.030 A 
HETATM   12  H   UNL     1      23.030  40.213  48.065  1.00  0.00     0.170 HD
ENDROOT
BRANCH   2  13
HETATM   13  O   UNL     1      27.137  42.992  48.737  1.00  0.00    -0.359 OA
HETATM   14  H   UNL     1      26.657  43.841  48.774  1.00  0.00     0.213 HD
ENDBRANCH   2  13
BRANCH   2  15
HETATM   15  C   UNL     1      26.583  41.376  50.536  1.00  0.00     0.279 C 
HETATM   16  N   UNL     1      27.581  42.006  51.246  1.00  0.00    -0.352 N 
HETATM   17  H   UNL     1      28.081  42.780  50.826  1.00  0.00     0.162 HD
HETATM   18  O   UNL     1      25.969  40.399  50.979  1.00  0.00    -0.268 OA
BRANCH  16  19
HETATM   19  C   UNL     1      27.926  41.617  52.591  1.00  0.00     0.163 C 
BRANCH  19  20
HETATM   20  C   UNL     1      27.956  42.813  53.506  1.00  0.00    -0.019 A 
HETATM   21  C   UNL     1      29.159  43.394  53.945  1.00  0.00     0.042 A 
HETATM   22 CL   UNL     1      30.699  42.778  53.463  1.00  0.00    -0.084 Cl
HETATM   23  C   UNL     1      29.145  44.496  54.805  1.00  0.00     0.024 A 
HETATM   24  C   UNL     1      27.933  45.031  55.241  1.00  0.00     0.002 A 
HETATM   25  C   UNL     1      26.734  44.461  54.821  1.00  0.00     0.001 A 
HETATM   26  C   UNL     1      26.745  43.359  53.964  1.00  0.00     0.010 A 
ENDBRANCH  19  20
ENDBRANCH  16  19
ENDBRANCH   2  15
BRANCH   1  27
HETATM   27  C   UNL     1      24.692  43.977  49.736  1.00  0.00     0.045 A 
HETATM   28  C   UNL     1      24.087  44.968  48.943  1.00  0.00     0.066 A 
HETATM   29  C   UNL     1      23.954  46.295  49.376  1.00  0.00     0.070 A 
HETATM   30  C   UNL     1      24.429  46.653  50.633  1.00  0.00     0.037 A 
HETATM   31  C   UNL     1      25.030  45.689  51.441  1.00  0.00     0.005 A 
HETATM   32  C   UNL     1      25.163  44.369  50.997  1.00  0.00     0.030 A 
BRANCH  29  33
HETATM   33  O   UNL     1      23.359  47.134  48.473  1.00  0.00    -0.356 OA
HETATM   34  C   UNL     1      22.191  46.656  47.820  1.00  0.00     0.210 C 
ENDBRANCH  29  33
ENDBRANCH   1  27
TORSDOF 6
ENDMDL
MODEL 9
REMARK VINA RESULT:      -8.4     10.777     12.727
REMARK  6 active torsions:
REMARK  status: ('A' for Active; 'I' for Inactive)
REMARK    1  A    between atoms: O_2  and  C_3 
REMARK    2  A    between atoms: C_5  and  N_6 
REMARK    3  A    between atoms: C_7  and  O_8 
REMARK    4  A    between atoms: C_7  and  C_9 
REMARK       I    between atoms: C_9  and  N_10 
REMARK    5  A    between atoms: N_10  and  C_11 
REMARK    6  A    between atoms: C_11  and  C_12 
ROOT
HETATM    1  N   UNL     1      21.941  44.960  48.005  1.00  0.00    -0.254 N 
HETATM    2  C   UNL     1      20.781  45.824  48.278  1.00  0.00     0.256 C 
HETATM    3  C   UNL     1      19.648  45.632  47.286  1.00  0.00     0.034 A 
HETATM    4  C   UNL     1      19.964  45.170  46.016  1.00  0.00     0.048 A 
HETATM    5  N   UNL     1      21.276  44.804  45.751  1.00  0.00    -0.308 N 
HETATM    6  C   UNL     1      22.254  44.639  46.690  1.00  0.00     0.330 C 
HETATM    7  O   UNL     1      23.344  44.240  46.283  1.00  0.00    -0.246 OA
HETATM    8  C   UNL     1      18.322  46.012  47.553  1.00  0.00     0.015 A 
HETATM    9  C   UNL     1      17.345  45.916  46.560  1.00  0.00     0.001 A 
HETATM   10  C   UNL     1      17.685  45.457  45.289  1.00  0.00     0.002 A 
HETATM   11  C   UNL     1      18.999  45.086  45.012  1.00  0.00     0.030 A 
HETATM   12  H   UNL     1      21.532  44.477  44.828  1.00  0.00     0.170 HD
ENDROOT
BRANCH   2  13
HETATM   13  O   UNL     1      20.225  45.480  49.553  1.00  0.00    -0.359 OA
HETATM   14  H   UNL     1      19.325  45.857  49.546  1.00  0.00     0.213 HD
ENDBRANCH   2  13
BRANCH   2  15
HETATM   15  C   UNL     1      21.207  47.350  48.252  1.00  0.00     0.279 C 
HETATM   16  N   UNL     1      20.907  48.107  49.362  1.00  0.00    -0.352 N 
HETATM   17  H   UNL     1      20.353  47.703  50.107  1.00  0.00     0.162 HD
HETATM   18  O   UNL     1      21.842  47.803  47.293  1.00  0.00    -0.268 OA
BRANCH  16  19
HETATM   19  C   UNL     1      21.381  49.461  49.518  1.00  0.00     0.163 C 
BRANCH  19  20
HETATM   20  C   UNL     1      20.249  50.446  49.380  1.00  0.00    -0.019 A 
HETATM   21  C   UNL     1      19.050  50.318  50.101  1.00  0.00     0.042 A 
HETATM   22 CL   UNL     1      18.783  49.017  51.206  1.00  0.00    -0.084 Cl
HETATM   23  C   UNL     1      18.017  51.247  49.935  1.00  0.00     0.024 A 
HETATM   24  C   UNL     1      18.167  52.311  49.047  1.00  0.00     0.002 A 
HETATM   25  C   UNL     1      19.346  52.446  48.320  1.00  0.00     0.001 A 
HETATM   26  C   UNL     1      20.378  51.520  48.482  1.00  0.00     0.010 A 
ENDBRANCH  19  20
ENDBRANCH  16  19
ENDBRANCH   2  15
BRANCH   1  27
HETATM   27  C   UNL     1      22.856  44.593  49.065  1.00  0.00     0.045 A 
HETATM   28  C   UNL     1      23.779  45.534  49.556  1.00  0.00     0.066 A 
HETATM   29  C   UNL     1      24.714  45.215  50.550  1.00  0.00     0.070 A 
HETATM   30  C   UNL     1      24.737  43.929  51.079  1.00  0.00     0.037 A 
HETATM   31  C   UNL     1      23.831  42.978  50.612  1.00  0.00     0.005 A 
HETATM   32  C   UNL     1      22.905  43.305  49.616  1.00  0.00     0.030 A 
BRANCH  29  33
HETATM   33  O   UNL     1      25.550  46.242  50.900  1.00  0.00    -0.356 OA
HETATM   34  C   UNL     1      25.460  46.722  52.234  1.00  0.00     0.210 C 
ENDBRANCH  29  33
ENDBRANCH   1  27
TORSDOF 6
ENDMDL
MODEL 10
REMARK VINA RESULT:      -8.3     10.370     12.931
REMARK  6 active torsions:
REMARK  status: ('A' for Active; 'I' for Inactive)
REMARK    1  A    between atoms: O_2  and  C_3 
REMARK    2  A    between atoms: C_5  and  N_6 
REMARK    3  A    between atoms: C_7  and  O_8 
REMARK    4  A    between atoms: C_7  and  C_9 
REMARK       I    between atoms: C_9  and  N_10 
REMARK    5  A    between atoms: N_10  and  C_11 
REMARK    6  A    between atoms: C_11  and  C_12 
ROOT
HETATM    1  N   UNL     1      25.521  45.340  50.489  1.00  0.00    -0.254 N 
HETATM    2  C   UNL     1      25.108  44.360  51.508  1.00  0.00     0.256 C 
HETATM    3  C   UNL     1      26.203  44.048  52.512  1.00  0.00     0.034 A 
HETATM    4  C   UNL     1      27.521  44.212  52.113  1.00  0.00     0.048 A 
HETATM    5  N   UNL     1      27.772  44.755  50.861  1.00  0.00    -0.308 N 
HETATM    6  C   UNL     1      26.843  45.359  50.062  1.00  0.00     0.330 C 
HETATM    7  O   UNL     1      27.257  45.850  49.013  1.00  0.00    -0.246 OA
HETATM    8  C   UNL     1      25.947  43.490  53.776  1.00  0.00     0.015 A 
HETATM    9  C   UNL     1      27.002  43.118  54.612  1.00  0.00     0.001 A 
HETATM   10  C   UNL     1      28.319  43.284  54.189  1.00  0.00     0.002 A 
HETATM   11  C   UNL     1      28.583  43.830  52.933  1.00  0.00     0.030 A 
HETATM   12  H   UNL     1      28.727  44.872  50.544  1.00  0.00     0.170 HD
ENDROOT
BRANCH   2  13
HETATM   13  O   UNL     1      24.034  44.907  52.281  1.00  0.00    -0.359 OA
HETATM   14  H   UNL     1      23.233  44.455  51.955  1.00  0.00     0.213 HD
ENDBRANCH   2  13
BRANCH   2  15
HETATM   15  C   UNL     1      24.664  43.002  50.823  1.00  0.00     0.279 C 
HETATM   16  N   UNL     1      25.579  42.382  50.002  1.00  0.00    -0.352 N 
HETATM   17  H   UNL     1      26.453  42.846  49.788  1.00  0.00     0.162 HD
HETATM   18  O   UNL     1      23.563  42.504  51.084  1.00  0.00    -0.268 OA
BRANCH  16  19
HETATM   19  C   UNL     1      25.347  41.070  49.450  1.00  0.00     0.163 C 
BRANCH  19  20
HETATM   20  C   UNL     1      26.584  40.215  49.555  1.00  0.00    -0.019 A 
HETATM   21  C   UNL     1      26.823  39.131  48.695  1.00  0.00     0.042 A 
HETATM   22 CL   UNL     1      25.714  38.694  47.444  1.00  0.00    -0.084 Cl
HETATM   23  C   UNL     1      27.978  38.353  48.833  1.00  0.00     0.024 A 
HETATM   24  C   UNL     1      28.905  38.646  49.833  1.00  0.00     0.002 A 
HETATM   25  C   UNL     1      28.677  39.713  50.698  1.00  0.00     0.001 A 
HETATM   26  C   UNL     1      27.525  40.489  50.563  1.00  0.00     0.010 A 
ENDBRANCH  19  20
ENDBRANCH  16  19
ENDBRANCH   2  15
BRANCH   1  27
HETATM   27  C   UNL     1      24.539  46.152  49.803  1.00  0.00     0.045 A 
HETATM   28  C   UNL     1      24.460  47.532  50.064  1.00  0.00     0.066 A 
HETATM   29  C   UNL     1      23.498  48.353  49.458  1.00  0.00     0.070 A 
HETATM   30  C   UNL     1      22.589  47.795  48.566  1.00  0.00     0.037 A 
HETATM   31  C   UNL     1      22.647  46.431  48.288  1.00  0.00     0.005 A 
HETATM   32  C   UNL     1      23.608  45.619  48.902  1.00  0.00     0.030 A 
BRANCH  29  33
HETATM   33  O   UNL     1      23.549  49.668  49.836  1.00  0.00    -0.356 OA
HETATM   34  C   UNL     1      23.070  50.627  48.903  1.00  0.00     0.210 C 
ENDBRANCH  29  33
ENDBRANCH   1  27
TORSDOF 6
ENDMDL
