MODEL 1
REMARK VINA RESULT:      -9.7      0.000      0.000
REMARK  7 active torsions:
REMARK  status: ('A' for Active; 'I' for Inactive)
REMARK    1  A    between atoms: C_3  and  C_4 
REMARK    2  A    between atoms: C_9  and  N_10 
REMARK       I    between atoms: N_10  and  C_11 
REMARK       I    between atoms: C_11  and  N_15 
REMARK    3  A    between atoms: N_15  and  CA_16 
REMARK    4  A    between atoms: CA_16  and  C_17 
REMARK    5  A    between atoms: CA_16  and  CB_19 
REMARK    6  A    between atoms: C_17  and  O_18 
REMARK    7  A    between atoms: CB_19  and  CG_20 
ROOT
HETATM    1  N   UNK A   0      25.400  45.741  51.872  1.00  0.00    -0.309 N 
HETATM    2  C   UNK A   0      25.769  45.781  53.179  1.00  0.00     0.321 C 
HETATM    3  O   UNK A   0      25.722  44.742  53.838  1.00  0.00    -0.247 OA
HETATM    4  H   UNK A   0      25.274  44.780  51.579  1.00  0.00     0.170 HD
ATOM      5  N   TRP A   1      26.237  46.948  53.686  1.00  0.00    -0.336 N 
ATOM      6  H   TRP A   1      26.598  47.631  53.037  1.00  0.00     0.164 HD
ENDROOT
BRANCH   5   7
ATOM      7  CA  TRP A   1      26.904  47.001  54.987  1.00  0.00     0.114 C 
BRANCH   7   8
ATOM      8  C   TRP A   1      26.367  48.185  55.810  1.00  0.00     0.189 C 
BRANCH   8   9
ATOM      9  O   TRP A   1      25.373  48.915  55.090  1.00  0.00    -0.399 OA
ATOM     10  H   TRP A   1      24.874  49.436  55.742  1.00  0.00     0.209 HD
ENDBRANCH   8   9
ENDBRANCH   7   8
BRANCH   7  11
ATOM     11  CB  TRP A   1      28.446  46.967  54.842  1.00  0.00     0.068 C 
BRANCH  11  12
ATOM     12  CG  TRP A   1      29.105  45.623  54.979  1.00  0.00    -0.028 A 
ATOM     13  CD2 TRP A   1      29.965  45.158  56.030  1.00  0.00    -0.002 A 
ATOM     14  CE2 TRP A   1      30.305  43.836  55.738  1.00  0.00     0.042 A 
ATOM     15  CE3 TRP A   1      30.485  45.728  57.211  1.00  0.00     0.014 A 
ATOM     16  CZ2 TRP A   1      31.108  43.052  56.574  1.00  0.00     0.030 A 
ATOM     17  NE1 TRP A   1      29.720  43.523  54.534  1.00  0.00    -0.365 N 
ATOM     18  CH2 TRP A   1      31.580  43.634  57.753  1.00  0.00     0.002 A 
ATOM     19  CZ3 TRP A   1      31.277  44.955  58.069  1.00  0.00     0.001 A 
ATOM     20  HE1 TRP A   1      29.817  42.634  54.066  1.00  0.00     0.165 HD
ATOM     21  CD1 TRP A   1      29.000  44.588  54.067  1.00  0.00     0.096 A 
ENDBRANCH  11  12
ENDBRANCH   7  11
ENDBRANCH   5   7
BRANCH   1  22
HETATM   22  C   UNK A   0      25.252  46.724  50.880  1.00  0.00     0.036 A 
HETATM   23  C   UNK A   0      24.046  47.053  50.265  1.00  0.00     0.030 A 
HETATM   24  C   UNK A   0      23.993  48.093  49.330  1.00  0.00     0.018 A 
HETATM   25  C   UNK A   0      25.150  48.802  48.975  1.00  0.00     0.015 A 
HETATM   26  C   UNK A   0      26.386  48.437  49.539  1.00  0.00    -0.046 A 
HETATM   27  C   UNK A   0      27.676  49.135  49.198  1.00  0.00     0.049 C 
HETATM   28  C   UNK A   0      26.416  47.396  50.486  1.00  0.00     0.037 A 
BRANCH  25  29
HETATM   29  C   UNK A   0      25.036  49.946  48.021  1.00  0.00     0.156 C 
HETATM   30  C   UNK A   0      23.760  50.747  48.011  1.00  0.00     0.097 C 
HETATM   31  O   UNK A   0      25.976  50.244  47.288  1.00  0.00    -0.293 OA
ENDBRANCH  25  29
ENDBRANCH   1  22
TORSDOF 7
ENDMDL
MODEL 2
REMARK VINA RESULT:      -9.6      1.754      2.068
REMARK  7 active torsions:
REMARK  status: ('A' for Active; 'I' for Inactive)
REMARK    1  A    between atoms: C_3  and  C_4 
REMARK    2  A    between atoms: C_9  and  N_10 
REMARK       I    between atoms: N_10  and  C_11 
REMARK       I    between atoms: C_11  and  N_15 
REMARK    3  A    between atoms: N_15  and  CA_16 
REMARK    4  A    between atoms: CA_16  and  C_17 
REMARK    5  A    between atoms: CA_16  and  CB_19 
REMARK    6  A    between atoms: C_17  and  O_18 
REMARK    7  A    between atoms: CB_19  and  CG_20 
ROOT
HETATM    1  N   UNK A   0      26.941  45.525  50.082  1.00  0.00    -0.309 N 
HETATM    2  C   UNK A   0      27.049  44.812  51.234  1.00  0.00     0.321 C 
HETATM    3  O   UNK A   0      27.851  43.879  51.278  1.00  0.00    -0.247 OA
HETATM    4  H   UNK A   0      27.681  45.260  49.443  1.00  0.00     0.170 HD
ATOM      5  N   TRP A   1      26.319  45.200  52.309  1.00  0.00    -0.336 N 
ATOM      6  H   TRP A   1      25.989  46.153  52.331  1.00  0.00     0.164 HD
ENDROOT
BRANCH   5   7
ATOM      7  CA  TRP A   1      26.584  44.665  53.644  1.00  0.00     0.114 C 
BRANCH   7   8
ATOM      8  C   TRP A   1      25.264  44.485  54.414  1.00  0.00     0.189 C 
BRANCH   8   9
ATOM      9  O   TRP A   1      25.326  43.373  55.306  1.00  0.00    -0.399 OA
ATOM     10  H   TRP A   1      24.435  43.253  55.675  1.00  0.00     0.209 HD
ENDBRANCH   8   9
ENDBRANCH   7   8
BRANCH   7  11
ATOM     11  CB  TRP A   1      27.657  45.495  54.392  1.00  0.00     0.068 C 
BRANCH  11  12
ATOM     12  CG  TRP A   1      28.864  44.747  54.886  1.00  0.00    -0.028 A 
ATOM     13  CD2 TRP A   1      29.622  44.973  56.083  1.00  0.00    -0.002 A 
ATOM     14  CE2 TRP A   1      30.631  44.010  56.126  1.00  0.00     0.042 A 
ATOM     15  CE3 TRP A   1      29.547  45.900  57.144  1.00  0.00     0.014 A 
ATOM     16  CZ2 TRP A   1      31.544  43.909  57.183  1.00  0.00     0.030 A 
ATOM     17  NE1 TRP A   1      30.527  43.260  54.980  1.00  0.00    -0.365 N 
ATOM     18  CH2 TRP A   1      31.422  44.819  58.236  1.00  0.00     0.002 A 
ATOM     19  CZ3 TRP A   1      30.440  45.805  58.218  1.00  0.00     0.001 A 
ATOM     20  HE1 TRP A   1      31.146  42.502  54.735  1.00  0.00     0.165 HD
ATOM     21  CD1 TRP A   1      29.472  43.694  54.225  1.00  0.00     0.096 A 
ENDBRANCH  11  12
ENDBRANCH   7  11
ENDBRANCH   5   7
BRANCH   1  22
HETATM   22  C   UNK A   0      26.094  46.564  49.665  1.00  0.00     0.036 A 
HETATM   23  C   UNK A   0      24.705  46.483  49.619  1.00  0.00     0.030 A 
HETATM   24  C   UNK A   0      23.945  47.598  49.246  1.00  0.00     0.018 A 
HETATM   25  C   UNK A   0      24.565  48.804  48.888  1.00  0.00     0.015 A 
HETATM   26  C   UNK A   0      25.970  48.881  48.867  1.00  0.00    -0.046 A 
HETATM   27  C   UNK A   0      26.713  50.131  48.478  1.00  0.00     0.049 C 
HETATM   28  C   UNK A   0      26.715  47.752  49.257  1.00  0.00     0.037 A 
BRANCH  25  29
HETATM   29  C   UNK A   0      23.715  49.988  48.560  1.00  0.00     0.156 C 
HETATM   30  C   UNK A   0      23.084  50.754  49.693  1.00  0.00     0.097 C 
HETATM   31  O   UNK A   0      23.565  50.344  47.394  1.00  0.00    -0.293 OA
ENDBRANCH  25  29
ENDBRANCH   1  22
TORSDOF 7
ENDMDL
MODEL 3
REMARK VINA RESULT:      -9.2      4.218      8.207
REMARK  7 active torsions:
REMARK  status: ('A' for Active; 'I' for Inactive)
REMARK    1  A    between atoms: C_3  and  C_4 
REMARK    2  A    between atoms: C_9  and  N_10 
REMARK       I    between atoms: N_10  and  C_11 
REMARK       I    between atoms: C_11  and  N_15 
REMARK    3  A    between atoms: N_15  and  CA_16 
REMARK    4  A    between atoms: CA_16  and  C_17 
REMARK    5  A    between atoms: CA_16  and  CB_19 
REMARK    6  A    between atoms: C_17  and  O_18 
REMARK    7  A    between atoms: CB_19  and  CG_20 
ROOT
HETATM    1  N   UNK A   0      28.743  40.373  52.048  1.00  0.00    -0.309 N 
HETATM    2  C   UNK A   0      28.452  40.104  50.748  1.00  0.00     0.321 C 
HETATM    3  O   UNK A   0      28.540  38.942  50.351  1.00  0.00    -0.247 OA
HETATM    4  H   UNK A   0      28.855  39.507  52.561  1.00  0.00     0.170 HD
ATOM      5  N   TRP A   1      28.012  41.115  49.959  1.00  0.00    -0.336 N 
ATOM      6  H   TRP A   1      27.611  41.923  50.412  1.00  0.00     0.164 HD
ENDROOT
BRANCH   5   7
ATOM      7  CA  TRP A   1      27.422  40.856  48.646  1.00  0.00     0.114 C 
BRANCH   7   8
ATOM      8  C   TRP A   1      28.530  40.621  47.605  1.00  0.00     0.189 C 
BRANCH   8   9
ATOM      9  O   TRP A   1      28.352  41.448  46.455  1.00  0.00    -0.399 OA
ATOM     10  H   TRP A   1      27.395  41.524  46.304  1.00  0.00     0.209 HD
ENDBRANCH   8   9
ENDBRANCH   7   8
BRANCH   7  11
ATOM     11  CB  TRP A   1      26.394  41.948  48.254  1.00  0.00     0.068 C 
BRANCH  11  12
ATOM     12  CG  TRP A   1      25.555  42.512  49.367  1.00  0.00    -0.028 A 
ATOM     13  CD2 TRP A   1      25.843  43.632  50.217  1.00  0.00    -0.002 A 
ATOM     14  CE2 TRP A   1      24.755  43.793  51.077  1.00  0.00     0.042 A 
ATOM     15  CE3 TRP A   1      26.920  44.534  50.338  1.00  0.00     0.014 A 
ATOM     16  CZ2 TRP A   1      24.678  44.821  52.024  1.00  0.00     0.030 A 
ATOM     17  NE1 TRP A   1      23.864  42.785  50.799  1.00  0.00    -0.365 N 
ATOM     18  CH2 TRP A   1      25.746  45.719  52.096  1.00  0.00     0.002 A 
ATOM     19  CZ3 TRP A   1      26.855  45.578  51.268  1.00  0.00     0.001 A 
ATOM     20  HE1 TRP A   1      22.992  42.643  51.288  1.00  0.00     0.165 HD
ATOM     21  CD1 TRP A   1      24.334  42.007  49.778  1.00  0.00     0.096 A 
ENDBRANCH  11  12
ENDBRANCH   7  11
ENDBRANCH   5   7
BRANCH   1  22
HETATM   22  C   UNK A   0      28.831  41.560  52.793  1.00  0.00     0.036 A 
HETATM   23  C   UNK A   0      29.972  42.351  52.891  1.00  0.00     0.030 A 
HETATM   24  C   UNK A   0      29.939  43.551  53.611  1.00  0.00     0.018 A 
HETATM   25  C   UNK A   0      28.770  43.965  54.265  1.00  0.00     0.015 A 
HETATM   26  C   UNK A   0      27.628  43.144  54.229  1.00  0.00    -0.046 A 
HETATM   27  C   UNK A   0      26.340  43.506  54.920  1.00  0.00     0.049 C 
HETATM   28  C   UNK A   0      27.679  41.947  53.490  1.00  0.00     0.037 A 
BRANCH  25  29
HETATM   29  C   UNK A   0      28.759  45.284  54.968  1.00  0.00     0.156 C 
HETATM   30  C   UNK A   0      29.642  45.459  56.176  1.00  0.00     0.097 C 
HETATM   31  O   UNK A   0      28.071  46.210  54.546  1.00  0.00    -0.293 OA
ENDBRANCH  25  29
ENDBRANCH   1  22
TORSDOF 7
ENDMDL
MODEL 4
REMARK VINA RESULT:      -9.1      2.861      4.867
REMARK  7 active torsions:
REMARK  status: ('A' for Active; 'I' for Inactive)
REMARK    1  A    between atoms: C_3  and  C_4 
REMARK    2  A    between atoms: C_9  and  N_10 
REMARK       I    between atoms: N_10  and  C_11 
REMARK       I    between atoms: C_11  and  N_15 
REMARK    3  A    between atoms: N_15  and  CA_16 
REMARK    4  A    between atoms: CA_16  and  C_17 
REMARK    5  A    between atoms: CA_16  and  CB_19 
REMARK    6  A    between atoms: C_17  and  O_18 
REMARK    7  A    between atoms: CB_19  and  CG_20 
ROOT
HETATM    1  N   UNK A   0      25.090  49.393  48.646  1.00  0.00    -0.309 N 
HETATM    2  C   UNK A   0      25.841  48.419  49.223  1.00  0.00     0.321 C 
HETATM    3  O   UNK A   0      27.048  48.383  48.983  1.00  0.00    -0.247 OA
HETATM    4  H   UNK A   0      25.693  50.070  48.195  1.00  0.00     0.170 HD
ATOM      5  N   TRP A   1      25.244  47.567  50.093  1.00  0.00    -0.336 N 
ATOM      6  H   TRP A   1      24.383  47.867  50.526  1.00  0.00     0.164 HD
ENDROOT
BRANCH   5   7
ATOM      7  CA  TRP A   1      26.027  46.682  50.953  1.00  0.00     0.114 C 
BRANCH   7   8
ATOM      8  C   TRP A   1      26.294  45.347  50.237  1.00  0.00     0.189 C 
BRANCH   8   9
ATOM      9  O   TRP A   1      27.559  45.352  49.574  1.00  0.00    -0.399 OA
ATOM     10  H   TRP A   1      27.502  46.004  48.856  1.00  0.00     0.209 HD
ENDBRANCH   8   9
ENDBRANCH   7   8
BRANCH   7  11
ATOM     11  CB  TRP A   1      25.393  46.540  52.360  1.00  0.00     0.068 C 
BRANCH  11  12
ATOM     12  CG  TRP A   1      26.324  46.666  53.534  1.00  0.00    -0.028 A 
ATOM     13  CD2 TRP A   1      27.349  45.756  53.957  1.00  0.00    -0.002 A 
ATOM     14  CE2 TRP A   1      27.968  46.315  55.077  1.00  0.00     0.042 A 
ATOM     15  CE3 TRP A   1      27.822  44.510  53.494  1.00  0.00     0.014 A 
ATOM     16  CZ2 TRP A   1      29.046  45.710  55.734  1.00  0.00     0.030 A 
ATOM     17  NE1 TRP A   1      27.314  47.491  55.357  1.00  0.00    -0.365 N 
ATOM     18  CH2 TRP A   1      29.513  44.493  55.231  1.00  0.00     0.002 A 
ATOM     19  CZ3 TRP A   1      28.909  43.897  54.128  1.00  0.00     0.001 A 
ATOM     20  HE1 TRP A   1      27.537  48.097  56.133  1.00  0.00     0.165 HD
ATOM     21  CD1 TRP A   1      26.324  47.712  54.441  1.00  0.00     0.096 A 
ENDBRANCH  11  12
ENDBRANCH   7  11
ENDBRANCH   5   7
BRANCH   1  22
HETATM   22  C   UNK A   0      23.714  49.669  48.631  1.00  0.00     0.036 A 
HETATM   23  C   UNK A   0      23.146  50.887  48.995  1.00  0.00     0.030 A 
HETATM   24  C   UNK A   0      21.764  51.082  48.885  1.00  0.00     0.018 A 
HETATM   25  C   UNK A   0      20.926  50.052  48.435  1.00  0.00     0.015 A 
HETATM   26  C   UNK A   0      21.477  48.795  48.126  1.00  0.00    -0.046 A 
HETATM   27  C   UNK A   0      20.645  47.633  47.654  1.00  0.00     0.049 C 
HETATM   28  C   UNK A   0      22.871  48.624  48.231  1.00  0.00     0.037 A 
BRANCH  25  29
HETATM   29  C   UNK A   0      19.465  50.323  48.271  1.00  0.00     0.156 C 
HETATM   30  C   UNK A   0      18.978  50.853  46.948  1.00  0.00     0.097 C 
HETATM   31  O   UNK A   0      18.681  50.087  49.186  1.00  0.00    -0.293 OA
ENDBRANCH  25  29
ENDBRANCH   1  22
TORSDOF 7
ENDMDL
MODEL 5
REMARK VINA RESULT:      -9.1      3.062      5.029
REMARK  7 active torsions:
REMARK  status: ('A' for Active; 'I' for Inactive)
REMARK    1  A    between atoms: C_3  and  C_4 
REMARK    2  A    between atoms: C_9  and  N_10 
REMARK       I    between atoms: N_10  and  C_11 
REMARK       I    between atoms: C_11  and  N_15 
REMARK    3  A    between atoms: N_15  and  CA_16 
REMARK    4  A    between atoms: CA_16  and  C_17 
REMARK    5  A    between atoms: CA_16  and  CB_19 
REMARK    6  A    between atoms: C_17  and  O_18 
REMARK    7  A    between atoms: CB_19  and  CG_20 
ROOT
HETATM    1  N   UNK A   0      24.605  49.341  48.665  1.00  0.00    -0.309 N 
HETATM    2  C   UNK A   0      25.532  48.572  49.295  1.00  0.00     0.321 C 
HETATM    3  O   UNK A   0      26.718  48.892  49.214  1.00  0.00    -0.247 OA
HETATM    4  H   UNK A   0      25.037  50.191  48.325  1.00  0.00     0.170 HD
ATOM      5  N   TRP A   1      25.107  47.524  50.042  1.00  0.00    -0.336 N 
ATOM      6  H   TRP A   1      24.152  47.538  50.370  1.00  0.00     0.164 HD
ENDROOT
BRANCH   5   7
ATOM      7  CA  TRP A   1      26.007  46.828  50.961  1.00  0.00     0.114 C 
BRANCH   7   8
ATOM      8  C   TRP A   1      26.585  45.572  50.287  1.00  0.00     0.189 C 
BRANCH   8   9
ATOM      9  O   TRP A   1      27.531  45.910  49.273  1.00  0.00    -0.399 OA
ATOM     10  H   TRP A   1      28.286  45.307  49.375  1.00  0.00     0.209 HD
ENDBRANCH   8   9
ENDBRANCH   7   8
BRANCH   7  11
ATOM     11  CB  TRP A   1      25.337  46.570  52.334  1.00  0.00     0.068 C 
BRANCH  11  12
ATOM     12  CG  TRP A   1      26.191  46.793  53.552  1.00  0.00    -0.028 A 
ATOM     13  CD2 TRP A   1      27.248  45.966  54.059  1.00  0.00    -0.002 A 
ATOM     14  CE2 TRP A   1      27.765  46.598  55.192  1.00  0.00     0.042 A 
ATOM     15  CE3 TRP A   1      27.826  44.742  53.664  1.00  0.00     0.014 A 
ATOM     16  CZ2 TRP A   1      28.842  46.086  55.926  1.00  0.00     0.030 A 
ATOM     17  NE1 TRP A   1      27.022  47.735  55.397  1.00  0.00    -0.365 N 
ATOM     18  CH2 TRP A   1      29.415  44.889  55.490  1.00  0.00     0.002 A 
ATOM     19  CZ3 TRP A   1      28.914  44.222  54.376  1.00  0.00     0.001 A 
ATOM     20  HE1 TRP A   1      27.161  48.377  56.164  1.00  0.00     0.165 HD
ATOM     21  CD1 TRP A   1      26.072  47.862  54.422  1.00  0.00     0.096 A 
ENDBRANCH  11  12
ENDBRANCH   7  11
ENDBRANCH   5   7
BRANCH   1  22
HETATM   22  C   UNK A   0      23.218  49.224  48.480  1.00  0.00     0.036 A 
HETATM   23  C   UNK A   0      22.553  48.032  48.201  1.00  0.00     0.030 A 
HETATM   24  C   UNK A   0      21.158  48.011  48.095  1.00  0.00     0.018 A 
HETATM   25  C   UNK A   0      20.407  49.187  48.240  1.00  0.00     0.015 A 
HETATM   26  C   UNK A   0      21.070  50.409  48.457  1.00  0.00    -0.046 A 
HETATM   27  C   UNK A   0      20.340  51.717  48.605  1.00  0.00     0.049 C 
HETATM   28  C   UNK A   0      22.473  50.407  48.572  1.00  0.00     0.037 A 
BRANCH  25  29
HETATM   29  C   UNK A   0      18.916  49.108  48.183  1.00  0.00     0.156 C 
HETATM   30  C   UNK A   0      18.168  48.768  49.446  1.00  0.00     0.097 C 
HETATM   31  O   UNK A   0      18.318  49.348  47.138  1.00  0.00    -0.293 OA
ENDBRANCH  25  29
ENDBRANCH   1  22
TORSDOF 7
ENDMDL
MODEL 6
REMARK VINA RESULT:      -9.0      5.161      6.442
REMARK  7 active torsions:
REMARK  status: ('A' for Active; 'I' for Inactive)
REMARK    1  A    between atoms: C_3  and  C_4 
REMARK    2  A    between atoms: C_9  and  N_10 
REMARK       I    between atoms: N_10  and  C_11 
REMARK       I    between atoms: C_11  and  N_15 
REMARK    3  A    between atoms: N_15  and  CA_16 
REMARK    4  A    between atoms: CA_16  and  C_17 
REMARK    5  A    between atoms: CA_16  and  CB_19 
REMARK    6  A    between atoms: C_17  and  O_18 
REMARK    7  A    between atoms: CB_19  and  CG_20 
ROOT
HETATM    1  N   UNK A   0      28.348  40.401  51.619  1.00  0.00    -0.309 N 
HETATM    2  C   UNK A   0      27.991  41.238  52.628  1.00  0.00     0.321 C 
HETATM    3  O   UNK A   0      28.384  40.990  53.768  1.00  0.00    -0.247 OA
HETATM    4  H   UNK A   0      29.042  39.742  51.949  1.00  0.00     0.170 HD
ATOM      5  N   TRP A   1      27.275  42.350  52.327  1.00  0.00    -0.336 N 
ATOM      6  H   TRP A   1      27.310  42.687  51.376  1.00  0.00     0.164 HD
ENDROOT
BRANCH   5   7
ATOM      7  CA  TRP A   1      27.094  43.427  53.300  1.00  0.00     0.114 C 
BRANCH   7   8
ATOM      8  C   TRP A   1      25.728  44.103  53.093  1.00  0.00     0.189 C 
BRANCH   8   9
ATOM      9  O   TRP A   1      24.827  43.802  54.159  1.00  0.00    -0.399 OA
ATOM     10  H   TRP A   1      23.962  44.173  53.915  1.00  0.00     0.209 HD
ENDBRANCH   8   9
ENDBRANCH   7   8
BRANCH   7  11
ATOM     11  CB  TRP A   1      28.298  44.401  53.307  1.00  0.00     0.068 C 
BRANCH  11  12
ATOM     12  CG  TRP A   1      28.679  44.990  54.637  1.00  0.00    -0.028 A 
ATOM     13  CD2 TRP A   1      29.668  44.522  55.566  1.00  0.00    -0.002 A 
ATOM     14  CE2 TRP A   1      29.683  45.410  56.643  1.00  0.00     0.042 A 
ATOM     15  CE3 TRP A   1      30.562  43.431  55.597  1.00  0.00     0.014 A 
ATOM     16  CZ2 TRP A   1      30.560  45.280  57.726  1.00  0.00     0.030 A 
ATOM     17  NE1 TRP A   1      28.710  46.351  56.407  1.00  0.00    -0.365 N 
ATOM     18  CH2 TRP A   1      31.457  44.209  57.711  1.00  0.00     0.002 A 
ATOM     19  CZ3 TRP A   1      31.458  43.293  56.664  1.00  0.00     0.001 A 
ATOM     20  HE1 TRP A   1      28.482  47.107  57.036  1.00  0.00     0.165 HD
ATOM     21  CD1 TRP A   1      28.098  46.108  55.209  1.00  0.00     0.096 A 
ENDBRANCH  11  12
ENDBRANCH   7  11
ENDBRANCH   5   7
BRANCH   1  22
HETATM   22  C   UNK A   0      28.016  40.334  50.257  1.00  0.00     0.036 A 
HETATM   23  C   UNK A   0      27.287  41.302  49.570  1.00  0.00     0.030 A 
HETATM   24  C   UNK A   0      27.061  41.171  48.195  1.00  0.00     0.018 A 
HETATM   25  C   UNK A   0      27.539  40.057  47.490  1.00  0.00     0.015 A 
HETATM   26  C   UNK A   0      28.220  39.039  48.183  1.00  0.00    -0.046 A 
HETATM   27  C   UNK A   0      28.749  37.804  47.504  1.00  0.00     0.049 C 
HETATM   28  C   UNK A   0      28.447  39.196  49.563  1.00  0.00     0.037 A 
BRANCH  25  29
HETATM   29  C   UNK A   0      27.331  39.989  46.012  1.00  0.00     0.156 C 
HETATM   30  C   UNK A   0      28.254  40.781  45.122  1.00  0.00     0.097 C 
HETATM   31  O   UNK A   0      26.449  39.278  45.538  1.00  0.00    -0.293 OA
ENDBRANCH  25  29
ENDBRANCH   1  22
TORSDOF 7
ENDMDL
MODEL 7
REMARK VINA RESULT:      -8.8     11.933     14.664
REMARK  7 active torsions:
REMARK  status: ('A' for Active; 'I' for Inactive)
REMARK    1  A    between atoms: C_3  and  C_4 
REMARK    2  A    between atoms: C_9  and  N_10 
REMARK       I    between atoms: N_10  and  C_11 
REMARK       I    between atoms: C_11  and  N_15 
REMARK    3  A    between atoms: N_15  and  CA_16 
REMARK    4  A    between atoms: CA_16  and  C_17 
REMARK    5  A    between atoms: CA_16  and  CB_19 
REMARK    6  A    between atoms: C_17  and  O_18 
REMARK    7  A    between atoms: CB_19  and  CG_20 
ROOT
HETATM    1  N   UNK A   0      30.184  48.455  42.449  1.00  0.00    -0.309 N 
HETATM    2  C   UNK A   0      29.146  48.230  41.601  1.00  0.00     0.321 C 
HETATM    3  O   UNK A   0      28.171  47.602  42.014  1.00  0.00    -0.247 OA
HETATM    4  H   UNK A   0      29.924  48.182  43.389  1.00  0.00     0.170 HD
ATOM      5  N   TRP A   1      29.197  48.765  40.356  1.00  0.00    -0.336 N 
ATOM      6  H   TRP A   1      29.811  49.553  40.209  1.00  0.00     0.164 HD
ENDROOT
BRANCH   5   7
ATOM      7  CA  TRP A   1      28.017  48.804  39.493  1.00  0.00     0.114 C 
BRANCH   7   8
ATOM      8  C   TRP A   1      28.271  47.992  38.211  1.00  0.00     0.189 C 
BRANCH   8   9
ATOM      9  O   TRP A   1      28.601  46.635  38.508  1.00  0.00    -0.399 OA
ATOM     10  H   TRP A   1      27.808  46.103  38.328  1.00  0.00     0.209 HD
ENDBRANCH   8   9
ENDBRANCH   7   8
BRANCH   7  11
ATOM     11  CB  TRP A   1      27.532  50.255  39.249  1.00  0.00     0.068 C 
BRANCH  11  12
ATOM     12  CG  TRP A   1      28.167  51.327  40.091  1.00  0.00    -0.028 A 
ATOM     13  CD2 TRP A   1      29.520  51.802  40.052  1.00  0.00    -0.002 A 
ATOM     14  CE2 TRP A   1      29.631  52.823  40.998  1.00  0.00     0.042 A 
ATOM     15  CE3 TRP A   1      30.666  51.471  39.300  1.00  0.00     0.014 A 
ATOM     16  CZ2 TRP A   1      30.813  53.544  41.207  1.00  0.00     0.030 A 
ATOM     17  NE1 TRP A   1      28.413  52.932  41.624  1.00  0.00    -0.365 N 
ATOM     18  CH2 TRP A   1      31.921  53.216  40.422  1.00  0.00     0.002 A 
ATOM     19  CZ3 TRP A   1      31.853  52.192  39.483  1.00  0.00     0.001 A 
ATOM     20  HE1 TRP A   1      28.210  53.579  42.372  1.00  0.00     0.165 HD
ATOM     21  CD1 TRP A   1      27.526  52.037  41.091  1.00  0.00     0.096 A 
ENDBRANCH  11  12
ENDBRANCH   7  11
ENDBRANCH   5   7
BRANCH   1  22
HETATM   22  C   UNK A   0      31.450  49.039  42.292  1.00  0.00     0.036 A 
HETATM   23  C   UNK A   0      32.395  48.642  41.349  1.00  0.00     0.030 A 
HETATM   24  C   UNK A   0      33.607  49.331  41.231  1.00  0.00     0.018 A 
HETATM   25  C   UNK A   0      33.905  50.412  42.073  1.00  0.00     0.015 A 
HETATM   26  C   UNK A   0      32.988  50.784  43.074  1.00  0.00    -0.046 A 
HETATM   27  C   UNK A   0      33.239  51.920  44.029  1.00  0.00     0.049 C 
HETATM   28  C   UNK A   0      31.769  50.085  43.167  1.00  0.00     0.037 A 
BRANCH  25  29
HETATM   29  C   UNK A   0      35.182  51.160  41.871  1.00  0.00     0.156 C 
HETATM   30  C   UNK A   0      36.463  50.537  42.362  1.00  0.00     0.097 C 
HETATM   31  O   UNK A   0      35.187  52.241  41.287  1.00  0.00    -0.293 OA
ENDBRANCH  25  29
ENDBRANCH   1  22
TORSDOF 7
ENDMDL
MODEL 8
REMARK VINA RESULT:      -8.8      4.814      7.226
REMARK  7 active torsions:
REMARK  status: ('A' for Active; 'I' for Inactive)
REMARK    1  A    between atoms: C_3  and  C_4 
REMARK    2  A    between atoms: C_9  and  N_10 
REMARK       I    between atoms: N_10  and  C_11 
REMARK       I    between atoms: C_11  and  N_15 
REMARK    3  A    between atoms: N_15  and  CA_16 
REMARK    4  A    between atoms: CA_16  and  C_17 
REMARK    5  A    between atoms: CA_16  and  CB_19 
REMARK    6  A    between atoms: C_17  and  O_18 
REMARK    7  A    between atoms: CB_19  and  CG_20 
ROOT
HETATM    1  N   UNK A   0      25.177  41.401  50.668  1.00  0.00    -0.309 N 
HETATM    2  C   UNK A   0      24.901  42.705  50.936  1.00  0.00     0.321 C 
HETATM    3  O   UNK A   0      23.735  43.091  50.847  1.00  0.00    -0.247 OA
HETATM    4  H   UNK A   0      24.315  40.880  50.571  1.00  0.00     0.170 HD
ATOM      5  N   TRP A   1      25.908  43.510  51.356  1.00  0.00    -0.336 N 
ATOM      6  H   TRP A   1      26.721  43.070  51.761  1.00  0.00     0.164 HD
ENDROOT
BRANCH   5   7
ATOM      7  CA  TRP A   1      25.642  44.832  51.922  1.00  0.00     0.114 C 
BRANCH   7   8
ATOM      8  C   TRP A   1      26.632  45.861  51.351  1.00  0.00     0.189 C 
BRANCH   8   9
ATOM      9  O   TRP A   1      26.696  45.792  49.926  1.00  0.00    -0.399 OA
ATOM     10  H   TRP A   1      27.507  45.308  49.700  1.00  0.00     0.209 HD
ENDBRANCH   8   9
ENDBRANCH   7   8
BRANCH   7  11
ATOM     11  CB  TRP A   1      25.579  44.791  53.470  1.00  0.00     0.068 C 
BRANCH  11  12
ATOM     12  CG  TRP A   1      26.830  45.188  54.204  1.00  0.00    -0.028 A 
ATOM     13  CD2 TRP A   1      27.995  44.394  54.469  1.00  0.00    -0.002 A 
ATOM     14  CE2 TRP A   1      28.904  45.202  55.154  1.00  0.00     0.042 A 
ATOM     15  CE3 TRP A   1      28.374  43.065  54.187  1.00  0.00     0.014 A 
ATOM     16  CZ2 TRP A   1      30.175  44.761  55.543  1.00  0.00     0.030 A 
ATOM     17  NE1 TRP A   1      28.300  46.421  55.345  1.00  0.00    -0.365 N 
ATOM     18  CH2 TRP A   1      30.534  43.450  55.219  1.00  0.00     0.002 A 
ATOM     19  CZ3 TRP A   1      29.647  42.610  54.553  1.00  0.00     0.001 A 
ATOM     20  HE1 TRP A   1      28.721  47.196  55.836  1.00  0.00     0.165 HD
ATOM     21  CD1 TRP A   1      27.054  46.425  54.783  1.00  0.00     0.096 A 
ENDBRANCH  11  12
ENDBRANCH   7  11
ENDBRANCH   5   7
BRANCH   1  22
HETATM   22  C   UNK A   0      26.369  40.664  50.588  1.00  0.00     0.036 A 
HETATM   23  C   UNK A   0      27.532  40.958  51.296  1.00  0.00     0.030 A 
HETATM   24  C   UNK A   0      28.651  40.123  51.193  1.00  0.00     0.018 A 
HETATM   25  C   UNK A   0      28.632  38.995  50.360  1.00  0.00     0.015 A 
HETATM   26  C   UNK A   0      27.487  38.723  49.588  1.00  0.00    -0.046 A 
HETATM   27  C   UNK A   0      27.394  37.544  48.657  1.00  0.00     0.049 C 
HETATM   28  C   UNK A   0      26.369  39.568  49.716  1.00  0.00     0.037 A 
BRANCH  25  29
HETATM   29  C   UNK A   0      29.825  38.096  50.329  1.00  0.00     0.156 C 
HETATM   30  C   UNK A   0      29.958  37.045  51.401  1.00  0.00     0.097 C 
HETATM   31  O   UNK A   0      30.656  38.192  49.431  1.00  0.00    -0.293 OA
ENDBRANCH  25  29
ENDBRANCH   1  22
TORSDOF 7
ENDMDL
MODEL 9
REMARK VINA RESULT:      -8.8     12.482     15.208
REMARK  7 active torsions:
REMARK  status: ('A' for Active; 'I' for Inactive)
REMARK    1  A    between atoms: C_3  and  C_4 
REMARK    2  A    between atoms: C_9  and  N_10 
REMARK       I    between atoms: N_10  and  C_11 
REMARK       I    between atoms: C_11  and  N_15 
REMARK    3  A    between atoms: N_15  and  CA_16 
REMARK    4  A    between atoms: CA_16  and  C_17 
REMARK    5  A    between atoms: CA_16  and  CB_19 
REMARK    6  A    between atoms: C_17  and  O_18 
REMARK    7  A    between atoms: CB_19  and  CG_20 
ROOT
HETATM    1  N   UNK A   0      33.673  53.459  39.436  1.00  0.00    -0.309 N 
HETATM    2  C   UNK A   0      35.002  53.180  39.486  1.00  0.00     0.321 C 
HETATM    3  O   UNK A   0      35.803  54.115  39.459  1.00  0.00    -0.247 OA
HETATM    4  H   UNK A   0      33.527  54.456  39.536  1.00  0.00     0.170 HD
ATOM      5  N   TRP A   1      35.390  51.889  39.632  1.00  0.00    -0.336 N 
ATOM      6  H   TRP A   1      34.720  51.239  40.017  1.00  0.00     0.164 HD
ENDROOT
BRANCH   5   7
ATOM      7  CA  TRP A   1      36.770  51.540  39.968  1.00  0.00     0.114 C 
BRANCH   7   8
ATOM      8  C   TRP A   1      37.383  50.671  38.857  1.00  0.00     0.189 C 
BRANCH   8   9
ATOM      9  O   TRP A   1      36.749  49.394  38.781  1.00  0.00    -0.399 OA
ATOM     10  H   TRP A   1      37.408  48.733  39.051  1.00  0.00     0.209 HD
ENDBRANCH   8   9
ENDBRANCH   7   8
BRANCH   7  11
ATOM     11  CB  TRP A   1      36.878  50.934  41.390  1.00  0.00     0.068 C 
BRANCH  11  12
ATOM     12  CG  TRP A   1      35.767  51.266  42.349  1.00  0.00    -0.028 A 
ATOM     13  CD2 TRP A   1      34.430  50.746  42.373  1.00  0.00    -0.002 A 
ATOM     14  CE2 TRP A   1      33.777  51.326  43.462  1.00  0.00     0.042 A 
ATOM     15  CE3 TRP A   1      33.707  49.832  41.579  1.00  0.00     0.014 A 
ATOM     16  CZ2 TRP A   1      32.457  51.017  43.812  1.00  0.00     0.030 A 
ATOM     17  NE1 TRP A   1      34.660  52.200  44.047  1.00  0.00    -0.365 N 
ATOM     18  CH2 TRP A   1      31.779  50.082  43.027  1.00  0.00     0.002 A 
ATOM     19  CZ3 TRP A   1      32.391  49.497  41.923  1.00  0.00     0.001 A 
ATOM     20  HE1 TRP A   1      34.447  52.778  44.847  1.00  0.00     0.165 HD
ATOM     21  CD1 TRP A   1      35.857  52.176  43.387  1.00  0.00     0.096 A 
ENDBRANCH  11  12
ENDBRANCH   7  11
ENDBRANCH   5   7
BRANCH   1  22
HETATM   22  C   UNK A   0      32.521  52.660  39.361  1.00  0.00     0.036 A 
HETATM   23  C   UNK A   0      32.310  51.661  38.414  1.00  0.00     0.030 A 
HETATM   24  C   UNK A   0      31.152  50.877  38.462  1.00  0.00     0.018 A 
HETATM   25  C   UNK A   0      30.173  51.099  39.442  1.00  0.00     0.015 A 
HETATM   26  C   UNK A   0      30.341  52.147  40.364  1.00  0.00    -0.046 A 
HETATM   27  C   UNK A   0      29.331  52.462  41.435  1.00  0.00     0.049 C 
HETATM   28  C   UNK A   0      31.519  52.916  40.306  1.00  0.00     0.037 A 
BRANCH  25  29
HETATM   29  C   UNK A   0      28.982  50.197  39.496  1.00  0.00     0.156 C 
HETATM   30  C   UNK A   0      27.777  50.550  38.663  1.00  0.00     0.097 C 
HETATM   31  O   UNK A   0      29.003  49.176  40.178  1.00  0.00    -0.293 OA
ENDBRANCH  25  29
ENDBRANCH   1  22
TORSDOF 7
ENDMDL
MODEL 10
REMARK VINA RESULT:      -8.8      4.546     10.760
REMARK  7 active torsions:
REMARK  status: ('A' for Active; 'I' for Inactive)
REMARK    1  A    between atoms: C_3  and  C_4 
REMARK    2  A    between atoms: C_9  and  N_10 
REMARK       I    between atoms: N_10  and  C_11 
REMARK       I    between atoms: C_11  and  N_15 
REMARK    3  A    between atoms: N_15  and  CA_16 
REMARK    4  A    between atoms: CA_16  and  C_17 
REMARK    5  A    between atoms: CA_16  and  CB_19 
REMARK    6  A    between atoms: C_17  and  O_18 
REMARK    7  A    between atoms: CB_19  and  CG_20 
ROOT
HETATM    1  N   UNK A   0      24.830  47.678  49.438  1.00  0.00    -0.309 N 
HETATM    2  C   UNK A   0      23.905  48.587  49.031  1.00  0.00     0.321 C 
HETATM    3  O   UNK A   0      24.151  49.277  48.041  1.00  0.00    -0.247 OA
HETATM    4  H   UNK A   0      25.561  47.597  48.742  1.00  0.00     0.170 HD
ATOM      5  N   TRP A   1      22.723  48.650  49.690  1.00  0.00    -0.336 N 
ATOM      6  H   TRP A   1      22.438  47.841  50.222  1.00  0.00     0.164 HD
ENDROOT
BRANCH   5   7
ATOM      7  CA  TRP A   1      21.587  49.396  49.150  1.00  0.00     0.114 C 
BRANCH   7   8
ATOM      8  C   TRP A   1      21.617  50.848  49.654  1.00  0.00     0.189 C 
BRANCH   8   9
ATOM      9  O   TRP A   1      21.918  50.912  51.048  1.00  0.00    -0.399 OA
ATOM     10  H   TRP A   1      21.070  50.952  51.522  1.00  0.00     0.209 HD
ENDBRANCH   8   9
ENDBRANCH   7   8
BRANCH   7  11
ATOM     11  CB  TRP A   1      20.247  48.658  49.397  1.00  0.00     0.068 C 
BRANCH  11  12
ATOM     12  CG  TRP A   1      19.079  49.080  48.548  1.00  0.00    -0.028 A 
ATOM     13  CD2 TRP A   1      18.099  50.091  48.824  1.00  0.00    -0.002 A 
ATOM     14  CE2 TRP A   1      17.233  50.142  47.731  1.00  0.00     0.042 A 
ATOM     15  CE3 TRP A   1      17.864  50.978  49.895  1.00  0.00     0.014 A 
ATOM     16  CZ2 TRP A   1      16.169  51.048  47.642  1.00  0.00     0.030 A 
ATOM     17  NE1 TRP A   1      17.635  49.168  46.848  1.00  0.00    -0.365 N 
ATOM     18  CH2 TRP A   1      15.983  51.937  48.704  1.00  0.00     0.002 A 
ATOM     19  CZ3 TRP A   1      16.816  51.903  49.818  1.00  0.00     0.001 A 
ATOM     20  HE1 TRP A   1      17.173  48.963  45.975  1.00  0.00     0.165 HD
ATOM     21  CD1 TRP A   1      18.740  48.522  47.328  1.00  0.00     0.096 A 
ENDBRANCH  11  12
ENDBRANCH   7  11
ENDBRANCH   5   7
BRANCH   1  22
HETATM   22  C   UNK A   0      24.915  46.815  50.542  1.00  0.00     0.036 A 
HETATM   23  C   UNK A   0      24.479  45.493  50.549  1.00  0.00     0.030 A 
HETATM   24  C   UNK A   0      24.666  44.695  51.684  1.00  0.00     0.018 A 
HETATM   25  C   UNK A   0      25.266  45.217  52.839  1.00  0.00     0.015 A 
HETATM   26  C   UNK A   0      25.652  46.569  52.869  1.00  0.00    -0.046 A 
HETATM   27  C   UNK A   0      26.286  47.210  54.074  1.00  0.00     0.049 C 
HETATM   28  C   UNK A   0      25.467  47.351  51.713  1.00  0.00     0.037 A 
BRANCH  25  29
HETATM   29  C   UNK A   0      25.504  44.313  54.005  1.00  0.00     0.156 C 
HETATM   30  C   UNK A   0      26.856  43.662  54.144  1.00  0.00     0.097 C 
HETATM   31  O   UNK A   0      24.626  44.134  54.845  1.00  0.00    -0.293 OA
ENDBRANCH  25  29
ENDBRANCH   1  22
TORSDOF 7
ENDMDL
