MODEL 1
REMARK VINA RESULT:     -10.1      0.000      0.000
REMARK  4 active torsions:
REMARK  status: ('A' for Active; 'I' for Inactive)
REMARK    1  A    between atoms: C_4  and  C_5 
REMARK    2  A    between atoms: C_8  and  C_9 
REMARK    3  A    between atoms: C_9  and  N_10 
REMARK    4  A    between atoms: N_10  and  C_11 
ROOT
HETATM    1  C   UNL     1      25.368  46.981  52.226  1.00  0.00     0.158 C 
ENDROOT
BRANCH   1   2
HETATM    2  C   UNL     1      26.482  46.511  53.125  1.00  0.00    -0.041 A 
HETATM    3  C   UNL     1      27.010  47.355  54.109  1.00  0.00     0.009 A 
HETATM    4  C   UNL     1      28.012  46.898  54.973  1.00  0.00     0.013 A 
HETATM    5  C   UNL     1      28.516  45.590  54.878  1.00  0.00    -0.026 A 
HETATM    6  C   UNL     1      28.007  44.767  53.860  1.00  0.00     0.013 A 
HETATM    7  C   UNL     1      27.009  45.221  52.991  1.00  0.00     0.009 A 
BRANCH   5   8
HETATM    8  C   UNL     1      29.525  45.090  55.830  1.00  0.00    -0.026 A 
HETATM    9  C   UNL     1      29.706  45.708  57.080  1.00  0.00     0.012 A 
HETATM   10  C   UNL     1      30.646  45.228  57.997  1.00  0.00     0.001 A 
HETATM   11  C   UNL     1      31.423  44.117  57.680  1.00  0.00     0.000 A 
HETATM   12  C   UNL     1      31.262  43.489  56.449  1.00  0.00     0.001 A 
HETATM   13  C   UNL     1      30.322  43.972  55.532  1.00  0.00     0.012 A 
ENDBRANCH   5   8
ENDBRANCH   1   2
BRANCH   1  14
HETATM   14  N   UNL     1      25.753  46.828  50.831  1.00  0.00    -0.384 N 
HETATM   15  H   UNL     1      26.482  46.118  50.736  1.00  0.00     0.160 HD
BRANCH  14  16
HETATM   16  C   UNL     1      25.922  47.912  49.974  1.00  0.00     0.060 A 
HETATM   17  C   UNL     1      24.953  48.545  49.182  1.00  0.00     0.106 A 
HETATM   18  C   UNL     1      25.259  49.581  48.309  1.00  0.00     0.158 A 
HETATM   19  N   UNL     1      23.596  48.392  49.001  1.00  0.00    -0.346 N 
HETATM   20  N   UNL     1      24.172  50.056  47.646  1.00  0.00    -0.224 NA
HETATM   21  N   UNL     1      26.553  50.010  48.185  1.00  0.00    -0.349 N 
HETATM   22  C   UNL     1      23.177  49.316  48.081  1.00  0.00     0.210 A 
HETATM   23  H   UNL     1      26.736  50.768  47.533  1.00  0.00     0.167 HD
HETATM   24  C   UNL     1      27.523  49.429  48.886  1.00  0.00     0.092 A 
HETATM   25  C   UNL     1      27.233  48.389  49.765  1.00  0.00     0.048 A 
HETATM   26  H   UNL     1      22.995  47.718  49.456  1.00  0.00     0.167 HD
ENDBRANCH  14  16
ENDBRANCH   1  14
TORSDOF 4
ENDMDL
MODEL 2
REMARK VINA RESULT:      -9.6      5.172      7.278
REMARK  4 active torsions:
REMARK  status: ('A' for Active; 'I' for Inactive)
REMARK    1  A    between atoms: C_4  and  C_5 
REMARK    2  A    between atoms: C_8  and  C_9 
REMARK    3  A    between atoms: C_9  and  N_10 
REMARK    4  A    between atoms: N_10  and  C_11 
ROOT
HETATM    1  C   UNL     1      27.434  42.791  50.823  1.00  0.00     0.158 C 
ENDROOT
BRANCH   1   2
HETATM    2  C   UNL     1      28.162  43.202  52.077  1.00  0.00    -0.041 A 
HETATM    3  C   UNL     1      27.639  44.195  52.914  1.00  0.00     0.009 A 
HETATM    4  C   UNL     1      28.294  44.539  54.101  1.00  0.00     0.013 A 
HETATM    5  C   UNL     1      29.488  43.907  54.486  1.00  0.00    -0.026 A 
HETATM    6  C   UNL     1      30.024  42.941  53.618  1.00  0.00     0.013 A 
HETATM    7  C   UNL     1      29.375  42.597  52.427  1.00  0.00     0.009 A 
BRANCH   5   8
HETATM    8  C   UNL     1      30.141  44.225  55.769  1.00  0.00    -0.026 A 
HETATM    9  C   UNL     1      31.121  43.375  56.311  1.00  0.00     0.012 A 
HETATM   10  C   UNL     1      31.759  43.679  57.517  1.00  0.00     0.001 A 
HETATM   11  C   UNL     1      31.430  44.843  58.204  1.00  0.00     0.000 A 
HETATM   12  C   UNL     1      30.462  45.701  57.689  1.00  0.00     0.001 A 
HETATM   13  C   UNL     1      29.823  45.393  56.483  1.00  0.00     0.012 A 
ENDBRANCH   5   8
ENDBRANCH   1   2
BRANCH   1  14
HETATM   14  N   UNL     1      27.125  41.369  50.868  1.00  0.00    -0.384 N 
HETATM   15  H   UNL     1      27.106  41.037  51.834  1.00  0.00     0.160 HD
BRANCH  14  16
HETATM   16  C   UNL     1      27.677  40.451  49.979  1.00  0.00     0.060 A 
HETATM   17  C   UNL     1      28.630  39.458  50.245  1.00  0.00     0.106 A 
HETATM   18  C   UNL     1      29.158  38.641  49.254  1.00  0.00     0.158 A 
HETATM   19  N   UNL     1      29.283  39.017  51.375  1.00  0.00    -0.346 N 
HETATM   20  N   UNL     1      30.060  37.742  49.729  1.00  0.00    -0.224 NA
HETATM   21  N   UNL     1      28.761  38.802  47.954  1.00  0.00    -0.349 N 
HETATM   22  C   UNL     1      30.119  37.993  51.018  1.00  0.00     0.210 A 
HETATM   23  H   UNL     1      29.174  38.187  47.257  1.00  0.00     0.167 HD
HETATM   24  C   UNL     1      27.882  39.747  47.631  1.00  0.00     0.092 A 
HETATM   25  C   UNL     1      27.344  40.575  48.613  1.00  0.00     0.048 A 
HETATM   26  H   UNL     1      29.181  39.376  52.314  1.00  0.00     0.167 HD
ENDBRANCH  14  16
ENDBRANCH   1  14
TORSDOF 4
ENDMDL
MODEL 3
REMARK VINA RESULT:      -9.3      1.188      2.478
REMARK  4 active torsions:
REMARK  status: ('A' for Active; 'I' for Inactive)
REMARK    1  A    between atoms: C_4  and  C_5 
REMARK    2  A    between atoms: C_8  and  C_9 
REMARK    3  A    between atoms: C_9  and  N_10 
REMARK    4  A    between atoms: N_10  and  C_11 
ROOT
HETATM    1  C   UNL     1      24.929  45.335  50.660  1.00  0.00     0.158 C 
ENDROOT
BRANCH   1   2
HETATM    2  C   UNL     1      26.029  45.177  51.678  1.00  0.00    -0.041 A 
HETATM    3  C   UNL     1      26.077  45.998  52.810  1.00  0.00     0.009 A 
HETATM    4  C   UNL     1      27.072  45.816  53.777  1.00  0.00     0.013 A 
HETATM    5  C   UNL     1      28.048  44.815  53.640  1.00  0.00    -0.026 A 
HETATM    6  C   UNL     1      28.013  44.024  52.480  1.00  0.00     0.013 A 
HETATM    7  C   UNL     1      27.022  44.206  51.508  1.00  0.00     0.009 A 
BRANCH   5   8
HETATM    8  C   UNL     1      29.056  44.582  54.691  1.00  0.00    -0.026 A 
HETATM    9  C   UNL     1      29.773  43.374  54.749  1.00  0.00     0.012 A 
HETATM   10  C   UNL     1      30.744  43.153  55.730  1.00  0.00     0.001 A 
HETATM   11  C   UNL     1      31.018  44.140  56.673  1.00  0.00     0.000 A 
HETATM   12  C   UNL     1      30.321  45.343  56.637  1.00  0.00     0.001 A 
HETATM   13  C   UNL     1      29.348  45.562  55.655  1.00  0.00     0.012 A 
ENDBRANCH   5   8
ENDBRANCH   1   2
BRANCH   1  14
HETATM   14  N   UNL     1      24.296  46.637  50.806  1.00  0.00    -0.384 N 
HETATM   15  H   UNL     1      23.340  46.535  51.153  1.00  0.00     0.160 HD
BRANCH  14  16
HETATM   16  C   UNL     1      24.436  47.652  49.863  1.00  0.00     0.060 A 
HETATM   17  C   UNL     1      25.607  48.326  49.488  1.00  0.00     0.106 A 
HETATM   18  C   UNL     1      25.609  49.375  48.578  1.00  0.00     0.158 A 
HETATM   19  N   UNL     1      26.937  48.224  49.831  1.00  0.00    -0.346 N 
HETATM   20  N   UNL     1      26.851  49.880  48.352  1.00  0.00    -0.224 NA
HETATM   21  N   UNL     1      24.433  49.799  48.022  1.00  0.00    -0.349 N 
HETATM   22  C   UNL     1      27.637  49.167  49.125  1.00  0.00     0.210 A 
HETATM   23  H   UNL     1      24.476  50.572  47.364  1.00  0.00     0.167 HD
HETATM   24  C   UNL     1      23.283  49.220  48.360  1.00  0.00     0.092 A 
HETATM   25  C   UNL     1      23.264  48.168  49.272  1.00  0.00     0.048 A 
HETATM   26  H   UNL     1      27.347  47.576  50.489  1.00  0.00     0.167 HD
ENDBRANCH  14  16
ENDBRANCH   1  14
TORSDOF 4
ENDMDL
MODEL 4
REMARK VINA RESULT:      -9.2      1.797      2.305
REMARK  4 active torsions:
REMARK  status: ('A' for Active; 'I' for Inactive)
REMARK    1  A    between atoms: C_4  and  C_5 
REMARK    2  A    between atoms: C_8  and  C_9 
REMARK    3  A    between atoms: C_9  and  N_10 
REMARK    4  A    between atoms: N_10  and  C_11 
ROOT
HETATM    1  C   UNL     1      25.407  47.129  52.676  1.00  0.00     0.158 C 
ENDROOT
BRANCH   1   2
HETATM    2  C   UNL     1      26.553  46.610  53.506  1.00  0.00    -0.041 A 
HETATM    3  C   UNL     1      27.227  47.450  54.399  1.00  0.00     0.009 A 
HETATM    4  C   UNL     1      28.258  46.951  55.202  1.00  0.00     0.013 A 
HETATM    5  C   UNL     1      28.648  45.603  55.135  1.00  0.00    -0.026 A 
HETATM    6  C   UNL     1      27.992  44.780  54.205  1.00  0.00     0.013 A 
HETATM    7  C   UNL     1      26.963  45.276  53.397  1.00  0.00     0.009 A 
BRANCH   5   8
HETATM    8  C   UNL     1      29.691  45.065  56.028  1.00  0.00    -0.026 A 
HETATM    9  C   UNL     1      29.917  45.628  57.296  1.00  0.00     0.012 A 
HETATM   10  C   UNL     1      30.890  45.112  58.157  1.00  0.00     0.001 A 
HETATM   11  C   UNL     1      31.655  44.017  57.765  1.00  0.00     0.000 A 
HETATM   12  C   UNL     1      31.451  43.443  56.514  1.00  0.00     0.001 A 
HETATM   13  C   UNL     1      30.478  43.963  55.653  1.00  0.00     0.012 A 
ENDBRANCH   5   8
ENDBRANCH   1   2
BRANCH   1  14
HETATM   14  N   UNL     1      25.777  47.148  51.269  1.00  0.00    -0.384 N 
HETATM   15  H   UNL     1      26.135  48.067  51.004  1.00  0.00     0.160 HD
BRANCH  14  16
HETATM   16  C   UNL     1      25.001  46.551  50.279  1.00  0.00     0.060 A 
HETATM   17  C   UNL     1      23.840  47.053  49.673  1.00  0.00     0.106 A 
HETATM   18  C   UNL     1      23.109  46.330  48.740  1.00  0.00     0.158 A 
HETATM   19  N   UNL     1      23.123  48.224  49.773  1.00  0.00    -0.346 N 
HETATM   20  N   UNL     1      22.026  47.005  48.273  1.00  0.00    -0.224 NA
HETATM   21  N   UNL     1      23.507  45.067  48.391  1.00  0.00    -0.349 N 
HETATM   22  C   UNL     1      22.055  48.150  48.917  1.00  0.00     0.210 A 
HETATM   23  H   UNL     1      22.943  44.569  47.707  1.00  0.00     0.167 HD
HETATM   24  C   UNL     1      24.582  44.523  48.953  1.00  0.00     0.092 A 
HETATM   25  C   UNL     1      25.325  45.234  49.892  1.00  0.00     0.048 A 
HETATM   26  H   UNL     1      23.328  49.014  50.370  1.00  0.00     0.167 HD
ENDBRANCH  14  16
ENDBRANCH   1  14
TORSDOF 4
ENDMDL
MODEL 5
REMARK VINA RESULT:      -8.7      2.928      4.436
REMARK  4 active torsions:
REMARK  status: ('A' for Active; 'I' for Inactive)
REMARK    1  A    between atoms: C_4  and  C_5 
REMARK    2  A    between atoms: C_8  and  C_9 
REMARK    3  A    between atoms: C_9  and  N_10 
REMARK    4  A    between atoms: N_10  and  C_11 
ROOT
HETATM    1  C   UNL     1      25.556  46.432  52.007  1.00  0.00     0.158 C 
ENDROOT
BRANCH   1   2
HETATM    2  C   UNL     1      26.538  46.066  53.090  1.00  0.00    -0.041 A 
HETATM    3  C   UNL     1      27.179  44.822  53.084  1.00  0.00     0.009 A 
HETATM    4  C   UNL     1      28.125  44.505  54.064  1.00  0.00     0.013 A 
HETATM    5  C   UNL     1      28.457  45.418  55.079  1.00  0.00    -0.026 A 
HETATM    6  C   UNL     1      27.778  46.648  55.098  1.00  0.00     0.013 A 
HETATM    7  C   UNL     1      26.827  46.966  54.122  1.00  0.00     0.009 A 
BRANCH   5   8
HETATM    8  C   UNL     1      29.502  45.108  56.073  1.00  0.00    -0.026 A 
HETATM    9  C   UNL     1      30.441  44.088  55.839  1.00  0.00     0.012 A 
HETATM   10  C   UNL     1      31.446  43.801  56.767  1.00  0.00     0.001 A 
HETATM   11  C   UNL     1      31.533  44.532  57.948  1.00  0.00     0.000 A 
HETATM   12  C   UNL     1      30.615  45.546  58.202  1.00  0.00     0.001 A 
HETATM   13  C   UNL     1      29.608  45.831  57.273  1.00  0.00     0.012 A 
ENDBRANCH   5   8
ENDBRANCH   1   2
BRANCH   1  14
HETATM   14  N   UNL     1      24.577  45.368  51.840  1.00  0.00    -0.384 N 
HETATM   15  H   UNL     1      24.507  44.809  52.693  1.00  0.00     0.160 HD
BRANCH  14  16
HETATM   16  C   UNL     1      24.478  44.613  50.675  1.00  0.00     0.060 A 
HETATM   17  C   UNL     1      24.919  43.300  50.457  1.00  0.00     0.106 A 
HETATM   18  C   UNL     1      24.825  42.672  49.222  1.00  0.00     0.158 A 
HETATM   19  N   UNL     1      25.511  42.333  51.239  1.00  0.00    -0.346 N 
HETATM   20  N   UNL     1      25.303  41.400  49.233  1.00  0.00    -0.224 NA
HETATM   21  N   UNL     1      24.300  43.346  48.152  1.00  0.00    -0.349 N 
HETATM   22  C   UNL     1      25.715  41.220  50.468  1.00  0.00     0.210 A 
HETATM   23  H   UNL     1      24.252  42.854  47.264  1.00  0.00     0.167 HD
HETATM   24  C   UNL     1      23.892  44.605  48.287  1.00  0.00     0.092 A 
HETATM   25  C   UNL     1      23.981  45.249  49.518  1.00  0.00     0.048 A 
HETATM   26  H   UNL     1      25.762  42.411  52.215  1.00  0.00     0.167 HD
ENDBRANCH  14  16
ENDBRANCH   1  14
TORSDOF 4
ENDMDL
MODEL 6
REMARK VINA RESULT:      -8.5      4.021      5.368
REMARK  4 active torsions:
REMARK  status: ('A' for Active; 'I' for Inactive)
REMARK    1  A    between atoms: C_4  and  C_5 
REMARK    2  A    between atoms: C_8  and  C_9 
REMARK    3  A    between atoms: C_9  and  N_10 
REMARK    4  A    between atoms: N_10  and  C_11 
ROOT
HETATM    1  C   UNL     1      26.227  44.158  51.450  1.00  0.00     0.158 C 
ENDROOT
BRANCH   1   2
HETATM    2  C   UNL     1      27.205  44.301  52.588  1.00  0.00    -0.041 A 
HETATM    3  C   UNL     1      27.017  45.278  53.573  1.00  0.00     0.009 A 
HETATM    4  C   UNL     1      27.900  45.376  54.653  1.00  0.00     0.013 A 
HETATM    5  C   UNL     1      28.997  44.507  54.779  1.00  0.00    -0.026 A 
HETATM    6  C   UNL     1      29.198  43.558  53.764  1.00  0.00     0.013 A 
HETATM    7  C   UNL     1      28.319  43.460  52.679  1.00  0.00     0.009 A 
BRANCH   5   8
HETATM    8  C   UNL     1      29.890  44.570  55.952  1.00  0.00    -0.026 A 
HETATM    9  C   UNL     1      30.908  43.617  56.136  1.00  0.00     0.012 A 
HETATM   10  C   UNL     1      31.770  43.681  57.234  1.00  0.00     0.001 A 
HETATM   11  C   UNL     1      31.632  44.702  58.169  1.00  0.00     0.000 A 
HETATM   12  C   UNL     1      30.632  45.656  58.009  1.00  0.00     0.001 A 
HETATM   13  C   UNL     1      29.768  45.590  56.911  1.00  0.00     0.012 A 
ENDBRANCH   5   8
ENDBRANCH   1   2
BRANCH   1  14
HETATM   14  N   UNL     1      25.521  42.889  51.555  1.00  0.00    -0.384 N 
HETATM   15  H   UNL     1      25.593  42.516  52.504  1.00  0.00     0.160 HD
BRANCH  14  16
HETATM   16  C   UNL     1      25.587  41.909  50.570  1.00  0.00     0.060 A 
HETATM   17  C   UNL     1      24.899  41.864  49.349  1.00  0.00     0.106 A 
HETATM   18  C   UNL     1      24.996  40.792  48.472  1.00  0.00     0.158 A 
HETATM   19  N   UNL     1      24.026  42.706  48.696  1.00  0.00    -0.346 N 
HETATM   20  N   UNL     1      24.254  40.958  47.345  1.00  0.00    -0.224 NA
HETATM   21  N   UNL     1      25.774  39.714  48.796  1.00  0.00    -0.349 N 
HETATM   22  C   UNL     1      23.674  42.125  47.507  1.00  0.00     0.210 A 
HETATM   23  H   UNL     1      25.815  38.947  48.129  1.00  0.00     0.167 HD
HETATM   24  C   UNL     1      26.428  39.681  49.954  1.00  0.00     0.092 A 
HETATM   25  C   UNL     1      26.340  40.748  50.845  1.00  0.00     0.048 A 
HETATM   26  H   UNL     1      23.687  43.601  49.022  1.00  0.00     0.167 HD
ENDBRANCH  14  16
ENDBRANCH   1  14
TORSDOF 4
ENDMDL
MODEL 7
REMARK VINA RESULT:      -8.5      2.895      3.771
REMARK  4 active torsions:
REMARK  status: ('A' for Active; 'I' for Inactive)
REMARK    1  A    between atoms: C_4  and  C_5 
REMARK    2  A    between atoms: C_8  and  C_9 
REMARK    3  A    between atoms: C_9  and  N_10 
REMARK    4  A    between atoms: N_10  and  C_11 
ROOT
HETATM    1  C   UNL     1      25.453  45.956  51.819  1.00  0.00     0.158 C 
ENDROOT
BRANCH   1   2
HETATM    2  C   UNL     1      26.573  45.683  52.790  1.00  0.00    -0.041 A 
HETATM    3  C   UNL     1      26.847  46.576  53.833  1.00  0.00     0.009 A 
HETATM    4  C   UNL     1      27.856  46.295  54.761  1.00  0.00     0.013 A 
HETATM    5  C   UNL     1      28.621  45.120  54.674  1.00  0.00    -0.026 A 
HETATM    6  C   UNL     1      28.363  44.252  53.600  1.00  0.00     0.013 A 
HETATM    7  C   UNL     1      27.358  44.532  52.667  1.00  0.00     0.009 A 
BRANCH   5   8
HETATM    8  C   UNL     1      29.639  44.794  55.689  1.00  0.00    -0.026 A 
HETATM    9  C   UNL     1      29.736  45.539  56.879  1.00  0.00     0.012 A 
HETATM   10  C   UNL     1      30.686  45.225  57.855  1.00  0.00     0.001 A 
HETATM   11  C   UNL     1      31.557  44.156  57.661  1.00  0.00     0.000 A 
HETATM   12  C   UNL     1      31.481  43.406  56.492  1.00  0.00     0.001 A 
HETATM   13  C   UNL     1      30.531  43.723  55.515  1.00  0.00     0.012 A 
ENDBRANCH   5   8
ENDBRANCH   1   2
BRANCH   1  14
HETATM   14  N   UNL     1      25.715  45.286  50.554  1.00  0.00    -0.384 N 
HETATM   15  H   UNL     1      26.082  45.947  49.867  1.00  0.00     0.160 HD
BRANCH  14  16
HETATM   16  C   UNL     1      24.847  44.346  50.007  1.00  0.00     0.060 A 
HETATM   17  C   UNL     1      23.564  44.558  49.483  1.00  0.00     0.106 A 
HETATM   18  C   UNL     1      22.760  43.523  49.025  1.00  0.00     0.158 A 
HETATM   19  N   UNL     1      22.769  45.665  49.281  1.00  0.00    -0.346 N 
HETATM   20  N   UNL     1      21.560  43.950  48.552  1.00  0.00    -0.224 NA
HETATM   21  N   UNL     1      23.208  42.231  49.090  1.00  0.00    -0.349 N 
HETATM   22  C   UNL     1      21.589  45.253  48.721  1.00  0.00     0.210 A 
HETATM   23  H   UNL     1      22.588  41.501  48.748  1.00  0.00     0.167 HD
HETATM   24  C   UNL     1      24.404  41.960  49.605  1.00  0.00     0.092 A 
HETATM   25  C   UNL     1      25.222  42.987  50.070  1.00  0.00     0.048 A 
HETATM   26  H   UNL     1      22.996  46.625  49.504  1.00  0.00     0.167 HD
ENDBRANCH  14  16
ENDBRANCH   1  14
TORSDOF 4
ENDMDL
MODEL 8
REMARK VINA RESULT:      -8.4      1.525      2.706
REMARK  4 active torsions:
REMARK  status: ('A' for Active; 'I' for Inactive)
REMARK    1  A    between atoms: C_4  and  C_5 
REMARK    2  A    between atoms: C_8  and  C_9 
REMARK    3  A    between atoms: C_9  and  N_10 
REMARK    4  A    between atoms: N_10  and  C_11 
ROOT
HETATM    1  C   UNL     1      24.808  46.040  50.000  1.00  0.00     0.158 C 
ENDROOT
BRANCH   1   2
HETATM    2  C   UNL     1      25.732  45.759  51.157  1.00  0.00    -0.041 A 
HETATM    3  C   UNL     1      26.361  44.515  51.284  1.00  0.00     0.009 A 
HETATM    4  C   UNL     1      27.255  44.276  52.333  1.00  0.00     0.013 A 
HETATM    5  C   UNL     1      27.544  45.266  53.286  1.00  0.00    -0.026 A 
HETATM    6  C   UNL     1      26.876  46.496  53.171  1.00  0.00     0.013 A 
HETATM    7  C   UNL     1      25.977  46.739  52.126  1.00  0.00     0.009 A 
BRANCH   5   8
HETATM    8  C   UNL     1      28.536  45.034  54.353  1.00  0.00    -0.026 A 
HETATM    9  C   UNL     1      29.357  43.892  54.338  1.00  0.00     0.012 A 
HETATM   10  C   UNL     1      30.313  43.674  55.335  1.00  0.00     0.001 A 
HETATM   11  C   UNL     1      30.467  44.597  56.366  1.00  0.00     0.000 A 
HETATM   12  C   UNL     1      29.665  45.733  56.402  1.00  0.00     0.001 A 
HETATM   13  C   UNL     1      28.708  45.949  55.405  1.00  0.00     0.012 A 
ENDBRANCH   5   8
ENDBRANCH   1   2
BRANCH   1  14
HETATM   14  N   UNL     1      23.847  47.070  50.367  1.00  0.00    -0.384 N 
HETATM   15  H   UNL     1      22.974  46.648  50.689  1.00  0.00     0.160 HD
BRANCH  14  16
HETATM   16  C   UNL     1      23.658  48.224  49.612  1.00  0.00     0.060 A 
HETATM   17  C   UNL     1      22.446  48.813  49.225  1.00  0.00     0.106 A 
HETATM   18  C   UNL     1      22.384  49.934  48.409  1.00  0.00     0.158 A 
HETATM   19  N   UNL     1      21.116  48.539  49.458  1.00  0.00    -0.346 N 
HETATM   20  N   UNL     1      21.112  50.345  48.164  1.00  0.00    -0.224 NA
HETATM   21  N   UNL     1      23.538  50.498  47.935  1.00  0.00    -0.349 N 
HETATM   22  C   UNL     1      20.362  49.480  48.810  1.00  0.00     0.210 A 
HETATM   23  H   UNL     1      23.450  51.316  47.337  1.00  0.00     0.167 HD
HETATM   24  C   UNL     1      24.719  49.968  48.241  1.00  0.00     0.092 A 
HETATM   25  C   UNL     1      24.798  48.843  49.057  1.00  0.00     0.048 A 
HETATM   26  H   UNL     1      20.740  47.777  50.006  1.00  0.00     0.167 HD
ENDBRANCH  14  16
ENDBRANCH   1  14
TORSDOF 4
ENDMDL
MODEL 9
REMARK VINA RESULT:      -8.2      2.441      3.219
REMARK  4 active torsions:
REMARK  status: ('A' for Active; 'I' for Inactive)
REMARK    1  A    between atoms: C_4  and  C_5 
REMARK    2  A    between atoms: C_8  and  C_9 
REMARK    3  A    between atoms: C_9  and  N_10 
REMARK    4  A    between atoms: N_10  and  C_11 
ROOT
HETATM    1  C   UNL     1      24.943  44.210  50.710  1.00  0.00     0.158 C 
ENDROOT
BRANCH   1   2
HETATM    2  C   UNL     1      26.036  44.297  51.744  1.00  0.00    -0.041 A 
HETATM    3  C   UNL     1      25.827  44.978  52.949  1.00  0.00     0.009 A 
HETATM    4  C   UNL     1      26.828  45.016  53.925  1.00  0.00     0.013 A 
HETATM    5  C   UNL     1      28.065  44.380  53.727  1.00  0.00    -0.026 A 
HETATM    6  C   UNL     1      28.277  43.734  52.498  1.00  0.00     0.013 A 
HETATM    7  C   UNL     1      27.280  43.698  51.516  1.00  0.00     0.009 A 
BRANCH   5   8
HETATM    8  C   UNL     1      29.094  44.365  54.784  1.00  0.00    -0.026 A 
HETATM    9  C   UNL     1      29.986  43.285  54.909  1.00  0.00     0.012 A 
HETATM   10  C   UNL     1      30.976  43.272  55.895  1.00  0.00     0.001 A 
HETATM   11  C   UNL     1      31.096  44.344  56.775  1.00  0.00     0.000 A 
HETATM   12  C   UNL     1      30.225  45.424  56.672  1.00  0.00     0.001 A 
HETATM   13  C   UNL     1      29.233  45.434  55.685  1.00  0.00     0.012 A 
ENDBRANCH   5   8
ENDBRANCH   1   2
BRANCH   1  14
HETATM   14  N   UNL     1      24.499  45.545  50.339  1.00  0.00    -0.384 N 
HETATM   15  H   UNL     1      24.217  46.073  51.167  1.00  0.00     0.160 HD
BRANCH  14  16
HETATM   16  C   UNL     1      23.694  45.788  49.229  1.00  0.00     0.060 A 
HETATM   17  C   UNL     1      22.930  46.930  48.951  1.00  0.00     0.106 A 
HETATM   18  C   UNL     1      22.108  47.029  47.836  1.00  0.00     0.158 A 
HETATM   19  N   UNL     1      22.739  48.145  49.572  1.00  0.00    -0.346 N 
HETATM   20  N   UNL     1      21.465  48.224  47.754  1.00  0.00    -0.224 NA
HETATM   21  N   UNL     1      22.007  45.977  46.967  1.00  0.00    -0.349 N 
HETATM   22  C   UNL     1      21.863  48.881  48.820  1.00  0.00     0.210 A 
HETATM   23  H   UNL     1      21.392  46.087  46.165  1.00  0.00     0.167 HD
HETATM   24  C   UNL     1      22.683  44.853  47.191  1.00  0.00     0.092 A 
HETATM   25  C   UNL     1      23.511  44.738  48.305  1.00  0.00     0.048 A 
HETATM   26  H   UNL     1      23.160  48.458  50.436  1.00  0.00     0.167 HD
ENDBRANCH  14  16
ENDBRANCH   1  14
TORSDOF 4
ENDMDL
MODEL 10
REMARK VINA RESULT:      -8.0     15.703     17.845
REMARK  4 active torsions:
REMARK  status: ('A' for Active; 'I' for Inactive)
REMARK    1  A    between atoms: C_4  and  C_5 
REMARK    2  A    between atoms: C_8  and  C_9 
REMARK    3  A    between atoms: C_9  and  N_10 
REMARK    4  A    between atoms: N_10  and  C_11 
ROOT
HETATM    1  C   UNL     1      35.951  44.948  64.816  1.00  0.00     0.158 C 
ENDROOT
BRANCH   1   2
HETATM    2  C   UNL     1      36.357  46.293  65.361  1.00  0.00    -0.041 A 
HETATM    3  C   UNL     1      36.710  47.337  64.499  1.00  0.00     0.009 A 
HETATM    4  C   UNL     1      37.040  48.598  65.008  1.00  0.00     0.013 A 
HETATM    5  C   UNL     1      37.031  48.852  66.390  1.00  0.00    -0.026 A 
HETATM    6  C   UNL     1      36.715  47.785  67.247  1.00  0.00     0.013 A 
HETATM    7  C   UNL     1      36.389  46.521  66.742  1.00  0.00     0.009 A 
BRANCH   5   8
HETATM    8  C   UNL     1      37.316  50.198  66.921  1.00  0.00    -0.026 A 
HETATM    9  C   UNL     1      37.768  51.227  66.075  1.00  0.00     0.012 A 
HETATM   10  C   UNL     1      38.021  52.511  66.566  1.00  0.00     0.001 A 
HETATM   11  C   UNL     1      37.825  52.791  67.916  1.00  0.00     0.000 A 
HETATM   12  C   UNL     1      37.379  51.789  68.772  1.00  0.00     0.001 A 
HETATM   13  C   UNL     1      37.128  50.504  68.279  1.00  0.00     0.012 A 
ENDBRANCH   5   8
ENDBRANCH   1   2
BRANCH   1  14
HETATM   14  N   UNL     1      36.627  44.698  63.552  1.00  0.00    -0.384 N 
HETATM   15  H   UNL     1      35.948  44.482  62.818  1.00  0.00     0.160 HD
BRANCH  14  16
HETATM   16  C   UNL     1      37.796  43.948  63.460  1.00  0.00     0.060 A 
HETATM   17  C   UNL     1      39.120  44.395  63.580  1.00  0.00     0.106 A 
HETATM   18  C   UNL     1      40.213  43.558  63.400  1.00  0.00     0.158 A 
HETATM   19  N   UNL     1      39.713  45.607  63.857  1.00  0.00    -0.346 N 
HETATM   20  N   UNL     1      41.403  44.192  63.571  1.00  0.00    -0.224 NA
HETATM   21  N   UNL     1      40.019  42.243  63.074  1.00  0.00    -0.349 N 
HETATM   22  C   UNL     1      41.072  45.434  63.844  1.00  0.00     0.210 A 
HETATM   23  H   UNL     1      40.845  41.664  62.947  1.00  0.00     0.167 HD
HETATM   24  C   UNL     1      38.788  41.764  62.915  1.00  0.00     0.092 A 
HETATM   25  C   UNL     1      37.681  42.590  63.091  1.00  0.00     0.048 A 
HETATM   26  H   UNL     1      39.246  46.484  64.038  1.00  0.00     0.167 HD
ENDBRANCH  14  16
ENDBRANCH   1  14
TORSDOF 4
ENDMDL
