MODEL 1
REMARK VINA RESULT:      -8.5      0.000      0.000
REMARK  4 active torsions:
REMARK  status: ('A' for Active; 'I' for Inactive)
REMARK    1  A    between atoms: C_5  and  N_6 
REMARK    2  A    between atoms: N_9  and  C_11 
REMARK    3  A    between atoms: C_11  and  C_12 
REMARK    4  A    between atoms: C_13  and  O_14 
ROOT
HETATM    1  N   UNL     1      26.530  44.387  54.081  1.00  0.00    -0.363 N 
HETATM    2  C   UNL     1      26.428  43.831  52.725  1.00  0.00     0.152 C 
HETATM    3  C   UNL     1      26.737  44.835  51.597  1.00  0.00     0.255 C 
HETATM    4  N   UNL     1      25.630  45.882  51.535  1.00  0.00    -0.066 N 
HETATM    5  H   UNL     1      24.806  45.444  51.961  1.00  0.00     0.280 HD
HETATM    6  C   UNL     1      25.896  47.117  52.353  1.00  0.00     0.237 C 
HETATM    7  C   UNL     1      26.366  46.843  53.779  1.00  0.00     0.047 C 
HETATM    8  C   UNL     1      25.785  45.597  54.442  1.00  0.00     0.126 C 
ENDROOT
BRANCH   4   9
HETATM    9  C   UNL     1      25.141  46.191  50.130  1.00  0.00     0.276 C 
BRANCH   9  10
HETATM   10  C   UNL     1      25.473  47.544  49.564  1.00  0.00     0.002 A 
HETATM   11  C   UNL     1      24.458  48.431  49.174  1.00  0.00     0.091 A 
HETATM   12  C   UNL     1      24.763  49.671  48.604  1.00  0.00     0.044 A 
HETATM   13 BR   UNL     1      23.384  50.857  48.075  1.00  0.00    -0.048 Br
HETATM   14  C   UNL     1      26.090  50.045  48.419  1.00  0.00     0.022 A 
HETATM   15  C   UNL     1      27.111  49.178  48.804  1.00  0.00     0.002 A 
HETATM   16  C   UNL     1      26.806  47.937  49.373  1.00  0.00     0.012 A 
BRANCH  11  17
HETATM   17  O   UNL     1      23.157  48.043  49.367  1.00  0.00    -0.359 OA
HETATM   18  H   UNL     1      22.686  48.184  48.520  1.00  0.00     0.218 HD
ENDBRANCH  11  17
ENDBRANCH   9  10
ENDBRANCH   4   9
BRANCH   1  19
HETATM   19  C   UNL     1      27.807  44.251  54.654  1.00  0.00     0.147 A 
HETATM   20  N   UNL     1      28.253  45.173  55.533  1.00  0.00    -0.132 NA
HETATM   21  N   UNL     1      29.510  45.086  56.087  1.00  0.00    -0.153 NA
HETATM   22  C   UNL     1      30.328  44.071  55.744  1.00  0.00     0.053 A 
HETATM   23  C   UNL     1      31.704  44.045  56.330  1.00  0.00     0.072 C 
HETATM   24  C   UNL     1      29.914  43.100  54.851  1.00  0.00     0.032 A 
HETATM   25  C   UNL     1      28.636  43.192  54.305  1.00  0.00     0.054 A 
ENDBRANCH   1  19
TORSDOF 4
ENDMDL
MODEL 2
REMARK VINA RESULT:      -8.1      4.219      8.134
REMARK  4 active torsions:
REMARK  status: ('A' for Active; 'I' for Inactive)
REMARK    1  A    between atoms: C_5  and  N_6 
REMARK    2  A    between atoms: N_9  and  C_11 
REMARK    3  A    between atoms: C_11  and  C_12 
REMARK    4  A    between atoms: C_13  and  O_14 
ROOT
HETATM    1  N   UNL     1      25.063  45.057  49.868  1.00  0.00    -0.363 N 
HETATM    2  C   UNL     1      25.290  44.110  50.968  1.00  0.00     0.152 C 
HETATM    3  C   UNL     1      25.188  44.728  52.377  1.00  0.00     0.255 C 
HETATM    4  N   UNL     1      26.363  45.674  52.600  1.00  0.00    -0.066 N 
HETATM    5  H   UNL     1      27.097  45.365  51.954  1.00  0.00     0.280 HD
HETATM    6  C   UNL     1      26.085  47.108  52.234  1.00  0.00     0.237 C 
HETATM    7  C   UNL     1      25.428  47.297  50.869  1.00  0.00     0.047 C 
HETATM    8  C   UNL     1      25.839  46.298  49.789  1.00  0.00     0.126 C 
ENDROOT
BRANCH   4   9
HETATM    9  C   UNL     1      27.038  45.524  53.952  1.00  0.00     0.276 C 
BRANCH   9  10
HETATM   10  C   UNL     1      28.225  44.604  54.034  1.00  0.00     0.002 A 
HETATM   11  C   UNL     1      29.068  44.615  55.155  1.00  0.00     0.091 A 
HETATM   12  C   UNL     1      30.200  43.794  55.215  1.00  0.00     0.044 A 
HETATM   13 BR   UNL     1      31.335  43.822  56.731  1.00  0.00    -0.048 Br
HETATM   14  C   UNL     1      30.503  42.948  54.153  1.00  0.00     0.022 A 
HETATM   15  C   UNL     1      29.674  42.922  53.034  1.00  0.00     0.002 A 
HETATM   16  C   UNL     1      28.543  43.743  52.973  1.00  0.00     0.012 A 
BRANCH  11  17
HETATM   17  O   UNL     1      28.750  45.455  56.191  1.00  0.00    -0.359 OA
HETATM   18  H   UNL     1      27.836  45.770  56.036  1.00  0.00     0.218 HD
ENDBRANCH  11  17
ENDBRANCH   9  10
ENDBRANCH   4   9
BRANCH   1  19
HETATM   19  C   UNL     1      23.719  45.139  49.460  1.00  0.00     0.147 A 
HETATM   20  N   UNL     1      22.875  44.117  49.714  1.00  0.00    -0.132 NA
HETATM   21  N   UNL     1      21.563  44.152  49.300  1.00  0.00    -0.153 NA
HETATM   22  C   UNL     1      21.101  45.216  48.614  1.00  0.00     0.053 A 
HETATM   23  C   UNL     1      19.683  45.188  48.138  1.00  0.00     0.072 C 
HETATM   24  C   UNL     1      21.927  46.290  48.335  1.00  0.00     0.032 A 
HETATM   25  C   UNL     1      23.251  46.248  48.767  1.00  0.00     0.054 A 
ENDBRANCH   1  19
TORSDOF 4
ENDMDL
MODEL 3
REMARK VINA RESULT:      -8.0      2.416      3.264
REMARK  4 active torsions:
REMARK  status: ('A' for Active; 'I' for Inactive)
REMARK    1  A    between atoms: C_5  and  N_6 
REMARK    2  A    between atoms: N_9  and  C_11 
REMARK    3  A    between atoms: C_11  and  C_12 
REMARK    4  A    between atoms: C_13  and  O_14 
ROOT
HETATM    1  N   UNL     1      25.374  45.451  52.537  1.00  0.00    -0.363 N 
HETATM    2  C   UNL     1      24.429  44.805  51.617  1.00  0.00     0.152 C 
HETATM    3  C   UNL     1      24.541  45.272  50.151  1.00  0.00     0.255 C 
HETATM    4  N   UNL     1      24.065  46.717  50.044  1.00  0.00    -0.066 N 
HETATM    5  H   UNL     1      23.445  46.868  50.847  1.00  0.00     0.280 HD
HETATM    6  C   UNL     1      25.158  47.743  50.182  1.00  0.00     0.237 C 
HETATM    7  C   UNL     1      26.091  47.518  51.369  1.00  0.00     0.047 C 
HETATM    8  C   UNL     1      25.448  46.913  52.614  1.00  0.00     0.126 C 
ENDROOT
BRANCH   4   9
HETATM    9  C   UNL     1      23.141  46.983  48.868  1.00  0.00     0.276 C 
BRANCH   9  10
HETATM   10  C   UNL     1      22.652  48.393  48.678  1.00  0.00     0.002 A 
HETATM   11  C   UNL     1      21.361  48.768  49.078  1.00  0.00     0.091 A 
HETATM   12  C   UNL     1      20.886  50.066  48.860  1.00  0.00     0.044 A 
HETATM   13 BR   UNL     1      19.138  50.558  49.398  1.00  0.00    -0.048 Br
HETATM   14  C   UNL     1      21.699  51.010  48.242  1.00  0.00     0.022 A 
HETATM   15  C   UNL     1      22.986  50.656  47.842  1.00  0.00     0.002 A 
HETATM   16  C   UNL     1      23.461  49.358  48.058  1.00  0.00     0.012 A 
BRANCH  11  17
HETATM   17  O   UNL     1      20.577  47.822  49.687  1.00  0.00    -0.359 OA
HETATM   18  H   UNL     1      21.119  47.410  50.392  1.00  0.00     0.218 HD
ENDBRANCH  11  17
ENDBRANCH   9  10
ENDBRANCH   4   9
BRANCH   1  19
HETATM   19  C   UNL     1      26.591  44.760  52.675  1.00  0.00     0.147 A 
HETATM   20  N   UNL     1      26.949  43.836  51.758  1.00  0.00    -0.132 NA
HETATM   21  N   UNL     1      28.118  43.120  51.881  1.00  0.00    -0.153 NA
HETATM   22  C   UNL     1      28.926  43.326  52.940  1.00  0.00     0.053 A 
HETATM   23  C   UNL     1      30.160  42.489  53.060  1.00  0.00     0.072 C 
HETATM   24  C   UNL     1      28.604  44.266  53.902  1.00  0.00     0.032 A 
HETATM   25  C   UNL     1      27.423  44.992  53.762  1.00  0.00     0.054 A 
ENDBRANCH   1  19
TORSDOF 4
ENDMDL
MODEL 4
REMARK VINA RESULT:      -7.9     12.152     13.176
REMARK  4 active torsions:
REMARK  status: ('A' for Active; 'I' for Inactive)
REMARK    1  A    between atoms: C_5  and  N_6 
REMARK    2  A    between atoms: N_9  and  C_11 
REMARK    3  A    between atoms: C_11  and  C_12 
REMARK    4  A    between atoms: C_13  and  O_14 
ROOT
HETATM    1  N   UNL     1      28.655  51.552  41.585  1.00  0.00    -0.363 N 
HETATM    2  C   UNL     1      27.925  50.281  41.494  1.00  0.00     0.152 C 
HETATM    3  C   UNL     1      27.887  49.663  40.082  1.00  0.00     0.255 C 
HETATM    4  N   UNL     1      27.019  50.529  39.175  1.00  0.00    -0.066 N 
HETATM    5  H   UNL     1      26.389  51.044  39.799  1.00  0.00     0.280 HD
HETATM    6  C   UNL     1      27.777  51.583  38.411  1.00  0.00     0.237 C 
HETATM    7  C   UNL     1      28.745  52.405  39.258  1.00  0.00     0.047 C 
HETATM    8  C   UNL     1      28.311  52.667  40.698  1.00  0.00     0.126 C 
ENDROOT
BRANCH   4   9
HETATM    9  C   UNL     1      26.048  49.746  38.308  1.00  0.00     0.276 C 
BRANCH   9  10
HETATM   10  C   UNL     1      24.753  49.313  38.938  1.00  0.00     0.002 A 
HETATM   11  C   UNL     1      23.580  50.062  38.762  1.00  0.00     0.091 A 
HETATM   12  C   UNL     1      22.385  49.688  39.386  1.00  0.00     0.044 A 
HETATM   13 BR   UNL     1      20.809  50.710  39.147  1.00  0.00    -0.048 Br
HETATM   14  C   UNL     1      22.345  48.555  40.193  1.00  0.00     0.022 A 
HETATM   15  C   UNL     1      23.500  47.797  40.375  1.00  0.00     0.002 A 
HETATM   16  C   UNL     1      24.696  48.172  39.753  1.00  0.00     0.012 A 
BRANCH  11  17
HETATM   17  O   UNL     1      23.641  51.173  37.962  1.00  0.00    -0.359 OA
HETATM   18  H   UNL     1      24.471  51.643  38.184  1.00  0.00     0.218 HD
ENDBRANCH  11  17
ENDBRANCH   9  10
ENDBRANCH   4   9
BRANCH   1  19
HETATM   19  C   UNL     1      30.020  51.400  41.890  1.00  0.00     0.147 A 
HETATM   20  N   UNL     1      30.831  52.479  41.907  1.00  0.00    -0.132 NA
HETATM   21  N   UNL     1      32.176  52.359  42.170  1.00  0.00    -0.153 NA
HETATM   22  C   UNL     1      32.712  51.145  42.405  1.00  0.00     0.053 A 
HETATM   23  C   UNL     1      34.187  51.057  42.635  1.00  0.00     0.072 C 
HETATM   24  C   UNL     1      31.920  50.011  42.403  1.00  0.00     0.032 A 
HETATM   25  C   UNL     1      30.558  50.145  42.145  1.00  0.00     0.054 A 
ENDBRANCH   1  19
TORSDOF 4
ENDMDL
MODEL 5
REMARK VINA RESULT:      -7.7      5.530      8.187
REMARK  4 active torsions:
REMARK  status: ('A' for Active; 'I' for Inactive)
REMARK    1  A    between atoms: C_5  and  N_6 
REMARK    2  A    between atoms: N_9  and  C_11 
REMARK    3  A    between atoms: C_11  and  C_12 
REMARK    4  A    between atoms: C_13  and  O_14 
ROOT
HETATM    1  N   UNL     1      22.746  48.320  48.227  1.00  0.00    -0.363 N 
HETATM    2  C   UNL     1      23.025  49.762  48.199  1.00  0.00     0.152 C 
HETATM    3  C   UNL     1      22.105  50.610  49.102  1.00  0.00     0.255 C 
HETATM    4  N   UNL     1      20.692  50.605  48.529  1.00  0.00    -0.066 N 
HETATM    5  H   UNL     1      20.795  50.392  47.532  1.00  0.00     0.280 HD
HETATM    6  C   UNL     1      19.802  49.524  49.081  1.00  0.00     0.237 C 
HETATM    7  C   UNL     1      20.432  48.134  49.100  1.00  0.00     0.047 C 
HETATM    8  C   UNL     1      21.393  47.823  47.956  1.00  0.00     0.126 C 
ENDROOT
BRANCH   4   9
HETATM    9  C   UNL     1      20.026  51.970  48.502  1.00  0.00     0.276 C 
BRANCH   9  10
HETATM   10  C   UNL     1      18.524  52.008  48.578  1.00  0.00     0.002 A 
HETATM   11  C   UNL     1      17.738  51.663  47.469  1.00  0.00     0.091 A 
HETATM   12  C   UNL     1      16.342  51.742  47.521  1.00  0.00     0.044 A 
HETATM   13 BR   UNL     1      15.291  51.280  46.015  1.00  0.00    -0.048 Br
HETATM   14  C   UNL     1      15.711  52.166  48.686  1.00  0.00     0.022 A 
HETATM   15  C   UNL     1      16.477  52.509  49.799  1.00  0.00     0.002 A 
HETATM   16  C   UNL     1      17.873  52.431  49.747  1.00  0.00     0.012 A 
BRANCH  11  17
HETATM   17  O   UNL     1      18.379  51.246  46.330  1.00  0.00    -0.359 OA
HETATM   18  H   UNL     1      18.035  50.354  46.117  1.00  0.00     0.218 HD
ENDBRANCH  11  17
ENDBRANCH   9  10
ENDBRANCH   4   9
BRANCH   1  19
HETATM   19  C   UNL     1      23.480  47.620  49.201  1.00  0.00     0.147 A 
HETATM   20  N   UNL     1      24.196  48.300  50.122  1.00  0.00    -0.132 NA
HETATM   21  N   UNL     1      24.950  47.645  51.069  1.00  0.00    -0.153 NA
HETATM   22  C   UNL     1      24.995  46.298  51.081  1.00  0.00     0.053 A 
HETATM   23  C   UNL     1      25.868  45.630  52.095  1.00  0.00     0.072 C 
HETATM   24  C   UNL     1      24.274  45.559  50.161  1.00  0.00     0.032 A 
HETATM   25  C   UNL     1      23.506  46.232  49.214  1.00  0.00     0.054 A 
ENDBRANCH   1  19
TORSDOF 4
ENDMDL
MODEL 6
REMARK VINA RESULT:      -7.6     12.147     13.692
REMARK  4 active torsions:
REMARK  status: ('A' for Active; 'I' for Inactive)
REMARK    1  A    between atoms: C_5  and  N_6 
REMARK    2  A    between atoms: N_9  and  C_11 
REMARK    3  A    between atoms: C_11  and  C_12 
REMARK    4  A    between atoms: C_13  and  O_14 
ROOT
HETATM    1  N   UNL     1      33.055  50.531  41.590  1.00  0.00    -0.363 N 
HETATM    2  C   UNL     1      32.194  50.807  40.433  1.00  0.00     0.152 C 
HETATM    3  C   UNL     1      31.322  52.071  40.570  1.00  0.00     0.255 C 
HETATM    4  N   UNL     1      30.258  51.837  41.638  1.00  0.00    -0.066 N 
HETATM    5  H   UNL     1      30.142  50.820  41.699  1.00  0.00     0.280 HD
HETATM    6  C   UNL     1      30.659  52.280  43.020  1.00  0.00     0.237 C 
HETATM    7  C   UNL     1      32.044  51.812  43.458  1.00  0.00     0.047 C 
HETATM    8  C   UNL     1      32.480  50.445  42.936  1.00  0.00     0.126 C 
ENDROOT
BRANCH   4   9
HETATM    9  C   UNL     1      28.866  52.299  41.243  1.00  0.00     0.276 C 
BRANCH   9  10
HETATM   10  C   UNL     1      28.081  51.414  40.315  1.00  0.00     0.002 A 
HETATM   11  C   UNL     1      27.438  50.261  40.791  1.00  0.00     0.091 A 
HETATM   12  C   UNL     1      26.746  49.410  39.923  1.00  0.00     0.044 A 
HETATM   13 BR   UNL     1      25.888  47.853  40.576  1.00  0.00    -0.048 Br
HETATM   14  C   UNL     1      26.685  49.701  38.564  1.00  0.00     0.022 A 
HETATM   15  C   UNL     1      27.315  50.844  38.075  1.00  0.00     0.002 A 
HETATM   16  C   UNL     1      28.007  51.695  38.942  1.00  0.00     0.012 A 
BRANCH  11  17
HETATM   17  O   UNL     1      27.509  49.994  42.135  1.00  0.00    -0.359 OA
HETATM   18  H   UNL     1      26.590  49.975  42.473  1.00  0.00     0.218 HD
ENDBRANCH  11  17
ENDBRANCH   9  10
ENDBRANCH   4   9
BRANCH   1  19
HETATM   19  C   UNL     1      34.332  51.115  41.497  1.00  0.00     0.147 A 
HETATM   20  N   UNL     1      34.503  52.250  40.787  1.00  0.00    -0.132 NA
HETATM   21  N   UNL     1      35.744  52.828  40.649  1.00  0.00    -0.153 NA
HETATM   22  C   UNL     1      36.822  52.254  41.220  1.00  0.00     0.053 A 
HETATM   23  C   UNL     1      38.159  52.889  41.001  1.00  0.00     0.072 C 
HETATM   24  C   UNL     1      36.695  51.094  41.962  1.00  0.00     0.032 A 
HETATM   25  C   UNL     1      35.433  50.522  42.102  1.00  0.00     0.054 A 
ENDBRANCH   1  19
TORSDOF 4
ENDMDL
MODEL 7
REMARK VINA RESULT:      -7.5      1.696      2.372
REMARK  4 active torsions:
REMARK  status: ('A' for Active; 'I' for Inactive)
REMARK    1  A    between atoms: C_5  and  N_6 
REMARK    2  A    between atoms: N_9  and  C_11 
REMARK    3  A    between atoms: C_11  and  C_12 
REMARK    4  A    between atoms: C_13  and  O_14 
ROOT
HETATM    1  N   UNL     1      26.394  44.055  52.982  1.00  0.00    -0.363 N 
HETATM    2  C   UNL     1      26.622  44.043  51.531  1.00  0.00     0.152 C 
HETATM    3  C   UNL     1      26.878  45.432  50.911  1.00  0.00     0.255 C 
HETATM    4  N   UNL     1      25.595  46.254  50.968  1.00  0.00    -0.066 N 
HETATM    5  H   UNL     1      24.829  45.574  51.026  1.00  0.00     0.280 HD
HETATM    6  C   UNL     1      25.462  47.114  52.196  1.00  0.00     0.237 C 
HETATM    7  C   UNL     1      25.756  46.392  53.509  1.00  0.00     0.047 C 
HETATM    8  C   UNL     1      25.361  44.918  53.560  1.00  0.00     0.126 C 
ENDROOT
BRANCH   4   9
HETATM    9  C   UNL     1      25.272  46.996  49.682  1.00  0.00     0.276 C 
BRANCH   9  10
HETATM   10  C   UNL     1      23.829  47.055  49.262  1.00  0.00     0.002 A 
HETATM   11  C   UNL     1      23.118  48.264  49.298  1.00  0.00     0.091 A 
HETATM   12  C   UNL     1      21.763  48.315  48.952  1.00  0.00     0.044 A 
HETATM   13 BR   UNL     1      20.811  49.951  49.011  1.00  0.00    -0.048 Br
HETATM   14  C   UNL     1      21.100  47.155  48.562  1.00  0.00     0.022 A 
HETATM   15  C   UNL     1      21.793  45.947  48.517  1.00  0.00     0.002 A 
HETATM   16  C   UNL     1      23.147  45.895  48.863  1.00  0.00     0.012 A 
BRANCH  11  17
HETATM   17  O   UNL     1      23.791  49.395  49.683  1.00  0.00    -0.359 OA
HETATM   18  H   UNL     1      23.363  49.719  50.502  1.00  0.00     0.218 HD
ENDBRANCH  11  17
ENDBRANCH   9  10
ENDBRANCH   4   9
BRANCH   1  19
HETATM   19  C   UNL     1      27.568  43.897  53.740  1.00  0.00     0.147 A 
HETATM   20  N   UNL     1      28.004  44.906  54.524  1.00  0.00    -0.132 NA
HETATM   21  N   UNL     1      29.165  44.796  55.254  1.00  0.00    -0.153 NA
HETATM   22  C   UNL     1      29.900  43.668  55.184  1.00  0.00     0.053 A 
HETATM   23  C   UNL     1      31.181  43.612  55.954  1.00  0.00     0.072 C 
HETATM   24  C   UNL     1      29.491  42.605  54.399  1.00  0.00     0.032 A 
HETATM   25  C   UNL     1      28.308  42.724  53.673  1.00  0.00     0.054 A 
ENDBRANCH   1  19
TORSDOF 4
ENDMDL
MODEL 8
REMARK VINA RESULT:      -7.4      5.753      8.180
REMARK  4 active torsions:
REMARK  status: ('A' for Active; 'I' for Inactive)
REMARK    1  A    between atoms: C_5  and  N_6 
REMARK    2  A    between atoms: N_9  and  C_11 
REMARK    3  A    between atoms: C_11  and  C_12 
REMARK    4  A    between atoms: C_13  and  O_14 
ROOT
HETATM    1  N   UNL     1      26.357  43.834  50.753  1.00  0.00    -0.363 N 
HETATM    2  C   UNL     1      27.188  42.867  50.024  1.00  0.00     0.152 C 
HETATM    3  C   UNL     1      26.517  42.258  48.776  1.00  0.00     0.255 C 
HETATM    4  N   UNL     1      25.375  41.346  49.212  1.00  0.00    -0.066 N 
HETATM    5  H   UNL     1      25.592  41.066  50.174  1.00  0.00     0.280 HD
HETATM    6  C   UNL     1      24.032  42.023  49.284  1.00  0.00     0.237 C 
HETATM    7  C   UNL     1      24.035  43.357  50.026  1.00  0.00     0.047 C 
HETATM    8  C   UNL     1      25.010  43.465  51.196  1.00  0.00     0.126 C 
ENDROOT
BRANCH   4   9
HETATM    9  C   UNL     1      25.332  40.011  48.488  1.00  0.00     0.276 C 
BRANCH   9  10
HETATM   10  C   UNL     1      26.631  39.271  48.325  1.00  0.00     0.002 A 
HETATM   11  C   UNL     1      27.424  38.955  49.438  1.00  0.00     0.091 A 
HETATM   12  C   UNL     1      28.656  38.308  49.287  1.00  0.00     0.044 A 
HETATM   13 BR   UNL     1      29.721  37.892  50.796  1.00  0.00    -0.048 Br
HETATM   14  C   UNL     1      29.110  37.964  48.018  1.00  0.00     0.022 A 
HETATM   15  C   UNL     1      28.333  38.267  46.901  1.00  0.00     0.002 A 
HETATM   16  C   UNL     1      27.102  38.915  47.052  1.00  0.00     0.012 A 
BRANCH  11  17
HETATM   17  O   UNL     1      26.957  39.300  50.680  1.00  0.00    -0.359 OA
HETATM   18  H   UNL     1      26.067  39.691  50.554  1.00  0.00     0.218 HD
ENDBRANCH  11  17
ENDBRANCH   9  10
ENDBRANCH   4   9
BRANCH   1  19
HETATM   19  C   UNL     1      26.527  45.163  50.324  1.00  0.00     0.147 A 
HETATM   20  N   UNL     1      27.501  45.466  49.440  1.00  0.00    -0.132 NA
HETATM   21  N   UNL     1      27.714  46.761  49.025  1.00  0.00    -0.153 NA
HETATM   22  C   UNL     1      26.951  47.759  49.513  1.00  0.00     0.053 A 
HETATM   23  C   UNL     1      27.251  49.157  49.074  1.00  0.00     0.072 C 
HETATM   24  C   UNL     1      25.938  47.496  50.417  1.00  0.00     0.032 A 
HETATM   25  C   UNL     1      25.724  46.181  50.822  1.00  0.00     0.054 A 
ENDBRANCH   1  19
TORSDOF 4
ENDMDL
MODEL 9
REMARK VINA RESULT:      -7.4      2.173      3.103
REMARK  4 active torsions:
REMARK  status: ('A' for Active; 'I' for Inactive)
REMARK    1  A    between atoms: C_5  and  N_6 
REMARK    2  A    between atoms: N_9  and  C_11 
REMARK    3  A    between atoms: C_11  and  C_12 
REMARK    4  A    between atoms: C_13  and  O_14 
ROOT
HETATM    1  N   UNL     1      26.523  44.406  53.840  1.00  0.00    -0.363 N 
HETATM    2  C   UNL     1      26.473  43.789  52.509  1.00  0.00     0.152 C 
HETATM    3  C   UNL     1      26.867  44.729  51.351  1.00  0.00     0.255 C 
HETATM    4  N   UNL     1      25.794  45.800  51.184  1.00  0.00    -0.066 N 
HETATM    5  H   UNL     1      24.938  45.404  51.587  1.00  0.00     0.280 HD
HETATM    6  C   UNL     1      26.053  47.066  51.956  1.00  0.00     0.237 C 
HETATM    7  C   UNL     1      26.443  46.848  53.416  1.00  0.00     0.047 C 
HETATM    8  C   UNL     1      25.794  45.651  54.106  1.00  0.00     0.126 C 
ENDROOT
BRANCH   4   9
HETATM    9  C   UNL     1      25.385  46.053  49.743  1.00  0.00     0.276 C 
BRANCH   9  10
HETATM   10  C   UNL     1      24.322  45.163  49.159  1.00  0.00     0.002 A 
HETATM   11  C   UNL     1      23.003  45.617  49.010  1.00  0.00     0.091 A 
HETATM   12  C   UNL     1      22.002  44.777  48.512  1.00  0.00     0.044 A 
HETATM   13 BR   UNL     1      20.224  45.399  48.322  1.00  0.00    -0.048 Br
HETATM   14  C   UNL     1      22.307  43.468  48.151  1.00  0.00     0.022 A 
HETATM   15  C   UNL     1      23.613  43.002  48.288  1.00  0.00     0.002 A 
HETATM   16  C   UNL     1      24.614  43.841  48.788  1.00  0.00     0.012 A 
BRANCH  11  17
HETATM   17  O   UNL     1      22.725  46.911  49.370  1.00  0.00    -0.359 OA
HETATM   18  H   UNL     1      22.158  46.872  50.169  1.00  0.00     0.218 HD
ENDBRANCH  11  17
ENDBRANCH   9  10
ENDBRANCH   4   9
BRANCH   1  19
HETATM   19  C   UNL     1      27.765  44.265  54.484  1.00  0.00     0.147 A 
HETATM   20  N   UNL     1      28.177  45.200  55.367  1.00  0.00    -0.132 NA
HETATM   21  N   UNL     1      29.401  45.107  55.989  1.00  0.00    -0.153 NA
HETATM   22  C   UNL     1      30.222  44.075  55.711  1.00  0.00     0.053 A 
HETATM   23  C   UNL     1      31.564  44.043  56.371  1.00  0.00     0.072 C 
HETATM   24  C   UNL     1      29.842  43.091  54.817  1.00  0.00     0.032 A 
HETATM   25  C   UNL     1      28.597  43.189  54.201  1.00  0.00     0.054 A 
ENDBRANCH   1  19
TORSDOF 4
ENDMDL
MODEL 10
REMARK VINA RESULT:      -7.3     17.165     19.092
REMARK  4 active torsions:
REMARK  status: ('A' for Active; 'I' for Inactive)
REMARK    1  A    between atoms: C_5  and  N_6 
REMARK    2  A    between atoms: N_9  and  C_11 
REMARK    3  A    between atoms: C_11  and  C_12 
REMARK    4  A    between atoms: C_13  and  O_14 
ROOT
HETATM    1  N   UNL     1      38.548  46.245  66.203  1.00  0.00    -0.363 N 
HETATM    2  C   UNL     1      39.854  45.795  65.703  1.00  0.00     0.152 C 
HETATM    3  C   UNL     1      39.901  45.531  64.184  1.00  0.00     0.255 C 
HETATM    4  N   UNL     1      39.058  44.302  63.859  1.00  0.00    -0.066 N 
HETATM    5  H   UNL     1      39.011  43.758  64.727  1.00  0.00     0.280 HD
HETATM    6  C   UNL     1      37.628  44.607  63.499  1.00  0.00     0.237 C 
HETATM    7  C   UNL     1      36.925  45.566  64.456  1.00  0.00     0.047 C 
HETATM    8  C   UNL     1      37.339  45.465  65.922  1.00  0.00     0.126 C 
ENDROOT
BRANCH   4   9
HETATM    9  C   UNL     1      39.720  43.327  62.901  1.00  0.00     0.276 C 
BRANCH   9  10
HETATM   10  C   UNL     1      39.800  41.887  63.325  1.00  0.00     0.002 A 
HETATM   11  C   UNL     1      40.450  41.521  64.513  1.00  0.00     0.091 A 
HETATM   12  C   UNL     1      40.567  40.178  64.888  1.00  0.00     0.044 A 
HETATM   13 BR   UNL     1      41.453  39.696  66.491  1.00  0.00    -0.048 Br
HETATM   14  C   UNL     1      40.032  39.180  64.080  1.00  0.00     0.022 A 
HETATM   15  C   UNL     1      39.379  39.526  62.898  1.00  0.00     0.002 A 
HETATM   16  C   UNL     1      39.263  40.869  62.523  1.00  0.00     0.012 A 
BRANCH  11  17
HETATM   17  O   UNL     1      40.969  42.520  65.296  1.00  0.00    -0.359 OA
HETATM   18  H   UNL     1      40.412  42.575  66.100  1.00  0.00     0.218 HD
ENDBRANCH  11  17
ENDBRANCH   9  10
ENDBRANCH   4   9
BRANCH   1  19
HETATM   19  C   UNL     1      38.396  47.644  66.211  1.00  0.00     0.147 A 
HETATM   20  N   UNL     1      37.442  48.214  66.977  1.00  0.00    -0.132 NA
HETATM   21  N   UNL     1      37.247  49.576  66.982  1.00  0.00    -0.153 NA
HETATM   22  C   UNL     1      38.008  50.369  66.202  1.00  0.00     0.053 A 
HETATM   23  C   UNL     1      37.727  51.838  66.201  1.00  0.00     0.072 C 
HETATM   24  C   UNL     1      39.002  49.831  65.404  1.00  0.00     0.032 A 
HETATM   25  C   UNL     1      39.197  48.452  65.414  1.00  0.00     0.054 A 
ENDBRANCH   1  19
TORSDOF 4
ENDMDL
