MODEL 1
REMARK VINA RESULT:      -9.7      0.000      0.000
REMARK  7 active torsions:
REMARK  status: ('A' for Active; 'I' for Inactive)
REMARK    1  A    between atoms: C_5  and  O_6 
REMARK    2  A    between atoms: O_6  and  C_7 
REMARK    3  A    between atoms: C_7  and  C_8 
REMARK       I    between atoms: C_8  and  N_9 
REMARK    4  A    between atoms: N_9  and  N_10 
REMARK       I    between atoms: N_10  and  C_11 
REMARK    5  A    between atoms: C_11  and  C_12 
REMARK    6  A    between atoms: C_14  and  C_15 
REMARK    7  A    between atoms: C_22  and  C_23 
ROOT
HETATM    1  N   UNL     1      26.694  43.763  51.021  1.00  0.00    -0.262 N 
HETATM    2  C   UNL     1      25.406  44.138  51.370  1.00  0.00     0.291 C 
HETATM    3  O   UNL     1      24.555  43.370  51.799  1.00  0.00    -0.264 OA
HETATM    4  H   UNL     1      27.368  44.493  50.793  1.00  0.00     0.190 HD
ENDROOT
BRANCH   2   5
HETATM    5  C   UNL     1      25.173  45.552  51.128  1.00  0.00     0.159 A 
HETATM    6  N   UNL     1      24.363  46.011  50.094  1.00  0.00    -0.216 NA
HETATM    7  C   UNL     1      24.442  47.326  50.190  1.00  0.00     0.180 A 
HETATM    8  O   UNL     1      25.177  47.765  51.259  1.00  0.00    -0.293 OA
HETATM    9  C   UNL     1      25.634  46.625  51.863  1.00  0.00     0.094 A 
BRANCH   7  10
HETATM   10  C   UNL     1      23.876  48.352  49.317  1.00  0.00     0.017 A 
HETATM   11  C   UNL     1      24.716  49.326  48.752  1.00  0.00     0.016 A 
HETATM   12  C   UNL     1      24.197  50.333  47.934  1.00  0.00     0.001 A 
HETATM   13  C   UNL     1      22.831  50.380  47.668  1.00  0.00     0.000 A 
HETATM   14  C   UNL     1      21.983  49.420  48.217  1.00  0.00     0.001 A 
HETATM   15  C   UNL     1      22.502  48.413  49.035  1.00  0.00     0.016 A 
ENDBRANCH   7  10
BRANCH   9  16
HETATM   16  C   UNL     1      26.450  46.596  53.141  1.00  0.00     0.046 A 
HETATM   17  C   UNL     1      26.105  47.582  54.236  1.00  0.00     0.012 A 
HETATM   18  C   UNL     1      25.747  46.147  54.406  1.00  0.00     0.012 A 
ENDBRANCH   9  16
ENDBRANCH   2   5
BRANCH   1  19
HETATM   19  N   UNL     1      27.155  42.466  51.234  1.00  0.00    -0.265 N 
HETATM   20  C   UNL     1      28.323  42.141  51.884  1.00  0.00     0.260 C 
HETATM   21  O   UNL     1      28.584  40.949  52.073  1.00  0.00    -0.269 OA
HETATM   22  H   UNL     1      26.611  41.694  50.863  1.00  0.00     0.190 HD
BRANCH  20  23
HETATM   23  C   UNL     1      29.261  43.253  52.348  1.00  0.00     0.280 C 
BRANCH  23  24
HETATM   24  O   UNL     1      28.588  43.961  53.383  1.00  0.00    -0.342 OA
BRANCH  24  25
HETATM   25  C   UNL     1      29.270  44.201  54.541  1.00  0.00     0.069 A 
HETATM   26  C   UNL     1      30.214  43.227  54.871  1.00  0.00     0.037 A 
HETATM   27  C   UNL     1      30.987  43.344  56.027  1.00  0.00     0.009 A 
HETATM   28  C   UNL     1      30.813  44.436  56.882  1.00  0.00    -0.062 A 
HETATM   29  C   UNL     1      31.667  44.583  58.106  1.00  0.00     0.048 C 
HETATM   30  C   UNL     1      29.868  45.413  56.547  1.00  0.00     0.009 A 
HETATM   31  C   UNL     1      29.090  45.292  55.389  1.00  0.00     0.037 A 
ENDBRANCH  24  25
ENDBRANCH  23  24
ENDBRANCH  20  23
ENDBRANCH   1  19
TORSDOF 7
ENDMDL
MODEL 2
REMARK VINA RESULT:      -9.3      1.401      1.751
REMARK  7 active torsions:
REMARK  status: ('A' for Active; 'I' for Inactive)
REMARK    1  A    between atoms: C_5  and  O_6 
REMARK    2  A    between atoms: O_6  and  C_7 
REMARK    3  A    between atoms: C_7  and  C_8 
REMARK       I    between atoms: C_8  and  N_9 
REMARK    4  A    between atoms: N_9  and  N_10 
REMARK       I    between atoms: N_10  and  C_11 
REMARK    5  A    between atoms: C_11  and  C_12 
REMARK    6  A    between atoms: C_14  and  C_15 
REMARK    7  A    between atoms: C_22  and  C_23 
ROOT
HETATM    1  N   UNL     1      26.156  44.239  49.289  1.00  0.00    -0.262 N 
HETATM    2  C   UNL     1      24.812  44.384  49.597  1.00  0.00     0.291 C 
HETATM    3  O   UNL     1      24.015  43.457  49.667  1.00  0.00    -0.264 OA
HETATM    4  H   UNL     1      26.765  45.051  49.378  1.00  0.00     0.190 HD
ENDROOT
BRANCH   2   5
HETATM    5  C   UNL     1      24.451  45.778  49.792  1.00  0.00     0.159 A 
HETATM    6  N   UNL     1      23.467  46.409  49.037  1.00  0.00    -0.216 NA
HETATM    7  C   UNL     1      23.472  47.651  49.486  1.00  0.00     0.180 A 
HETATM    8  O   UNL     1      24.326  47.863  50.535  1.00  0.00    -0.293 OA
HETATM    9  C   UNL     1      24.943  46.658  50.734  1.00  0.00     0.094 A 
BRANCH   7  10
HETATM   10  C   UNL     1      22.714  48.808  49.012  1.00  0.00     0.017 A 
HETATM   11  C   UNL     1      23.272  50.092  49.112  1.00  0.00     0.016 A 
HETATM   12  C   UNL     1      22.559  51.218  48.690  1.00  0.00     0.001 A 
HETATM   13  C   UNL     1      21.279  51.075  48.161  1.00  0.00     0.000 A 
HETATM   14  C   UNL     1      20.711  49.807  48.052  1.00  0.00     0.001 A 
HETATM   15  C   UNL     1      21.424  48.681  48.475  1.00  0.00     0.016 A 
ENDBRANCH   7  10
BRANCH   9  16
HETATM   16  C   UNL     1      25.941  46.374  51.841  1.00  0.00     0.046 A 
HETATM   17  C   UNL     1      25.826  47.159  53.130  1.00  0.00     0.012 A 
HETATM   18  C   UNL     1      25.412  45.729  53.106  1.00  0.00     0.012 A 
ENDBRANCH   9  16
ENDBRANCH   2   5
BRANCH   1  19
HETATM   19  N   UNL     1      26.733  42.981  49.129  1.00  0.00    -0.265 N 
HETATM   20  C   UNL     1      27.167  42.176  50.157  1.00  0.00     0.260 C 
HETATM   21  O   UNL     1      27.594  41.050  49.886  1.00  0.00    -0.269 OA
HETATM   22  H   UNL     1      26.874  42.632  48.186  1.00  0.00     0.190 HD
BRANCH  20  23
HETATM   23  C   UNL     1      27.113  42.694  51.593  1.00  0.00     0.280 C 
BRANCH  23  24
HETATM   24  O   UNL     1      28.147  43.663  51.725  1.00  0.00    -0.342 OA
BRANCH  24  25
HETATM   25  C   UNL     1      28.824  43.717  52.909  1.00  0.00     0.069 A 
HETATM   26  C   UNL     1      29.907  42.840  52.998  1.00  0.00     0.037 A 
HETATM   27  C   UNL     1      30.692  42.789  54.151  1.00  0.00     0.009 A 
HETATM   28  C   UNL     1      30.392  43.609  55.242  1.00  0.00    -0.062 A 
HETATM   29  C   UNL     1      31.255  43.583  56.468  1.00  0.00     0.048 C 
HETATM   30  C   UNL     1      29.308  44.490  55.149  1.00  0.00     0.009 A 
HETATM   31  C   UNL     1      28.519  44.536  53.993  1.00  0.00     0.037 A 
ENDBRANCH  24  25
ENDBRANCH  23  24
ENDBRANCH  20  23
ENDBRANCH   1  19
TORSDOF 7
ENDMDL
MODEL 3
REMARK VINA RESULT:      -9.1      1.794      2.903
REMARK  7 active torsions:
REMARK  status: ('A' for Active; 'I' for Inactive)
REMARK    1  A    between atoms: C_5  and  O_6 
REMARK    2  A    between atoms: O_6  and  C_7 
REMARK    3  A    between atoms: C_7  and  C_8 
REMARK       I    between atoms: C_8  and  N_9 
REMARK    4  A    between atoms: N_9  and  N_10 
REMARK       I    between atoms: N_10  and  C_11 
REMARK    5  A    between atoms: C_11  and  C_12 
REMARK    6  A    between atoms: C_14  and  C_15 
REMARK    7  A    between atoms: C_22  and  C_23 
ROOT
HETATM    1  N   UNL     1      26.361  42.771  51.648  1.00  0.00    -0.262 N 
HETATM    2  C   UNL     1      25.605  43.788  52.210  1.00  0.00     0.291 C 
HETATM    3  O   UNL     1      25.221  43.803  53.373  1.00  0.00    -0.264 OA
HETATM    4  H   UNL     1      26.739  42.908  50.711  1.00  0.00     0.190 HD
ENDROOT
BRANCH   2   5
HETATM    5  C   UNL     1      25.288  44.823  51.240  1.00  0.00     0.159 A 
HETATM    6  N   UNL     1      26.138  45.893  50.981  1.00  0.00    -0.216 NA
HETATM    7  C   UNL     1      25.481  46.610  50.088  1.00  0.00     0.180 A 
HETATM    8  O   UNL     1      24.301  46.049  49.679  1.00  0.00    -0.293 OA
HETATM    9  C   UNL     1      24.186  44.900  50.412  1.00  0.00     0.094 A 
BRANCH   7  10
HETATM   10  C   UNL     1      25.831  47.903  49.502  1.00  0.00     0.017 A 
HETATM   11  C   UNL     1      24.823  48.717  48.960  1.00  0.00     0.016 A 
HETATM   12  C   UNL     1      25.133  49.946  48.371  1.00  0.00     0.001 A 
HETATM   13  C   UNL     1      26.456  50.379  48.317  1.00  0.00     0.000 A 
HETATM   14  C   UNL     1      27.469  49.586  48.853  1.00  0.00     0.001 A 
HETATM   15  C   UNL     1      27.158  48.356  49.441  1.00  0.00     0.016 A 
ENDBRANCH   7  10
BRANCH   9  16
HETATM   16  C   UNL     1      23.060  43.893  50.265  1.00  0.00     0.046 A 
HETATM   17  C   UNL     1      22.359  43.791  48.927  1.00  0.00     0.012 A 
HETATM   18  C   UNL     1      23.298  42.713  49.344  1.00  0.00     0.012 A 
ENDBRANCH   9  16
ENDBRANCH   2   5
BRANCH   1  19
HETATM   19  N   UNL     1      26.836  41.711  52.415  1.00  0.00    -0.265 N 
HETATM   20  C   UNL     1      28.083  41.652  52.996  1.00  0.00     0.260 C 
HETATM   21  O   UNL     1      28.356  40.687  53.714  1.00  0.00    -0.269 OA
HETATM   22  H   UNL     1      26.237  40.901  52.541  1.00  0.00     0.190 HD
BRANCH  20  23
HETATM   23  C   UNL     1      29.088  42.772  52.734  1.00  0.00     0.280 C 
BRANCH  23  24
HETATM   24  O   UNL     1      30.113  42.649  53.713  1.00  0.00    -0.342 OA
BRANCH  24  25
HETATM   25  C   UNL     1      30.117  43.535  54.750  1.00  0.00     0.069 A 
HETATM   26  C   UNL     1      31.041  43.248  55.756  1.00  0.00     0.037 A 
HETATM   27  C   UNL     1      31.156  44.071  56.877  1.00  0.00     0.009 A 
HETATM   28  C   UNL     1      30.332  45.191  57.014  1.00  0.00    -0.062 A 
HETATM   29  C   UNL     1      30.478  46.098  58.200  1.00  0.00     0.048 C 
HETATM   30  C   UNL     1      29.407  45.480  56.003  1.00  0.00     0.009 A 
HETATM   31  C   UNL     1      29.291  44.649  54.881  1.00  0.00     0.037 A 
ENDBRANCH  24  25
ENDBRANCH  23  24
ENDBRANCH  20  23
ENDBRANCH   1  19
TORSDOF 7
ENDMDL
MODEL 4
REMARK VINA RESULT:      -8.9      1.869      2.938
REMARK  7 active torsions:
REMARK  status: ('A' for Active; 'I' for Inactive)
REMARK    1  A    between atoms: C_5  and  O_6 
REMARK    2  A    between atoms: O_6  and  C_7 
REMARK    3  A    between atoms: C_7  and  C_8 
REMARK       I    between atoms: C_8  and  N_9 
REMARK    4  A    between atoms: N_9  and  N_10 
REMARK       I    between atoms: N_10  and  C_11 
REMARK    5  A    between atoms: C_11  and  C_12 
REMARK    6  A    between atoms: C_14  and  C_15 
REMARK    7  A    between atoms: C_22  and  C_23 
ROOT
HETATM    1  N   UNL     1      24.601  44.864  50.720  1.00  0.00    -0.262 N 
HETATM    2  C   UNL     1      24.361  45.342  49.442  1.00  0.00     0.291 C 
HETATM    3  O   UNL     1      24.473  44.674  48.421  1.00  0.00    -0.264 OA
HETATM    4  H   UNL     1      24.361  45.457  51.514  1.00  0.00     0.190 HD
ENDROOT
BRANCH   2   5
HETATM    5  C   UNL     1      23.995  46.749  49.452  1.00  0.00     0.159 A 
HETATM    6  N   UNL     1      22.703  47.189  49.185  1.00  0.00    -0.216 NA
HETATM    7  C   UNL     1      22.796  48.505  49.254  1.00  0.00     0.180 A 
HETATM    8  O   UNL     1      24.032  48.959  49.627  1.00  0.00    -0.293 OA
HETATM    9  C   UNL     1      24.794  47.830  49.763  1.00  0.00     0.094 A 
BRANCH   7  10
HETATM   10  C   UNL     1      21.780  49.518  48.975  1.00  0.00     0.017 A 
HETATM   11  C   UNL     1      21.224  49.609  47.689  1.00  0.00     0.016 A 
HETATM   12  C   UNL     1      20.270  50.585  47.387  1.00  0.00     0.001 A 
HETATM   13  C   UNL     1      19.857  51.483  48.369  1.00  0.00     0.000 A 
HETATM   14  C   UNL     1      20.396  51.405  49.652  1.00  0.00     0.001 A 
HETATM   15  C   UNL     1      21.351  50.429  49.952  1.00  0.00     0.016 A 
ENDBRANCH   7  10
BRANCH   9  16
HETATM   16  C   UNL     1      26.238  47.818  50.231  1.00  0.00     0.046 A 
HETATM   17  C   UNL     1      27.272  47.150  49.350  1.00  0.00     0.012 A 
HETATM   18  C   UNL     1      27.234  48.636  49.434  1.00  0.00     0.012 A 
ENDBRANCH   9  16
ENDBRANCH   2   5
BRANCH   1  19
HETATM   19  N   UNL     1      24.899  43.524  50.950  1.00  0.00    -0.265 N 
HETATM   20  C   UNL     1      26.153  43.030  51.228  1.00  0.00     0.260 C 
HETATM   21  O   UNL     1      26.273  41.829  51.485  1.00  0.00    -0.269 OA
HETATM   22  H   UNL     1      24.147  42.845  50.883  1.00  0.00     0.190 HD
BRANCH  20  23
HETATM   23  C   UNL     1      27.355  43.973  51.208  1.00  0.00     0.280 C 
BRANCH  23  24
HETATM   24  O   UNL     1      27.385  44.634  52.468  1.00  0.00    -0.342 OA
BRANCH  24  25
HETATM   25  C   UNL     1      28.369  44.286  53.349  1.00  0.00     0.069 A 
HETATM   26  C   UNL     1      28.423  45.075  54.499  1.00  0.00     0.037 A 
HETATM   27  C   UNL     1      29.377  44.831  55.488  1.00  0.00     0.009 A 
HETATM   28  C   UNL     1      30.306  43.798  55.330  1.00  0.00    -0.062 A 
HETATM   29  C   UNL     1      31.309  43.511  56.406  1.00  0.00     0.048 C 
HETATM   30  C   UNL     1      30.248  43.007  54.176  1.00  0.00     0.009 A 
HETATM   31  C   UNL     1      29.292  43.256  53.183  1.00  0.00     0.037 A 
ENDBRANCH  24  25
ENDBRANCH  23  24
ENDBRANCH  20  23
ENDBRANCH   1  19
TORSDOF 7
ENDMDL
MODEL 5
REMARK VINA RESULT:      -8.8      2.621      7.652
REMARK  7 active torsions:
REMARK  status: ('A' for Active; 'I' for Inactive)
REMARK    1  A    between atoms: C_5  and  O_6 
REMARK    2  A    between atoms: O_6  and  C_7 
REMARK    3  A    between atoms: C_7  and  C_8 
REMARK       I    between atoms: C_8  and  N_9 
REMARK    4  A    between atoms: N_9  and  N_10 
REMARK       I    between atoms: N_10  and  C_11 
REMARK    5  A    between atoms: C_11  and  C_12 
REMARK    6  A    between atoms: C_14  and  C_15 
REMARK    7  A    between atoms: C_22  and  C_23 
ROOT
HETATM    1  N   UNL     1      25.551  41.694  48.972  1.00  0.00    -0.262 N 
HETATM    2  C   UNL     1      26.928  41.652  48.822  1.00  0.00     0.291 C 
HETATM    3  O   UNL     1      27.506  41.630  47.742  1.00  0.00    -0.264 OA
HETATM    4  H   UNL     1      25.169  41.837  49.906  1.00  0.00     0.190 HD
ENDROOT
BRANCH   2   5
HETATM    5  C   UNL     1      27.610  41.599  50.105  1.00  0.00     0.159 A 
HETATM    6  N   UNL     1      27.669  42.689  50.967  1.00  0.00    -0.216 NA
HETATM    7  C   UNL     1      28.394  42.252  51.981  1.00  0.00     0.180 A 
HETATM    8  O   UNL     1      28.745  40.932  51.888  1.00  0.00    -0.293 OA
HETATM    9  C   UNL     1      28.232  40.515  50.690  1.00  0.00     0.094 A 
BRANCH   7  10
HETATM   10  C   UNL     1      28.873  42.978  53.155  1.00  0.00     0.017 A 
HETATM   11  C   UNL     1      28.125  44.054  53.660  1.00  0.00     0.016 A 
HETATM   12  C   UNL     1      28.572  44.783  54.766  1.00  0.00     0.001 A 
HETATM   13  C   UNL     1      29.774  44.444  55.383  1.00  0.00     0.000 A 
HETATM   14  C   UNL     1      30.528  43.377  54.897  1.00  0.00     0.001 A 
HETATM   15  C   UNL     1      30.080  42.650  53.791  1.00  0.00     0.016 A 
ENDBRANCH   7  10
BRANCH   9  16
HETATM   16  C   UNL     1      28.309  39.092  50.168  1.00  0.00     0.046 A 
HETATM   17  C   UNL     1      29.309  38.782  49.076  1.00  0.00     0.012 A 
HETATM   18  C   UNL     1      29.574  38.311  50.464  1.00  0.00     0.012 A 
ENDBRANCH   9  16
ENDBRANCH   2   5
BRANCH   1  19
HETATM   19  N   UNL     1      24.705  41.818  47.874  1.00  0.00    -0.265 N 
HETATM   20  C   UNL     1      23.834  42.862  47.662  1.00  0.00     0.260 C 
HETATM   21  O   UNL     1      23.189  42.891  46.610  1.00  0.00    -0.269 OA
HETATM   22  H   UNL     1      24.701  41.075  47.182  1.00  0.00     0.190 HD
BRANCH  20  23
HETATM   23  C   UNL     1      23.686  43.946  48.728  1.00  0.00     0.280 C 
BRANCH  23  24
HETATM   24  O   UNL     1      24.923  44.647  48.783  1.00  0.00    -0.342 OA
BRANCH  24  25
HETATM   25  C   UNL     1      25.205  45.358  49.914  1.00  0.00     0.069 A 
HETATM   26  C   UNL     1      24.778  44.756  51.099  1.00  0.00     0.037 A 
HETATM   27  C   UNL     1      25.002  45.369  52.333  1.00  0.00     0.009 A 
HETATM   28  C   UNL     1      25.645  46.608  52.396  1.00  0.00    -0.062 A 
HETATM   29  C   UNL     1      25.918  47.253  53.722  1.00  0.00     0.048 C 
HETATM   30  C   UNL     1      26.074  47.209  51.206  1.00  0.00     0.009 A 
HETATM   31  C   UNL     1      25.845  46.594  49.969  1.00  0.00     0.037 A 
ENDBRANCH  24  25
ENDBRANCH  23  24
ENDBRANCH  20  23
ENDBRANCH   1  19
TORSDOF 7
ENDMDL
MODEL 6
REMARK VINA RESULT:      -8.7      3.034      7.841
REMARK  7 active torsions:
REMARK  status: ('A' for Active; 'I' for Inactive)
REMARK    1  A    between atoms: C_5  and  O_6 
REMARK    2  A    between atoms: O_6  and  C_7 
REMARK    3  A    between atoms: C_7  and  C_8 
REMARK       I    between atoms: C_8  and  N_9 
REMARK    4  A    between atoms: N_9  and  N_10 
REMARK       I    between atoms: N_10  and  C_11 
REMARK    5  A    between atoms: C_11  and  C_12 
REMARK    6  A    between atoms: C_14  and  C_15 
REMARK    7  A    between atoms: C_22  and  C_23 
ROOT
HETATM    1  N   UNL     1      25.460  40.404  49.239  1.00  0.00    -0.262 N 
HETATM    2  C   UNL     1      26.730  40.886  48.965  1.00  0.00     0.291 C 
HETATM    3  O   UNL     1      27.142  41.149  47.842  1.00  0.00    -0.264 OA
HETATM    4  H   UNL     1      25.166  40.335  50.212  1.00  0.00     0.190 HD
ENDROOT
BRANCH   2   5
HETATM    5  C   UNL     1      27.532  41.006  50.171  1.00  0.00     0.159 A 
HETATM    6  N   UNL     1      27.488  42.129  50.990  1.00  0.00    -0.216 NA
HETATM    7  C   UNL     1      28.373  41.867  51.935  1.00  0.00     0.180 A 
HETATM    8  O   UNL     1      28.935  40.622  51.844  1.00  0.00    -0.293 OA
HETATM    9  C   UNL     1      28.386  40.071  50.718  1.00  0.00     0.094 A 
BRANCH   7  10
HETATM   10  C   UNL     1      28.833  42.717  53.032  1.00  0.00     0.017 A 
HETATM   11  C   UNL     1      30.096  42.491  53.603  1.00  0.00     0.016 A 
HETATM   12  C   UNL     1      30.550  43.272  54.669  1.00  0.00     0.001 A 
HETATM   13  C   UNL     1      29.749  44.290  55.179  1.00  0.00     0.000 A 
HETATM   14  C   UNL     1      28.494  44.530  54.622  1.00  0.00     0.001 A 
HETATM   15  C   UNL     1      28.039  43.749  53.556  1.00  0.00     0.016 A 
ENDBRANCH   7  10
BRANCH   9  16
HETATM   16  C   UNL     1      28.655  38.659  50.232  1.00  0.00     0.046 A 
HETATM   17  C   UNL     1      29.614  38.467  49.077  1.00  0.00     0.012 A 
HETATM   18  C   UNL     1      30.046  38.099  50.454  1.00  0.00     0.012 A 
ENDBRANCH   9  16
ENDBRANCH   2   5
BRANCH   1  19
HETATM   19  N   UNL     1      24.500  40.276  48.237  1.00  0.00    -0.265 N 
HETATM   20  C   UNL     1      23.476  41.165  48.006  1.00  0.00     0.260 C 
HETATM   21  O   UNL     1      22.734  40.975  47.039  1.00  0.00    -0.269 OA
HETATM   22  H   UNL     1      24.532  39.454  47.643  1.00  0.00     0.190 HD
BRANCH  20  23
HETATM   23  C   UNL     1      23.284  42.353  48.948  1.00  0.00     0.280 C 
BRANCH  23  24
HETATM   24  O   UNL     1      24.372  43.242  48.723  1.00  0.00    -0.342 OA
BRANCH  24  25
HETATM   25  C   UNL     1      24.745  44.066  49.745  1.00  0.00     0.069 A 
HETATM   26  C   UNL     1      25.659  45.059  49.386  1.00  0.00     0.037 A 
HETATM   27  C   UNL     1      26.126  45.975  50.330  1.00  0.00     0.009 A 
HETATM   28  C   UNL     1      25.695  45.899  51.657  1.00  0.00    -0.062 A 
HETATM   29  C   UNL     1      26.168  46.903  52.665  1.00  0.00     0.048 C 
HETATM   30  C   UNL     1      24.777  44.904  52.015  1.00  0.00     0.009 A 
HETATM   31  C   UNL     1      24.313  43.983  51.066  1.00  0.00     0.037 A 
ENDBRANCH  24  25
ENDBRANCH  23  24
ENDBRANCH  20  23
ENDBRANCH   1  19
TORSDOF 7
ENDMDL
MODEL 7
REMARK VINA RESULT:      -8.4      1.966      4.994
REMARK  7 active torsions:
REMARK  status: ('A' for Active; 'I' for Inactive)
REMARK    1  A    between atoms: C_5  and  O_6 
REMARK    2  A    between atoms: O_6  and  C_7 
REMARK    3  A    between atoms: C_7  and  C_8 
REMARK       I    between atoms: C_8  and  N_9 
REMARK    4  A    between atoms: N_9  and  N_10 
REMARK       I    between atoms: N_10  and  C_11 
REMARK    5  A    between atoms: C_11  and  C_12 
REMARK    6  A    between atoms: C_14  and  C_15 
REMARK    7  A    between atoms: C_22  and  C_23 
ROOT
HETATM    1  N   UNL     1      25.740  43.776  49.129  1.00  0.00    -0.262 N 
HETATM    2  C   UNL     1      24.656  44.320  49.799  1.00  0.00     0.291 C 
HETATM    3  O   UNL     1      23.495  43.961  49.643  1.00  0.00    -0.264 OA
HETATM    4  H   UNL     1      26.678  44.052  49.417  1.00  0.00     0.190 HD
ENDROOT
BRANCH   2   5
HETATM    5  C   UNL     1      25.057  45.398  50.688  1.00  0.00     0.159 A 
HETATM    6  N   UNL     1      25.749  45.173  51.873  1.00  0.00    -0.216 NA
HETATM    7  C   UNL     1      25.884  46.380  52.394  1.00  0.00     0.180 A 
HETATM    8  O   UNL     1      25.406  47.388  51.601  1.00  0.00    -0.293 OA
HETATM    9  C   UNL     1      24.887  46.755  50.504  1.00  0.00     0.094 A 
BRANCH   7  10
HETATM   10  C   UNL     1      26.449  46.771  53.684  1.00  0.00     0.017 A 
HETATM   11  C   UNL     1      27.441  45.974  54.278  1.00  0.00     0.016 A 
HETATM   12  C   UNL     1      27.981  46.310  55.523  1.00  0.00     0.001 A 
HETATM   13  C   UNL     1      27.537  47.450  56.190  1.00  0.00     0.000 A 
HETATM   14  C   UNL     1      26.555  48.254  55.614  1.00  0.00     0.001 A 
HETATM   15  C   UNL     1      26.015  47.916  54.370  1.00  0.00     0.016 A 
ENDBRANCH   7  10
BRANCH   9  16
HETATM   16  C   UNL     1      24.293  47.465  49.302  1.00  0.00     0.046 A 
HETATM   17  C   UNL     1      22.817  47.285  49.018  1.00  0.00     0.012 A 
HETATM   18  C   UNL     1      23.302  48.580  49.571  1.00  0.00     0.012 A 
ENDBRANCH   9  16
ENDBRANCH   2   5
BRANCH   1  19
HETATM   19  N   UNL     1      25.594  42.684  48.278  1.00  0.00    -0.265 N 
HETATM   20  C   UNL     1      26.347  41.533  48.333  1.00  0.00     0.260 C 
HETATM   21  O   UNL     1      26.069  40.606  47.567  1.00  0.00    -0.269 OA
HETATM   22  H   UNL     1      24.901  42.739  47.538  1.00  0.00     0.190 HD
BRANCH  20  23
HETATM   23  C   UNL     1      27.499  41.436  49.331  1.00  0.00     0.280 C 
BRANCH  23  24
HETATM   24  O   UNL     1      26.922  41.384  50.631  1.00  0.00    -0.342 OA
BRANCH  24  25
HETATM   25  C   UNL     1      27.697  41.759  51.690  1.00  0.00     0.069 A 
HETATM   26  C   UNL     1      28.402  42.949  51.500  1.00  0.00     0.037 A 
HETATM   27  C   UNL     1      29.233  43.455  52.501  1.00  0.00     0.009 A 
HETATM   28  C   UNL     1      29.383  42.763  53.706  1.00  0.00    -0.062 A 
HETATM   29  C   UNL     1      30.247  43.322  54.797  1.00  0.00     0.048 C 
HETATM   30  C   UNL     1      28.673  41.572  53.896  1.00  0.00     0.009 A 
HETATM   31  C   UNL     1      27.843  41.064  52.888  1.00  0.00     0.037 A 
ENDBRANCH  24  25
ENDBRANCH  23  24
ENDBRANCH  20  23
ENDBRANCH   1  19
TORSDOF 7
ENDMDL
MODEL 8
REMARK VINA RESULT:      -8.3      3.047      8.195
REMARK  7 active torsions:
REMARK  status: ('A' for Active; 'I' for Inactive)
REMARK    1  A    between atoms: C_5  and  O_6 
REMARK    2  A    between atoms: O_6  and  C_7 
REMARK    3  A    between atoms: C_7  and  C_8 
REMARK       I    between atoms: C_8  and  N_9 
REMARK    4  A    between atoms: N_9  and  N_10 
REMARK       I    between atoms: N_10  and  C_11 
REMARK    5  A    between atoms: C_11  and  C_12 
REMARK    6  A    between atoms: C_14  and  C_15 
REMARK    7  A    between atoms: C_22  and  C_23 
ROOT
HETATM    1  N   UNL     1      26.934  44.844  50.882  1.00  0.00    -0.262 N 
HETATM    2  C   UNL     1      26.585  44.902  52.222  1.00  0.00     0.291 C 
HETATM    3  O   UNL     1      25.525  45.349  52.642  1.00  0.00    -0.264 OA
HETATM    4  H   UNL     1      27.781  44.341  50.622  1.00  0.00     0.190 HD
ENDROOT
BRANCH   2   5
HETATM    5  C   UNL     1      27.648  44.402  53.078  1.00  0.00     0.159 A 
HETATM    6  N   UNL     1      28.003  45.022  54.271  1.00  0.00    -0.216 NA
HETATM    7  C   UNL     1      29.014  44.298  54.716  1.00  0.00     0.180 A 
HETATM    8  O   UNL     1      29.295  43.200  53.948  1.00  0.00    -0.293 OA
HETATM    9  C   UNL     1      28.411  43.265  52.905  1.00  0.00     0.094 A 
BRANCH   7  10
HETATM   10  C   UNL     1      29.862  44.516  55.886  1.00  0.00     0.017 A 
HETATM   11  C   UNL     1      30.873  43.591  56.193  1.00  0.00     0.016 A 
HETATM   12  C   UNL     1      31.683  43.761  57.320  1.00  0.00     0.001 A 
HETATM   13  C   UNL     1      31.493  44.861  58.155  1.00  0.00     0.000 A 
HETATM   14  C   UNL     1      30.497  45.790  57.863  1.00  0.00     0.001 A 
HETATM   15  C   UNL     1      29.687  45.619  56.736  1.00  0.00     0.016 A 
ENDBRANCH   7  10
BRANCH   9  16
HETATM   16  C   UNL     1      28.292  42.220  51.812  1.00  0.00     0.046 A 
HETATM   17  C   UNL     1      28.830  40.832  52.083  1.00  0.00     0.012 A 
HETATM   18  C   UNL     1      27.357  41.054  52.063  1.00  0.00     0.012 A 
ENDBRANCH   9  16
ENDBRANCH   2   5
BRANCH   1  19
HETATM   19  N   UNL     1      26.036  45.209  49.882  1.00  0.00    -0.265 N 
HETATM   20  C   UNL     1      25.148  44.356  49.268  1.00  0.00     0.260 C 
HETATM   21  O   UNL     1      24.353  44.820  48.446  1.00  0.00    -0.269 OA
HETATM   22  H   UNL     1      26.047  46.169  49.552  1.00  0.00     0.190 HD
BRANCH  20  23
HETATM   23  C   UNL     1      25.171  42.869  49.615  1.00  0.00     0.280 C 
BRANCH  23  24
HETATM   24  O   UNL     1      25.554  42.172  48.435  1.00  0.00    -0.342 OA
BRANCH  24  25
HETATM   25  C   UNL     1      26.389  41.100  48.569  1.00  0.00     0.069 A 
HETATM   26  C   UNL     1      27.723  41.361  48.253  1.00  0.00     0.037 A 
HETATM   27  C   UNL     1      28.689  40.358  48.347  1.00  0.00     0.009 A 
HETATM   28  C   UNL     1      28.327  39.068  48.745  1.00  0.00    -0.062 A 
HETATM   29  C   UNL     1      29.368  37.998  48.881  1.00  0.00     0.048 C 
HETATM   30  C   UNL     1      26.988  38.809  49.063  1.00  0.00     0.009 A 
HETATM   31  C   UNL     1      26.020  39.816  48.964  1.00  0.00     0.037 A 
ENDBRANCH  24  25
ENDBRANCH  23  24
ENDBRANCH  20  23
ENDBRANCH   1  19
TORSDOF 7
ENDMDL
MODEL 9
REMARK VINA RESULT:      -8.2      2.977      6.978
REMARK  7 active torsions:
REMARK  status: ('A' for Active; 'I' for Inactive)
REMARK    1  A    between atoms: C_5  and  O_6 
REMARK    2  A    between atoms: O_6  and  C_7 
REMARK    3  A    between atoms: C_7  and  C_8 
REMARK       I    between atoms: C_8  and  N_9 
REMARK    4  A    between atoms: N_9  and  N_10 
REMARK       I    between atoms: N_10  and  C_11 
REMARK    5  A    between atoms: C_11  and  C_12 
REMARK    6  A    between atoms: C_14  and  C_15 
REMARK    7  A    between atoms: C_22  and  C_23 
ROOT
HETATM    1  N   UNL     1      25.455  44.653  49.627  1.00  0.00    -0.262 N 
HETATM    2  C   UNL     1      26.827  44.463  49.678  1.00  0.00     0.291 C 
HETATM    3  O   UNL     1      27.654  45.363  49.585  1.00  0.00    -0.264 OA
HETATM    4  H   UNL     1      24.848  43.863  49.839  1.00  0.00     0.190 HD
ENDROOT
BRANCH   2   5
HETATM    5  C   UNL     1      27.172  43.058  49.815  1.00  0.00     0.159 A 
HETATM    6  N   UNL     1      27.126  42.168  48.747  1.00  0.00    -0.216 NA
HETATM    7  C   UNL     1      27.466  41.010  49.285  1.00  0.00     0.180 A 
HETATM    8  O   UNL     1      27.812  41.089  50.607  1.00  0.00    -0.293 OA
HETATM    9  C   UNL     1      27.633  42.404  50.939  1.00  0.00     0.094 A 
BRANCH   7  10
HETATM   10  C   UNL     1      27.506  39.683  48.673  1.00  0.00     0.017 A 
HETATM   11  C   UNL     1      26.305  39.040  48.331  1.00  0.00     0.016 A 
HETATM   12  C   UNL     1      26.313  37.760  47.768  1.00  0.00     0.001 A 
HETATM   13  C   UNL     1      27.522  37.107  47.538  1.00  0.00     0.000 A 
HETATM   14  C   UNL     1      28.723  37.732  47.869  1.00  0.00     0.001 A 
HETATM   15  C   UNL     1      28.714  39.011  48.432  1.00  0.00     0.016 A 
ENDBRANCH   7  10
BRANCH   9  16
HETATM   16  C   UNL     1      27.951  43.000  52.298  1.00  0.00     0.046 A 
HETATM   17  C   UNL     1      28.548  42.097  53.356  1.00  0.00     0.012 A 
HETATM   18  C   UNL     1      29.412  43.107  52.686  1.00  0.00     0.012 A 
ENDBRANCH   9  16
ENDBRANCH   2   5
BRANCH   1  19
HETATM   19  N   UNL     1      24.901  45.929  49.567  1.00  0.00    -0.265 N 
HETATM   20  C   UNL     1      24.725  46.765  50.645  1.00  0.00     0.260 C 
HETATM   21  O   UNL     1      24.288  47.903  50.447  1.00  0.00    -0.269 OA
HETATM   22  H   UNL     1      24.572  46.269  48.668  1.00  0.00     0.190 HD
BRANCH  20  23
HETATM   23  C   UNL     1      25.068  46.267  52.048  1.00  0.00     0.280 C 
BRANCH  23  24
HETATM   24  O   UNL     1      25.475  47.402  52.804  1.00  0.00    -0.342 OA
BRANCH  24  25
HETATM   25  C   UNL     1      26.287  47.193  53.882  1.00  0.00     0.069 A 
HETATM   26  C   UNL     1      27.017  46.005  53.836  1.00  0.00     0.037 A 
HETATM   27  C   UNL     1      27.891  45.663  54.870  1.00  0.00     0.009 A 
HETATM   28  C   UNL     1      28.032  46.504  55.977  1.00  0.00    -0.062 A 
HETATM   29  C   UNL     1      28.996  46.157  57.073  1.00  0.00     0.048 C 
HETATM   30  C   UNL     1      27.301  47.697  56.020  1.00  0.00     0.009 A 
HETATM   31  C   UNL     1      26.422  48.035  54.983  1.00  0.00     0.037 A 
ENDBRANCH  24  25
ENDBRANCH  23  24
ENDBRANCH  20  23
ENDBRANCH   1  19
TORSDOF 7
ENDMDL
MODEL 10
REMARK VINA RESULT:      -8.1     16.156     18.868
REMARK  7 active torsions:
REMARK  status: ('A' for Active; 'I' for Inactive)
REMARK    1  A    between atoms: C_5  and  O_6 
REMARK    2  A    between atoms: O_6  and  C_7 
REMARK    3  A    between atoms: C_7  and  C_8 
REMARK       I    between atoms: C_8  and  N_9 
REMARK    4  A    between atoms: N_9  and  N_10 
REMARK       I    between atoms: N_10  and  C_11 
REMARK    5  A    between atoms: C_11  and  C_12 
REMARK    6  A    between atoms: C_14  and  C_15 
REMARK    7  A    between atoms: C_22  and  C_23 
ROOT
HETATM    1  N   UNL     1      40.190  43.847  63.311  1.00  0.00    -0.262 N 
HETATM    2  C   UNL     1      41.038  44.056  64.387  1.00  0.00     0.291 C 
HETATM    3  O   UNL     1      41.642  43.167  64.975  1.00  0.00    -0.264 OA
HETATM    4  H   UNL     1      39.832  44.658  62.810  1.00  0.00     0.190 HD
ENDROOT
BRANCH   2   5
HETATM    5  C   UNL     1      41.096  45.459  64.762  1.00  0.00     0.159 A 
HETATM    6  N   UNL     1      40.029  46.118  65.365  1.00  0.00    -0.216 NA
HETATM    7  C   UNL     1      40.461  47.358  65.504  1.00  0.00     0.180 A 
HETATM    8  O   UNL     1      41.760  47.544  65.115  1.00  0.00    -0.293 OA
HETATM    9  C   UNL     1      42.166  46.323  64.651  1.00  0.00     0.094 A 
BRANCH   7  10
HETATM   10  C   UNL     1      39.746  48.536  65.993  1.00  0.00     0.017 A 
HETATM   11  C   UNL     1      38.928  49.266  65.116  1.00  0.00     0.016 A 
HETATM   12  C   UNL     1      38.253  50.411  65.551  1.00  0.00     0.001 A 
HETATM   13  C   UNL     1      38.387  50.840  66.869  1.00  0.00     0.000 A 
HETATM   14  C   UNL     1      39.192  50.125  67.754  1.00  0.00     0.001 A 
HETATM   15  C   UNL     1      39.867  48.982  67.319  1.00  0.00     0.016 A 
ENDBRANCH   7  10
BRANCH   9  16
HETATM   16  C   UNL     1      43.569  46.010  64.164  1.00  0.00     0.046 A 
HETATM   17  C   UNL     1      44.722  46.802  64.740  1.00  0.00     0.012 A 
HETATM   18  C   UNL     1      44.527  45.386  65.158  1.00  0.00     0.012 A 
ENDBRANCH   9  16
ENDBRANCH   2   5
BRANCH   1  19
HETATM   19  N   UNL     1      40.038  42.585  62.742  1.00  0.00    -0.265 N 
HETATM   20  C   UNL     1      38.923  41.789  62.873  1.00  0.00     0.260 C 
HETATM   21  O   UNL     1      38.884  40.720  62.257  1.00  0.00    -0.269 OA
HETATM   22  H   UNL     1      40.812  42.200  62.209  1.00  0.00     0.190 HD
BRANCH  20  23
HETATM   23  C   UNL     1      37.776  42.243  63.773  1.00  0.00     0.280 C 
BRANCH  23  24
HETATM   24  O   UNL     1      37.319  43.492  63.266  1.00  0.00    -0.342 OA
BRANCH  24  25
HETATM   25  C   UNL     1      36.949  44.450  64.166  1.00  0.00     0.069 A 
HETATM   26  C   UNL     1      36.889  45.743  63.645  1.00  0.00     0.037 A 
HETATM   27  C   UNL     1      36.521  46.822  64.452  1.00  0.00     0.009 A 
HETATM   28  C   UNL     1      36.222  46.620  65.802  1.00  0.00    -0.062 A 
HETATM   29  C   UNL     1      35.792  47.771  66.662  1.00  0.00     0.048 C 
HETATM   30  C   UNL     1      36.280  45.321  66.321  1.00  0.00     0.009 A 
HETATM   31  C   UNL     1      36.653  44.241  65.511  1.00  0.00     0.037 A 
ENDBRANCH  24  25
ENDBRANCH  23  24
ENDBRANCH  20  23
ENDBRANCH   1  19
TORSDOF 7
ENDMDL
