MODEL 1
REMARK VINA RESULT:      -8.7      0.000      0.000
REMARK  9 active torsions:
REMARK  status: ('A' for Active; 'I' for Inactive)
REMARK    1  A    between atoms: O_2  and  C_3 
REMARK    2  A    between atoms: C_4  and  S_5 
REMARK    3  A    between atoms: S_5  and  N_6 
REMARK    4  A    between atoms: N_6  and  C_7 
REMARK    5  A    between atoms: C_7  and  C_8 
REMARK    6  A    between atoms: C_7  and  C_21 
REMARK       I    between atoms: C_8  and  N_9 
REMARK    7  A    between atoms: N_9  and  C_10 
REMARK    8  A    between atoms: C_21  and  C_22 
REMARK    9  A    between atoms: C_22  and  S_23 
ROOT
HETATM    1  C   UNL     1      26.375  44.296  51.533  1.00  0.00     0.165 C 
ENDROOT
BRANCH   1   2
HETATM    2  N   UNL     1      26.493  45.624  50.863  1.00  0.00    -0.202 NA
HETATM    3  H   UNL     1      27.303  46.163  51.201  1.00  0.00     0.141 HD
BRANCH   2   4
HETATM    4  S   UNL     1      25.137  46.634  50.844  1.00  0.00     0.245 S 
HETATM    5  O   UNL     1      24.992  47.169  52.181  1.00  0.00    -0.206 OA
HETATM    6  O   UNL     1      24.059  45.901  50.218  1.00  0.00    -0.206 OA
BRANCH   4   7
HETATM    7  C   UNL     1      25.578  47.965  49.758  1.00  0.00     0.107 A 
HETATM    8  C   UNL     1      24.588  48.749  49.150  1.00  0.00     0.091 A 
HETATM    9  C   UNL     1      24.988  49.815  48.336  1.00  0.00     0.038 A 
HETATM   10  C   UNL     1      26.344  50.083  48.128  1.00  0.00     0.003 A 
HETATM   11  C   UNL     1      27.318  49.292  48.732  1.00  0.00     0.002 A 
HETATM   12  C   UNL     1      26.938  48.231  49.550  1.00  0.00     0.028 A 
BRANCH   8  13
HETATM   13  O   UNL     1      23.282  48.413  49.391  1.00  0.00    -0.354 OA
HETATM   14  C   UNL     1      22.410  48.322  48.268  1.00  0.00     0.210 C 
ENDBRANCH   8  13
ENDBRANCH   4   7
ENDBRANCH   2   4
ENDBRANCH   1   2
BRANCH   1  15
HETATM   15  C   UNL     1      26.981  44.377  52.937  1.00  0.00     0.254 C 
HETATM   16  N   UNL     1      28.357  44.373  52.973  1.00  0.00    -0.156 N 
HETATM   17  H   UNL     1      28.922  44.440  52.130  1.00  0.00     0.187 HD
HETATM   18  O   UNL     1      26.266  44.461  53.939  1.00  0.00    -0.271 OA
BRANCH  16  19
HETATM   19  C   UNL     1      29.053  44.406  54.154  1.00  0.00     0.708 A 
HETATM   20  N   UNL     1      29.934  43.511  54.529  1.00  0.00    -0.062 NA
HETATM   21  C   UNL     1      30.387  43.938  55.758  1.00  0.00     0.103 A 
HETATM   22  C   UNL     1      29.733  45.101  56.154  1.00  0.00     0.078 A 
HETATM   23  C   UNL     1      31.360  43.384  56.602  1.00  0.00     0.034 A 
HETATM   24  N   UNL     1      28.902  45.385  55.104  1.00  0.00    -0.188 N 
HETATM   25  C   UNL     1      29.967  45.741  57.372  1.00  0.00     0.032 A 
HETATM   26  H   UNL     1      28.278  46.176  55.010  1.00  0.00     0.184 HD
HETATM   27  C   UNL     1      30.933  45.167  58.204  1.00  0.00     0.002 A 
HETATM   28  C   UNL     1      31.626  44.013  57.825  1.00  0.00     0.002 A 
ENDBRANCH  16  19
ENDBRANCH   1  15
BRANCH   1  29
HETATM   29  C   UNL     1      27.141  43.296  50.649  1.00  0.00     0.040 C 
BRANCH  29  30
HETATM   30  C   UNL     1      26.638  41.852  50.647  1.00  0.00     0.075 C 
BRANCH  30  31
HETATM   31  S   UNL     1      27.943  40.581  50.657  1.00  0.00    -0.173 SA
HETATM   32  C   UNL     1      28.656  40.889  52.296  1.00  0.00     0.089 C 
ENDBRANCH  30  31
ENDBRANCH  29  30
ENDBRANCH   1  29
TORSDOF 9
ENDMDL
MODEL 2
REMARK VINA RESULT:      -8.5      2.252      8.149
REMARK  9 active torsions:
REMARK  status: ('A' for Active; 'I' for Inactive)
REMARK    1  A    between atoms: O_2  and  C_3 
REMARK    2  A    between atoms: C_4  and  S_5 
REMARK    3  A    between atoms: S_5  and  N_6 
REMARK    4  A    between atoms: N_6  and  C_7 
REMARK    5  A    between atoms: C_7  and  C_8 
REMARK    6  A    between atoms: C_7  and  C_21 
REMARK       I    between atoms: C_8  and  N_9 
REMARK    7  A    between atoms: N_9  and  C_10 
REMARK    8  A    between atoms: C_21  and  C_22 
REMARK    9  A    between atoms: C_22  and  S_23 
ROOT
HETATM    1  C   UNL     1      26.608  44.739  51.241  1.00  0.00     0.165 C 
ENDROOT
BRANCH   1   2
HETATM    2  N   UNL     1      25.878  44.032  52.332  1.00  0.00    -0.202 NA
HETATM    3  H   UNL     1      24.914  43.787  52.066  1.00  0.00     0.141 HD
BRANCH   2   4
HETATM    4  S   UNL     1      25.856  44.738  53.869  1.00  0.00     0.245 S 
HETATM    5  O   UNL     1      24.956  43.948  54.682  1.00  0.00    -0.206 OA
HETATM    6  O   UNL     1      25.642  46.157  53.691  1.00  0.00    -0.206 OA
BRANCH   4   7
HETATM    7  C   UNL     1      27.502  44.521  54.492  1.00  0.00     0.107 A 
HETATM    8  C   UNL     1      28.164  43.293  54.349  1.00  0.00     0.091 A 
HETATM    9  C   UNL     1      29.478  43.186  54.818  1.00  0.00     0.038 A 
HETATM   10  C   UNL     1      30.111  44.277  55.423  1.00  0.00     0.003 A 
HETATM   11  C   UNL     1      29.440  45.488  55.565  1.00  0.00     0.002 A 
HETATM   12  C   UNL     1      28.134  45.615  55.099  1.00  0.00     0.028 A 
BRANCH   8  13
HETATM   13  O   UNL     1      27.472  42.269  53.760  1.00  0.00    -0.354 OA
HETATM   14  C   UNL     1      28.214  41.124  53.353  1.00  0.00     0.210 C 
ENDBRANCH   8  13
ENDBRANCH   4   7
ENDBRANCH   2   4
ENDBRANCH   1   2
BRANCH   1  15
HETATM   15  C   UNL     1      25.611  45.525  50.386  1.00  0.00     0.254 C 
HETATM   16  N   UNL     1      25.583  46.880  50.630  1.00  0.00    -0.156 N 
HETATM   17  H   UNL     1      26.260  47.336  51.237  1.00  0.00     0.187 HD
HETATM   18  O   UNL     1      24.915  44.965  49.535  1.00  0.00    -0.271 OA
BRANCH  16  19
HETATM   19  C   UNL     1      24.722  47.720  49.972  1.00  0.00     0.708 A 
HETATM   20  N   UNL     1      25.074  48.822  49.357  1.00  0.00    -0.062 NA
HETATM   21  C   UNL     1      23.908  49.336  48.834  1.00  0.00     0.103 A 
HETATM   22  C   UNL     1      22.817  48.545  49.177  1.00  0.00     0.078 A 
HETATM   23  C   UNL     1      23.700  50.482  48.052  1.00  0.00     0.034 A 
HETATM   24  N   UNL     1      23.368  47.512  49.886  1.00  0.00    -0.188 N 
HETATM   25  C   UNL     1      21.503  48.842  48.810  1.00  0.00     0.032 A 
HETATM   26  H   UNL     1      22.889  46.715  50.284  1.00  0.00     0.184 HD
HETATM   27  C   UNL     1      21.314  49.995  48.040  1.00  0.00     0.002 A 
HETATM   28  C   UNL     1      22.393  50.798  47.659  1.00  0.00     0.002 A 
ENDBRANCH  16  19
ENDBRANCH   1  15
BRANCH   1  29
HETATM   29  C   UNL     1      27.316  43.650  50.417  1.00  0.00     0.040 C 
BRANCH  29  30
HETATM   30  C   UNL     1      26.622  42.290  50.331  1.00  0.00     0.075 C 
BRANCH  30  31
HETATM   31  S   UNL     1      27.602  40.972  49.543  1.00  0.00    -0.173 SA
HETATM   32  C   UNL     1      26.544  39.545  49.911  1.00  0.00     0.089 C 
ENDBRANCH  30  31
ENDBRANCH  29  30
ENDBRANCH   1  29
TORSDOF 9
ENDMDL
MODEL 3
REMARK VINA RESULT:      -8.3      2.263      7.977
REMARK  9 active torsions:
REMARK  status: ('A' for Active; 'I' for Inactive)
REMARK    1  A    between atoms: O_2  and  C_3 
REMARK    2  A    between atoms: C_4  and  S_5 
REMARK    3  A    between atoms: S_5  and  N_6 
REMARK    4  A    between atoms: N_6  and  C_7 
REMARK    5  A    between atoms: C_7  and  C_8 
REMARK    6  A    between atoms: C_7  and  C_21 
REMARK       I    between atoms: C_8  and  N_9 
REMARK    7  A    between atoms: N_9  and  C_10 
REMARK    8  A    between atoms: C_21  and  C_22 
REMARK    9  A    between atoms: C_22  and  S_23 
ROOT
HETATM    1  C   UNL     1      26.965  43.959  51.092  1.00  0.00     0.165 C 
ENDROOT
BRANCH   1   2
HETATM    2  N   UNL     1      27.377  44.407  52.454  1.00  0.00    -0.202 NA
HETATM    3  H   UNL     1      28.097  45.143  52.425  1.00  0.00     0.141 HD
BRANCH   2   4
HETATM    4  S   UNL     1      27.845  43.231  53.576  1.00  0.00     0.245 S 
HETATM    5  O   UNL     1      28.583  42.223  52.845  1.00  0.00    -0.206 OA
HETATM    6  O   UNL     1      26.675  42.880  54.350  1.00  0.00    -0.206 OA
BRANCH   4   7
HETATM    7  C   UNL     1      28.972  44.065  54.663  1.00  0.00     0.107 A 
HETATM    8  C   UNL     1      28.642  45.311  55.214  1.00  0.00     0.091 A 
HETATM    9  C   UNL     1      29.546  45.908  56.101  1.00  0.00     0.038 A 
HETATM   10  C   UNL     1      30.753  45.278  56.419  1.00  0.00     0.003 A 
HETATM   11  C   UNL     1      31.072  44.044  55.859  1.00  0.00     0.002 A 
HETATM   12  C   UNL     1      30.182  43.433  54.979  1.00  0.00     0.028 A 
BRANCH   8  13
HETATM   13  O   UNL     1      27.449  45.869  54.842  1.00  0.00    -0.354 OA
HETATM   14  C   UNL     1      27.319  47.282  54.961  1.00  0.00     0.210 C 
ENDBRANCH   8  13
ENDBRANCH   4   7
ENDBRANCH   2   4
ENDBRANCH   1   2
BRANCH   1  15
HETATM   15  C   UNL     1      26.558  45.176  50.256  1.00  0.00     0.254 C 
HETATM   16  N   UNL     1      25.362  45.752  50.620  1.00  0.00    -0.156 N 
HETATM   17  H   UNL     1      24.855  45.469  51.456  1.00  0.00     0.187 HD
HETATM   18  O   UNL     1      27.278  45.599  49.348  1.00  0.00    -0.271 OA
BRANCH  16  19
HETATM   19  C   UNL     1      24.840  46.828  49.950  1.00  0.00     0.708 A 
HETATM   20  N   UNL     1      23.616  46.900  49.487  1.00  0.00    -0.062 NA
HETATM   21  C   UNL     1      23.519  48.144  48.904  1.00  0.00     0.103 A 
HETATM   22  C   UNL     1      24.730  48.826  48.980  1.00  0.00     0.078 A 
HETATM   23  C   UNL     1      22.425  48.766  48.283  1.00  0.00     0.034 A 
HETATM   24  N   UNL     1      25.547  47.970  49.668  1.00  0.00    -0.188 N 
HETATM   25  C   UNL     1      24.934  50.098  48.443  1.00  0.00     0.032 A 
HETATM   26  H   UNL     1      26.507  48.126  49.944  1.00  0.00     0.184 HD
HETATM   27  C   UNL     1      23.835  50.696  47.819  1.00  0.00     0.002 A 
HETATM   28  C   UNL     1      22.598  50.048  47.746  1.00  0.00     0.002 A 
ENDBRANCH  16  19
ENDBRANCH   1  15
BRANCH   1  29
HETATM   29  C   UNL     1      25.783  42.996  51.292  1.00  0.00     0.040 C 
BRANCH  29  30
HETATM   30  C   UNL     1      25.567  41.936  50.210  1.00  0.00     0.075 C 
BRANCH  30  31
HETATM   31  S   UNL     1      26.435  40.359  50.491  1.00  0.00    -0.173 SA
HETATM   32  C   UNL     1      27.944  40.668  49.532  1.00  0.00     0.089 C 
ENDBRANCH  30  31
ENDBRANCH  29  30
ENDBRANCH   1  29
TORSDOF 9
ENDMDL
MODEL 4
REMARK VINA RESULT:      -8.3      2.102      3.066
REMARK  9 active torsions:
REMARK  status: ('A' for Active; 'I' for Inactive)
REMARK    1  A    between atoms: O_2  and  C_3 
REMARK    2  A    between atoms: C_4  and  S_5 
REMARK    3  A    between atoms: S_5  and  N_6 
REMARK    4  A    between atoms: N_6  and  C_7 
REMARK    5  A    between atoms: C_7  and  C_8 
REMARK    6  A    between atoms: C_7  and  C_21 
REMARK       I    between atoms: C_8  and  N_9 
REMARK    7  A    between atoms: N_9  and  C_10 
REMARK    8  A    between atoms: C_21  and  C_22 
REMARK    9  A    between atoms: C_22  and  S_23 
ROOT
HETATM    1  C   UNL     1      25.304  44.919  50.157  1.00  0.00     0.165 C 
ENDROOT
BRANCH   1   2
HETATM    2  N   UNL     1      25.468  46.116  49.283  1.00  0.00    -0.202 NA
HETATM    3  H   UNL     1      26.288  46.042  48.665  1.00  0.00     0.141 HD
BRANCH   2   4
HETATM    4  S   UNL     1      25.470  47.644  50.009  1.00  0.00     0.245 S 
HETATM    5  O   UNL     1      26.799  48.190  49.837  1.00  0.00    -0.206 OA
HETATM    6  O   UNL     1      24.892  47.498  51.327  1.00  0.00    -0.206 OA
BRANCH   4   7
HETATM    7  C   UNL     1      24.343  48.609  49.038  1.00  0.00     0.107 A 
HETATM    8  C   UNL     1      23.076  48.109  48.706  1.00  0.00     0.091 A 
HETATM    9  C   UNL     1      22.207  48.927  47.975  1.00  0.00     0.038 A 
HETATM   10  C   UNL     1      22.599  50.209  47.578  1.00  0.00     0.003 A 
HETATM   11  C   UNL     1      23.863  50.692  47.909  1.00  0.00     0.002 A 
HETATM   12  C   UNL     1      24.739  49.893  48.640  1.00  0.00     0.028 A 
BRANCH   8  13
HETATM   13  O   UNL     1      22.772  46.839  49.118  1.00  0.00    -0.354 OA
HETATM   14  C   UNL     1      21.751  46.145  48.408  1.00  0.00     0.210 C 
ENDBRANCH   8  13
ENDBRANCH   4   7
ENDBRANCH   2   4
ENDBRANCH   1   2
BRANCH   1  15
HETATM   15  C   UNL     1      26.559  44.737  51.014  1.00  0.00     0.254 C 
HETATM   16  N   UNL     1      26.351  44.841  52.371  1.00  0.00    -0.156 N 
HETATM   17  H   UNL     1      25.419  44.906  52.774  1.00  0.00     0.187 HD
HETATM   18  O   UNL     1      27.655  44.494  50.503  1.00  0.00    -0.271 OA
BRANCH  16  19
HETATM   19  C   UNL     1      27.377  44.737  53.274  1.00  0.00     0.708 A 
HETATM   20  N   UNL     1      27.656  45.625  54.197  1.00  0.00    -0.062 NA
HETATM   21  C   UNL     1      28.742  45.118  54.875  1.00  0.00     0.103 A 
HETATM   22  C   UNL     1      29.156  43.911  54.322  1.00  0.00     0.078 A 
HETATM   23  C   UNL     1      29.435  45.633  55.981  1.00  0.00     0.034 A 
HETATM   24  N   UNL     1      28.256  43.684  53.315  1.00  0.00    -0.188 N 
HETATM   25  C   UNL     1      30.254  43.185  54.787  1.00  0.00     0.032 A 
HETATM   26  H   UNL     1      28.215  42.886  52.696  1.00  0.00     0.184 HD
HETATM   27  C   UNL     1      30.939  43.721  55.882  1.00  0.00     0.002 A 
HETATM   28  C   UNL     1      30.534  44.920  56.476  1.00  0.00     0.002 A 
ENDBRANCH  16  19
ENDBRANCH   1  15
BRANCH   1  29
HETATM   29  C   UNL     1      25.091  43.721  49.214  1.00  0.00     0.040 C 
BRANCH  29  30
HETATM   30  C   UNL     1      24.094  42.654  49.670  1.00  0.00     0.075 C 
BRANCH  30  31
HETATM   31  S   UNL     1      23.510  41.534  48.358  1.00  0.00    -0.173 SA
HETATM   32  C   UNL     1      22.819  42.751  47.204  1.00  0.00     0.089 C 
ENDBRANCH  30  31
ENDBRANCH  29  30
ENDBRANCH   1  29
TORSDOF 9
ENDMDL
MODEL 5
REMARK VINA RESULT:      -8.2      2.720      7.582
REMARK  9 active torsions:
REMARK  status: ('A' for Active; 'I' for Inactive)
REMARK    1  A    between atoms: O_2  and  C_3 
REMARK    2  A    between atoms: C_4  and  S_5 
REMARK    3  A    between atoms: S_5  and  N_6 
REMARK    4  A    between atoms: N_6  and  C_7 
REMARK    5  A    between atoms: C_7  and  C_8 
REMARK    6  A    between atoms: C_7  and  C_21 
REMARK       I    between atoms: C_8  and  N_9 
REMARK    7  A    between atoms: N_9  and  C_10 
REMARK    8  A    between atoms: C_21  and  C_22 
REMARK    9  A    between atoms: C_22  and  S_23 
ROOT
HETATM    1  C   UNL     1      25.671  44.888  51.428  1.00  0.00     0.165 C 
ENDROOT
BRANCH   1   2
HETATM    2  N   UNL     1      26.666  45.376  52.427  1.00  0.00    -0.202 NA
HETATM    3  H   UNL     1      27.613  45.016  52.247  1.00  0.00     0.141 HD
BRANCH   2   4
HETATM    4  S   UNL     1      26.313  45.181  54.070  1.00  0.00     0.245 S 
HETATM    5  O   UNL     1      25.591  43.934  54.200  1.00  0.00    -0.206 OA
HETATM    6  O   UNL     1      25.740  46.423  54.541  1.00  0.00    -0.206 OA
BRANCH   4   7
HETATM    7  C   UNL     1      27.892  44.993  54.854  1.00  0.00     0.107 A 
HETATM    8  C   UNL     1      28.773  43.979  54.451  1.00  0.00     0.091 A 
HETATM    9  C   UNL     1      30.026  43.899  55.071  1.00  0.00     0.038 A 
HETATM   10  C   UNL     1      30.384  44.805  56.074  1.00  0.00     0.003 A 
HETATM   11  C   UNL     1      29.497  45.803  56.469  1.00  0.00     0.002 A 
HETATM   12  C   UNL     1      28.249  45.901  55.860  1.00  0.00     0.028 A 
BRANCH   8  13
HETATM   13  O   UNL     1      28.343  43.122  53.473  1.00  0.00    -0.354 OA
HETATM   14  C   UNL     1      29.240  42.097  53.058  1.00  0.00     0.210 C 
ENDBRANCH   8  13
ENDBRANCH   4   7
ENDBRANCH   2   4
ENDBRANCH   1   2
BRANCH   1  15
HETATM   15  C   UNL     1      26.281  43.738  50.621  1.00  0.00     0.254 C 
HETATM   16  N   UNL     1      26.104  42.489  51.173  1.00  0.00    -0.156 N 
HETATM   17  H   UNL     1      25.508  42.332  51.982  1.00  0.00     0.187 HD
HETATM   18  O   UNL     1      26.860  43.943  49.551  1.00  0.00    -0.271 OA
BRANCH  16  19
HETATM   19  C   UNL     1      26.618  41.359  50.591  1.00  0.00     0.708 A 
HETATM   20  N   UNL     1      26.036  40.184  50.594  1.00  0.00    -0.062 NA
HETATM   21  C   UNL     1      26.886  39.355  49.898  1.00  0.00     0.103 A 
HETATM   22  C   UNL     1      28.031  40.036  49.498  1.00  0.00     0.078 A 
HETATM   23  C   UNL     1      26.749  37.999  49.564  1.00  0.00     0.034 A 
HETATM   24  N   UNL     1      27.824  41.315  49.938  1.00  0.00    -0.188 N 
HETATM   25  C   UNL     1      29.082  39.437  48.801  1.00  0.00     0.032 A 
HETATM   26  H   UNL     1      28.431  42.114  49.813  1.00  0.00     0.184 HD
HETATM   27  C   UNL     1      28.932  38.082  48.488  1.00  0.00     0.002 A 
HETATM   28  C   UNL     1      27.783  37.375  48.854  1.00  0.00     0.002 A 
ENDBRANCH  16  19
ENDBRANCH   1  15
BRANCH   1  29
HETATM   29  C   UNL     1      25.337  46.090  50.527  1.00  0.00     0.040 C 
BRANCH  29  30
HETATM   30  C   UNL     1      26.028  47.413  50.859  1.00  0.00     0.075 C 
BRANCH  30  31
HETATM   31  S   UNL     1      26.878  48.212  49.459  1.00  0.00    -0.173 SA
HETATM   32  C   UNL     1      25.530  49.256  48.841  1.00  0.00     0.089 C 
ENDBRANCH  30  31
ENDBRANCH  29  30
ENDBRANCH   1  29
TORSDOF 9
ENDMDL
MODEL 6
REMARK VINA RESULT:      -8.2      2.575      8.093
REMARK  9 active torsions:
REMARK  status: ('A' for Active; 'I' for Inactive)
REMARK    1  A    between atoms: O_2  and  C_3 
REMARK    2  A    between atoms: C_4  and  S_5 
REMARK    3  A    between atoms: S_5  and  N_6 
REMARK    4  A    between atoms: N_6  and  C_7 
REMARK    5  A    between atoms: C_7  and  C_8 
REMARK    6  A    between atoms: C_7  and  C_21 
REMARK       I    between atoms: C_8  and  N_9 
REMARK    7  A    between atoms: N_9  and  C_10 
REMARK    8  A    between atoms: C_21  and  C_22 
REMARK    9  A    between atoms: C_22  and  S_23 
ROOT
HETATM    1  C   UNL     1      25.537  43.995  51.002  1.00  0.00     0.165 C 
ENDROOT
BRANCH   1   2
HETATM    2  N   UNL     1      24.939  43.693  52.334  1.00  0.00    -0.202 NA
HETATM    3  H   UNL     1      23.911  43.748  52.324  1.00  0.00     0.141 HD
BRANCH   2   4
HETATM    4  S   UNL     1      25.517  44.536  53.682  1.00  0.00     0.245 S 
HETATM    5  O   UNL     1      24.698  44.141  54.808  1.00  0.00    -0.206 OA
HETATM    6  O   UNL     1      25.638  45.927  53.304  1.00  0.00    -0.206 OA
BRANCH   4   7
HETATM    7  C   UNL     1      27.156  43.909  53.940  1.00  0.00     0.107 A 
HETATM    8  C   UNL     1      28.095  44.647  54.673  1.00  0.00     0.091 A 
HETATM    9  C   UNL     1      29.362  44.089  54.886  1.00  0.00     0.038 A 
HETATM   10  C   UNL     1      29.681  42.830  54.371  1.00  0.00     0.003 A 
HETATM   11  C   UNL     1      28.741  42.110  53.639  1.00  0.00     0.002 A 
HETATM   12  C   UNL     1      27.475  42.647  53.421  1.00  0.00     0.028 A 
BRANCH   8  13
HETATM   13  O   UNL     1      27.711  45.879  55.131  1.00  0.00    -0.354 OA
HETATM   14  C   UNL     1      28.390  46.397  56.270  1.00  0.00     0.210 C 
ENDBRANCH   8  13
ENDBRANCH   4   7
ENDBRANCH   2   4
ENDBRANCH   1   2
BRANCH   1  15
HETATM   15  C   UNL     1      24.670  45.027  50.275  1.00  0.00     0.254 C 
HETATM   16  N   UNL     1      25.069  46.335  50.441  1.00  0.00    -0.156 N 
HETATM   17  H   UNL     1      25.941  46.582  50.903  1.00  0.00     0.187 HD
HETATM   18  O   UNL     1      23.709  44.683  49.583  1.00  0.00    -0.271 OA
BRANCH  16  19
HETATM   19  C   UNL     1      24.380  47.381  49.884  1.00  0.00     0.708 A 
HETATM   20  N   UNL     1      24.925  48.491  49.452  1.00  0.00    -0.062 NA
HETATM   21  C   UNL     1      23.880  49.247  48.969  1.00  0.00     0.103 A 
HETATM   22  C   UNL     1      22.666  48.592  49.151  1.00  0.00     0.078 A 
HETATM   23  C   UNL     1      23.888  50.510  48.358  1.00  0.00     0.034 A 
HETATM   24  N   UNL     1      23.018  47.398  49.719  1.00  0.00    -0.188 N 
HETATM   25  C   UNL     1      21.434  49.137  48.785  1.00  0.00     0.032 A 
HETATM   26  H   UNL     1      22.405  46.636  49.977  1.00  0.00     0.184 HD
HETATM   27  C   UNL     1      21.462  50.401  48.187  1.00  0.00     0.002 A 
HETATM   28  C   UNL     1      22.667  51.075  47.968  1.00  0.00     0.002 A 
ENDBRANCH  16  19
ENDBRANCH   1  15
BRANCH   1  29
HETATM   29  C   UNL     1      25.583  42.662  50.235  1.00  0.00     0.040 C 
BRANCH  29  30
HETATM   30  C   UNL     1      26.850  42.372  49.430  1.00  0.00     0.075 C 
BRANCH  30  31
HETATM   31  S   UNL     1      27.147  40.612  49.065  1.00  0.00    -0.173 SA
HETATM   32  C   UNL     1      28.272  40.204  50.428  1.00  0.00     0.089 C 
ENDBRANCH  30  31
ENDBRANCH  29  30
ENDBRANCH   1  29
TORSDOF 9
ENDMDL
MODEL 7
REMARK VINA RESULT:      -8.0      1.728      2.450
REMARK  9 active torsions:
REMARK  status: ('A' for Active; 'I' for Inactive)
REMARK    1  A    between atoms: O_2  and  C_3 
REMARK    2  A    between atoms: C_4  and  S_5 
REMARK    3  A    between atoms: S_5  and  N_6 
REMARK    4  A    between atoms: N_6  and  C_7 
REMARK    5  A    between atoms: C_7  and  C_8 
REMARK    6  A    between atoms: C_7  and  C_21 
REMARK       I    between atoms: C_8  and  N_9 
REMARK    7  A    between atoms: N_9  and  C_10 
REMARK    8  A    between atoms: C_21  and  C_22 
REMARK    9  A    between atoms: C_22  and  S_23 
ROOT
HETATM    1  C   UNL     1      24.700  44.612  51.665  1.00  0.00     0.165 C 
ENDROOT
BRANCH   1   2
HETATM    2  N   UNL     1      25.466  45.291  50.580  1.00  0.00    -0.202 NA
HETATM    3  H   UNL     1      26.477  45.105  50.638  1.00  0.00     0.141 HD
BRANCH   2   4
HETATM    4  S   UNL     1      25.229  46.950  50.350  1.00  0.00     0.245 S 
HETATM    5  O   UNL     1      26.351  47.431  49.573  1.00  0.00    -0.206 OA
HETATM    6  O   UNL     1      24.918  47.526  51.640  1.00  0.00    -0.206 OA
BRANCH   4   7
HETATM    7  C   UNL     1      23.770  47.065  49.349  1.00  0.00     0.107 A 
HETATM    8  C   UNL     1      23.243  48.315  48.997  1.00  0.00     0.091 A 
HETATM    9  C   UNL     1      22.115  48.353  48.168  1.00  0.00     0.038 A 
HETATM   10  C   UNL     1      21.525  47.170  47.711  1.00  0.00     0.003 A 
HETATM   11  C   UNL     1      22.055  45.935  48.074  1.00  0.00     0.002 A 
HETATM   12  C   UNL     1      23.180  45.878  48.893  1.00  0.00     0.028 A 
BRANCH   8  13
HETATM   13  O   UNL     1      23.867  49.426  49.496  1.00  0.00    -0.354 OA
HETATM   14  C   UNL     1      23.436  50.694  49.013  1.00  0.00     0.210 C 
ENDBRANCH   8  13
ENDBRANCH   4   7
ENDBRANCH   2   4
ENDBRANCH   1   2
BRANCH   1  15
HETATM   15  C   UNL     1      25.551  44.563  52.937  1.00  0.00     0.254 C 
HETATM   16  N   UNL     1      26.859  44.959  52.772  1.00  0.00    -0.156 N 
HETATM   17  H   UNL     1      27.196  45.372  51.905  1.00  0.00     0.187 HD
HETATM   18  O   UNL     1      25.069  44.213  54.018  1.00  0.00    -0.271 OA
BRANCH  16  19
HETATM   19  C   UNL     1      27.760  44.941  53.805  1.00  0.00     0.708 A 
HETATM   20  N   UNL     1      28.773  44.115  53.901  1.00  0.00    -0.062 NA
HETATM   21  C   UNL     1      29.410  44.454  55.074  1.00  0.00     0.103 A 
HETATM   22  C   UNL     1      28.741  45.486  55.725  1.00  0.00     0.078 A 
HETATM   23  C   UNL     1      30.572  43.923  55.654  1.00  0.00     0.034 A 
HETATM   24  N   UNL     1      27.704  45.788  54.884  1.00  0.00    -0.188 N 
HETATM   25  C   UNL     1      29.143  46.012  56.953  1.00  0.00     0.032 A 
HETATM   26  H   UNL     1      27.006  46.509  55.004  1.00  0.00     0.184 HD
HETATM   27  C   UNL     1      30.297  45.462  57.521  1.00  0.00     0.002 A 
HETATM   28  C   UNL     1      31.006  44.441  56.881  1.00  0.00     0.002 A 
ENDBRANCH  16  19
ENDBRANCH   1  15
BRANCH   1  29
HETATM   29  C   UNL     1      24.380  43.198  51.150  1.00  0.00     0.040 C 
BRANCH  29  30
HETATM   30  C   UNL     1      25.202  42.695  49.962  1.00  0.00     0.075 C 
BRANCH  30  31
HETATM   31  S   UNL     1      25.989  41.069  50.202  1.00  0.00    -0.173 SA
HETATM   32  C   UNL     1      27.184  41.498  51.498  1.00  0.00     0.089 C 
ENDBRANCH  30  31
ENDBRANCH  29  30
ENDBRANCH   1  29
TORSDOF 9
ENDMDL
MODEL 8
REMARK VINA RESULT:      -8.0      2.386      3.575
REMARK  9 active torsions:
REMARK  status: ('A' for Active; 'I' for Inactive)
REMARK    1  A    between atoms: O_2  and  C_3 
REMARK    2  A    between atoms: C_4  and  S_5 
REMARK    3  A    between atoms: S_5  and  N_6 
REMARK    4  A    between atoms: N_6  and  C_7 
REMARK    5  A    between atoms: C_7  and  C_8 
REMARK    6  A    between atoms: C_7  and  C_21 
REMARK       I    between atoms: C_8  and  N_9 
REMARK    7  A    between atoms: N_9  and  C_10 
REMARK    8  A    between atoms: C_21  and  C_22 
REMARK    9  A    between atoms: C_22  and  S_23 
ROOT
HETATM    1  C   UNL     1      27.386  41.287  51.464  1.00  0.00     0.165 C 
ENDROOT
BRANCH   1   2
HETATM    2  N   UNL     1      27.317  42.494  50.591  1.00  0.00    -0.202 NA
HETATM    3  H   UNL     1      27.893  43.270  50.948  1.00  0.00     0.141 HD
BRANCH   2   4
HETATM    4  S   UNL     1      25.792  43.095  50.174  1.00  0.00     0.245 S 
HETATM    5  O   UNL     1      24.832  42.439  51.035  1.00  0.00    -0.206 OA
HETATM    6  O   UNL     1      25.674  43.018  48.735  1.00  0.00    -0.206 OA
BRANCH   4   7
HETATM    7  C   UNL     1      25.847  44.813  50.612  1.00  0.00     0.107 A 
HETATM    8  C   UNL     1      25.890  45.206  51.957  1.00  0.00     0.091 A 
HETATM    9  C   UNL     1      25.977  46.573  52.249  1.00  0.00     0.038 A 
HETATM   10  C   UNL     1      26.010  47.521  51.222  1.00  0.00     0.003 A 
HETATM   11  C   UNL     1      25.960  47.118  49.891  1.00  0.00     0.002 A 
HETATM   12  C   UNL     1      25.879  45.762  49.581  1.00  0.00     0.028 A 
BRANCH   8  13
HETATM   13  O   UNL     1      25.837  44.219  52.904  1.00  0.00    -0.354 OA
HETATM   14  C   UNL     1      25.237  44.541  54.155  1.00  0.00     0.210 C 
ENDBRANCH   8  13
ENDBRANCH   4   7
ENDBRANCH   2   4
ENDBRANCH   1   2
BRANCH   1  15
HETATM   15  C   UNL     1      28.001  41.668  52.814  1.00  0.00     0.254 C 
HETATM   16  N   UNL     1      28.484  42.955  52.886  1.00  0.00    -0.156 N 
HETATM   17  H   UNL     1      28.329  43.635  52.145  1.00  0.00     0.187 HD
HETATM   18  O   UNL     1      28.026  40.870  53.754  1.00  0.00    -0.271 OA
BRANCH  16  19
HETATM   19  C   UNL     1      29.095  43.440  54.013  1.00  0.00     0.708 A 
HETATM   20  N   UNL     1      28.859  44.614  54.546  1.00  0.00    -0.062 NA
HETATM   21  C   UNL     1      29.673  44.682  55.655  1.00  0.00     0.103 A 
HETATM   22  C   UNL     1      30.450  43.534  55.772  1.00  0.00     0.078 A 
HETATM   23  C   UNL     1      29.805  45.695  56.615  1.00  0.00     0.034 A 
HETATM   24  N   UNL     1      30.047  42.753  54.723  1.00  0.00    -0.188 N 
HETATM   25  C   UNL     1      31.391  43.340  56.786  1.00  0.00     0.032 A 
HETATM   26  H   UNL     1      30.370  41.824  54.488  1.00  0.00     0.184 HD
HETATM   27  C   UNL     1      31.516  44.367  57.727  1.00  0.00     0.002 A 
HETATM   28  C   UNL     1      30.732  45.522  57.651  1.00  0.00     0.002 A 
ENDBRANCH  16  19
ENDBRANCH   1  15
BRANCH   1  29
HETATM   29  C   UNL     1      28.259  40.263  50.720  1.00  0.00     0.040 C 
BRANCH  29  30
HETATM   30  C   UNL     1      27.571  39.424  49.641  1.00  0.00     0.075 C 
BRANCH  30  31
HETATM   31  S   UNL     1      28.500  39.259  48.083  1.00  0.00    -0.173 SA
HETATM   32  C   UNL     1      27.995  40.797  47.264  1.00  0.00     0.089 C 
ENDBRANCH  30  31
ENDBRANCH  29  30
ENDBRANCH   1  29
TORSDOF 9
ENDMDL
MODEL 9
REMARK VINA RESULT:      -8.0      2.388      7.580
REMARK  9 active torsions:
REMARK  status: ('A' for Active; 'I' for Inactive)
REMARK    1  A    between atoms: O_2  and  C_3 
REMARK    2  A    between atoms: C_4  and  S_5 
REMARK    3  A    between atoms: S_5  and  N_6 
REMARK    4  A    between atoms: N_6  and  C_7 
REMARK    5  A    between atoms: C_7  and  C_8 
REMARK    6  A    between atoms: C_7  and  C_21 
REMARK       I    between atoms: C_8  and  N_9 
REMARK    7  A    between atoms: N_9  and  C_10 
REMARK    8  A    between atoms: C_21  and  C_22 
REMARK    9  A    between atoms: C_22  and  S_23 
ROOT
HETATM    1  C   UNL     1      26.129  43.226  50.944  1.00  0.00     0.165 C 
ENDROOT
BRANCH   1   2
HETATM    2  N   UNL     1      26.022  43.497  52.407  1.00  0.00    -0.202 NA
HETATM    3  H   UNL     1      25.415  44.302  52.614  1.00  0.00     0.141 HD
BRANCH   2   4
HETATM    4  S   UNL     1      27.450  43.648  53.300  1.00  0.00     0.245 S 
HETATM    5  O   UNL     1      28.539  43.690  52.347  1.00  0.00    -0.206 OA
HETATM    6  O   UNL     1      27.416  42.649  54.345  1.00  0.00    -0.206 OA
BRANCH   4   7
HETATM    7  C   UNL     1      27.333  45.237  54.078  1.00  0.00     0.107 A 
HETATM    8  C   UNL     1      28.322  45.670  54.972  1.00  0.00     0.091 A 
HETATM    9  C   UNL     1      28.206  46.950  55.526  1.00  0.00     0.038 A 
HETATM   10  C   UNL     1      27.123  47.772  55.201  1.00  0.00     0.003 A 
HETATM   11  C   UNL     1      26.143  47.328  54.318  1.00  0.00     0.002 A 
HETATM   12  C   UNL     1      26.245  46.059  53.753  1.00  0.00     0.028 A 
BRANCH   8  13
HETATM   13  O   UNL     1      29.343  44.801  55.251  1.00  0.00    -0.354 OA
HETATM   14  C   UNL     1      30.270  45.181  56.263  1.00  0.00     0.210 C 
ENDBRANCH   8  13
ENDBRANCH   4   7
ENDBRANCH   2   4
ENDBRANCH   1   2
BRANCH   1  15
HETATM   15  C   UNL     1      25.438  44.349  50.165  1.00  0.00     0.254 C 
HETATM   16  N   UNL     1      25.729  45.621  50.606  1.00  0.00    -0.156 N 
HETATM   17  H   UNL     1      26.443  45.802  51.308  1.00  0.00     0.187 HD
HETATM   18  O   UNL     1      24.701  44.105  49.207  1.00  0.00    -0.271 OA
BRANCH  16  19
HETATM   19  C   UNL     1      25.166  46.734  50.037  1.00  0.00     0.708 A 
HETATM   20  N   UNL     1      25.837  47.760  49.575  1.00  0.00    -0.062 NA
HETATM   21  C   UNL     1      24.886  48.630  49.091  1.00  0.00     0.103 A 
HETATM   22  C   UNL     1      23.603  48.135  49.304  1.00  0.00     0.078 A 
HETATM   23  C   UNL     1      25.040  49.870  48.454  1.00  0.00     0.034 A 
HETATM   24  N   UNL     1      23.813  46.917  49.892  1.00  0.00    -0.188 N 
HETATM   25  C   UNL     1      22.442  48.822  48.945  1.00  0.00     0.032 A 
HETATM   26  H   UNL     1      23.115  46.243  50.175  1.00  0.00     0.184 HD
HETATM   27  C   UNL     1      22.616  50.061  48.321  1.00  0.00     0.002 A 
HETATM   28  C   UNL     1      23.892  50.576  48.071  1.00  0.00     0.002 A 
ENDBRANCH  16  19
ENDBRANCH   1  15
BRANCH   1  29
HETATM   29  C   UNL     1      25.440  41.871  50.703  1.00  0.00     0.040 C 
BRANCH  29  30
HETATM   30  C   UNL     1      26.264  40.797  49.992  1.00  0.00     0.075 C 
BRANCH  30  31
HETATM   31  S   UNL     1      28.017  40.718  50.482  1.00  0.00    -0.173 SA
HETATM   32  C   UNL     1      28.406  39.028  49.951  1.00  0.00     0.089 C 
ENDBRANCH  30  31
ENDBRANCH  29  30
ENDBRANCH   1  29
TORSDOF 9
ENDMDL
MODEL 10
REMARK VINA RESULT:      -7.9      2.206      3.291
REMARK  9 active torsions:
REMARK  status: ('A' for Active; 'I' for Inactive)
REMARK    1  A    between atoms: O_2  and  C_3 
REMARK    2  A    between atoms: C_4  and  S_5 
REMARK    3  A    between atoms: S_5  and  N_6 
REMARK    4  A    between atoms: N_6  and  C_7 
REMARK    5  A    between atoms: C_7  and  C_8 
REMARK    6  A    between atoms: C_7  and  C_21 
REMARK       I    between atoms: C_8  and  N_9 
REMARK    7  A    between atoms: N_9  and  C_10 
REMARK    8  A    between atoms: C_21  and  C_22 
REMARK    9  A    between atoms: C_22  and  S_23 
ROOT
HETATM    1  C   UNL     1      25.351  42.354  50.554  1.00  0.00     0.165 C 
ENDROOT
BRANCH   1   2
HETATM    2  N   UNL     1      24.924  43.402  49.582  1.00  0.00    -0.202 NA
HETATM    3  H   UNL     1      25.482  44.264  49.665  1.00  0.00     0.141 HD
BRANCH   2   4
HETATM    4  S   UNL     1      23.286  43.818  49.522  1.00  0.00     0.245 S 
HETATM    5  O   UNL     1      22.739  43.567  50.838  1.00  0.00    -0.206 OA
HETATM    6  O   UNL     1      22.721  43.186  48.350  1.00  0.00    -0.206 OA
BRANCH   4   7
HETATM    7  C   UNL     1      23.273  45.569  49.240  1.00  0.00     0.107 A 
HETATM    8  C   UNL     1      24.121  46.415  49.968  1.00  0.00     0.091 A 
HETATM    9  C   UNL     1      24.105  47.785  49.678  1.00  0.00     0.038 A 
HETATM   10  C   UNL     1      23.254  48.295  48.692  1.00  0.00     0.003 A 
HETATM   11  C   UNL     1      22.411  47.444  47.982  1.00  0.00     0.002 A 
HETATM   12  C   UNL     1      22.418  46.078  48.253  1.00  0.00     0.028 A 
BRANCH   8  13
HETATM   13  O   UNL     1      24.913  45.842  50.927  1.00  0.00    -0.354 OA
HETATM   14  C   UNL     1      25.338  46.668  52.006  1.00  0.00     0.210 C 
ENDBRANCH   8  13
ENDBRANCH   4   7
ENDBRANCH   2   4
ENDBRANCH   1   2
BRANCH   1  15
HETATM   15  C   UNL     1      26.584  42.840  51.320  1.00  0.00     0.254 C 
HETATM   16  N   UNL     1      26.397  42.993  52.676  1.00  0.00    -0.156 N 
HETATM   17  H   UNL     1      25.548  42.686  53.145  1.00  0.00     0.187 HD
HETATM   18  O   UNL     1      27.655  43.047  50.746  1.00  0.00    -0.271 OA
BRANCH  16  19
HETATM   19  C   UNL     1      27.393  43.452  53.499  1.00  0.00     0.708 A 
HETATM   20  N   UNL     1      27.383  44.611  54.111  1.00  0.00    -0.062 NA
HETATM   21  C   UNL     1      28.556  44.654  54.830  1.00  0.00     0.103 A 
HETATM   22  C   UNL     1      29.315  43.507  54.615  1.00  0.00     0.078 A 
HETATM   23  C   UNL     1      29.049  45.643  55.694  1.00  0.00     0.034 A 
HETATM   24  N   UNL     1      28.539  42.752  53.778  1.00  0.00    -0.188 N 
HETATM   25  C   UNL     1      30.568  43.292  55.191  1.00  0.00     0.032 A 
HETATM   26  H   UNL     1      28.744  41.830  53.415  1.00  0.00     0.184 HD
HETATM   27  C   UNL     1      31.046  44.295  56.040  1.00  0.00     0.002 A 
HETATM   28  C   UNL     1      30.298  45.448  56.296  1.00  0.00     0.002 A 
ENDBRANCH  16  19
ENDBRANCH   1  15
BRANCH   1  29
HETATM   29  C   UNL     1      25.667  41.097  49.723  1.00  0.00     0.040 C 
BRANCH  29  30
HETATM   30  C   UNL     1      25.923  41.305  48.230  1.00  0.00     0.075 C 
BRANCH  30  31
HETATM   31  S   UNL     1      27.603  40.876  47.669  1.00  0.00    -0.173 SA
HETATM   32  C   UNL     1      28.190  39.975  49.130  1.00  0.00     0.089 C 
ENDBRANCH  30  31
ENDBRANCH  29  30
ENDBRANCH   1  29
TORSDOF 9
ENDMDL
