MODEL 1
REMARK VINA RESULT:      -8.8      0.000      0.000
REMARK  8 active torsions:
REMARK  status: ('A' for Active; 'I' for Inactive)
REMARK    1  A    between atoms: C_2  and  C_3 
REMARK    2  A    between atoms: C_3  and  N_4 
REMARK    3  A    between atoms: N_9  and  C_11 
REMARK    4  A    between atoms: C_11  and  C_12 
REMARK    5  A    between atoms: C_14  and  C_15 
REMARK    6  A    between atoms: C_15  and  C_16 
REMARK    7  A    between atoms: C_16  and  C_17 
REMARK    8  A    between atoms: C_17  and  O_18 
ROOT
HETATM    1  N   UNL     1      27.772  44.342  53.506  1.00  0.00    -0.066 N 
HETATM    2  H   UNL     1      27.936  45.305  53.826  1.00  0.00     0.280 HD
HETATM    3  C   UNL     1      27.283  44.363  52.074  1.00  0.00     0.246 C 
HETATM    4  C   UNL     1      25.989  45.189  51.954  1.00  0.00     0.009 C 
HETATM    5  C   UNL     1      25.483  45.179  50.500  1.00  0.00     0.246 C 
HETATM    6  N   UNL     1      24.640  46.429  50.382  1.00  0.00    -0.066 N 
HETATM    7  H   UNL     1      23.655  46.169  50.554  1.00  0.00     0.280 HD
HETATM    8  C   UNL     1      25.058  47.390  51.466  1.00  0.00     0.236 C 
HETATM    9  C   UNL     1      26.225  46.697  52.161  1.00  0.00     0.040 C 
HETATM   10  C   UNL     1      24.933  44.620  52.928  1.00  0.00     0.014 C 
HETATM   11  C   UNL     1      25.456  44.494  54.362  1.00  0.00     0.029 C 
HETATM   12  C   UNL     1      26.764  43.716  54.444  1.00  0.00     0.235 C 
ENDROOT
BRANCH   1  13
HETATM   13  C   UNL     1      29.138  43.665  53.656  1.00  0.00     0.273 C 
BRANCH  13  14
HETATM   14  C   UNL     1      29.816  44.021  54.954  1.00  0.00    -0.032 A 
HETATM   15  C   UNL     1      30.708  43.124  55.568  1.00  0.00     0.012 A 
HETATM   16  C   UNL     1      31.274  43.430  56.807  1.00  0.00     0.043 A 
HETATM   17  C   UNL     1      30.962  44.633  57.428  1.00  0.00     0.116 A 
HETATM   18  C   UNL     1      30.104  45.544  56.828  1.00  0.00     0.043 A 
HETATM   19  F   UNL     1      31.492  44.914  58.623  1.00  0.00    -0.206 F 
HETATM   20  C   UNL     1      29.531  45.242  55.590  1.00  0.00     0.012 A 
ENDBRANCH  13  14
ENDBRANCH   1  13
BRANCH   6  21
HETATM   21  C   UNL     1      24.613  47.045  48.994  1.00  0.00     0.280 C 
BRANCH  21  22
HETATM   22  C   UNL     1      23.912  48.361  48.976  1.00  0.00     0.009 A 
HETATM   23  S   UNL     1      22.202  48.410  49.103  1.00  0.00    -0.084 SA
HETATM   24  C   UNL     1      22.173  50.113  49.010  1.00  0.00     0.058 A 
HETATM   25  C   UNL     1      23.439  50.641  48.889  1.00  0.00     0.029 A 
HETATM   26  C   UNL     1      24.448  49.629  48.873  1.00  0.00     0.018 A 
BRANCH  24  27
HETATM   27  C   UNL     1      20.968  50.872  49.053  1.00  0.00    -0.057 C 
BRANCH  27  28
HETATM   28  C   UNL     1      19.959  51.524  49.065  1.00  0.00    -0.075 C 
BRANCH  28  29
HETATM   29  C   UNL     1      18.711  52.284  49.082  1.00  0.00     0.258 C 
BRANCH  29  30
HETATM   30  O   UNL     1      18.623  53.067  47.902  1.00  0.00    -0.389 OA
HETATM   31  H   UNL     1      17.680  53.255  47.759  1.00  0.00     0.210 HD
ENDBRANCH  29  30
ENDBRANCH  28  29
ENDBRANCH  27  28
ENDBRANCH  24  27
ENDBRANCH  21  22
ENDBRANCH   6  21
TORSDOF 8
ENDMDL
MODEL 2
REMARK VINA RESULT:      -8.7      5.281     10.966
REMARK  8 active torsions:
REMARK  status: ('A' for Active; 'I' for Inactive)
REMARK    1  A    between atoms: C_2  and  C_3 
REMARK    2  A    between atoms: C_3  and  N_4 
REMARK    3  A    between atoms: N_9  and  C_11 
REMARK    4  A    between atoms: C_11  and  C_12 
REMARK    5  A    between atoms: C_14  and  C_15 
REMARK    6  A    between atoms: C_15  and  C_16 
REMARK    7  A    between atoms: C_16  and  C_17 
REMARK    8  A    between atoms: C_17  and  O_18 
ROOT
HETATM    1  N   UNL     1      23.599  48.478  48.855  1.00  0.00    -0.066 N 
HETATM    2  H   UNL     1      23.350  48.850  49.780  1.00  0.00     0.280 HD
HETATM    3  C   UNL     1      24.050  47.040  48.993  1.00  0.00     0.246 C 
HETATM    4  C   UNL     1      25.253  46.938  49.948  1.00  0.00     0.009 C 
HETATM    5  C   UNL     1      25.723  45.475  50.059  1.00  0.00     0.246 C 
HETATM    6  N   UNL     1      26.438  45.405  51.390  1.00  0.00    -0.066 N 
HETATM    7  H   UNL     1      27.447  45.545  51.219  1.00  0.00     0.280 HD
HETATM    8  C   UNL     1      25.955  46.545  52.251  1.00  0.00     0.236 C 
HETATM    9  C   UNL     1      24.877  47.225  51.413  1.00  0.00     0.040 C 
HETATM   10  C   UNL     1      26.383  47.860  49.438  1.00  0.00     0.014 C 
HETATM   11  C   UNL     1      25.909  49.295  49.191  1.00  0.00     0.029 C 
HETATM   12  C   UNL     1      24.685  49.362  48.285  1.00  0.00     0.235 C 
ENDROOT
BRANCH   1  13
HETATM   13  C   UNL     1      22.310  48.619  48.040  1.00  0.00     0.273 C 
BRANCH  13  14
HETATM   14  C   UNL     1      21.332  49.576  48.673  1.00  0.00    -0.032 A 
HETATM   15  C   UNL     1      20.429  49.134  49.657  1.00  0.00     0.012 A 
HETATM   16  C   UNL     1      19.478  50.009  50.184  1.00  0.00     0.043 A 
HETATM   17  C   UNL     1      19.432  51.325  49.741  1.00  0.00     0.116 A 
HETATM   18  C   UNL     1      20.330  51.788  48.789  1.00  0.00     0.043 A 
HETATM   19  F   UNL     1      18.508  52.155  50.236  1.00  0.00    -0.206 F 
HETATM   20  C   UNL     1      21.282  50.918  48.255  1.00  0.00     0.012 A 
ENDBRANCH  13  14
ENDBRANCH   1  13
BRANCH   6  21
HETATM   21  C   UNL     1      26.371  44.051  52.072  1.00  0.00     0.280 C 
BRANCH  21  22
HETATM   22  C   UNL     1      27.681  43.655  52.666  1.00  0.00     0.009 A 
HETATM   23  S   UNL     1      28.025  44.057  54.298  1.00  0.00    -0.084 SA
HETATM   24  C   UNL     1      29.567  43.330  54.226  1.00  0.00     0.058 A 
HETATM   25  C   UNL     1      29.819  42.785  52.986  1.00  0.00     0.029 A 
HETATM   26  C   UNL     1      28.727  42.969  52.083  1.00  0.00     0.018 A 
BRANCH  24  27
HETATM   27  C   UNL     1      30.466  43.306  55.331  1.00  0.00    -0.057 C 
BRANCH  27  28
HETATM   28  C   UNL     1      31.210  43.307  56.274  1.00  0.00    -0.075 C 
BRANCH  28  29
HETATM   29  C   UNL     1      32.094  43.336  57.437  1.00  0.00     0.258 C 
BRANCH  29  30
HETATM   30  O   UNL     1      31.707  44.399  58.294  1.00  0.00    -0.389 OA
HETATM   31  H   UNL     1      31.206  45.030  57.749  1.00  0.00     0.210 HD
ENDBRANCH  29  30
ENDBRANCH  28  29
ENDBRANCH  27  28
ENDBRANCH  24  27
ENDBRANCH  21  22
ENDBRANCH   6  21
TORSDOF 8
ENDMDL
MODEL 3
REMARK VINA RESULT:      -8.2      1.434      2.066
REMARK  8 active torsions:
REMARK  status: ('A' for Active; 'I' for Inactive)
REMARK    1  A    between atoms: C_2  and  C_3 
REMARK    2  A    between atoms: C_3  and  N_4 
REMARK    3  A    between atoms: N_9  and  C_11 
REMARK    4  A    between atoms: C_11  and  C_12 
REMARK    5  A    between atoms: C_14  and  C_15 
REMARK    6  A    between atoms: C_15  and  C_16 
REMARK    7  A    between atoms: C_16  and  C_17 
REMARK    8  A    between atoms: C_17  and  O_18 
ROOT
HETATM    1  N   UNL     1      28.001  42.952  52.286  1.00  0.00    -0.066 N 
HETATM    2  H   UNL     1      27.376  43.176  53.071  1.00  0.00     0.280 HD
HETATM    3  C   UNL     1      28.040  44.119  51.324  1.00  0.00     0.246 C 
HETATM    4  C   UNL     1      26.628  44.440  50.802  1.00  0.00     0.009 C 
HETATM    5  C   UNL     1      26.683  45.610  49.801  1.00  0.00     0.246 C 
HETATM    6  N   UNL     1      25.293  46.204  49.834  1.00  0.00    -0.066 N 
HETATM    7  H   UNL     1      24.747  45.785  49.064  1.00  0.00     0.280 HD
HETATM    8  C   UNL     1      24.636  45.809  51.133  1.00  0.00     0.236 C 
HETATM    9  C   UNL     1      25.716  45.041  51.888  1.00  0.00     0.040 C 
HETATM   10  C   UNL     1      26.024  43.171  50.162  1.00  0.00     0.014 C 
HETATM   11  C   UNL     1      26.078  41.955  51.091  1.00  0.00     0.029 C 
HETATM   12  C   UNL     1      27.478  41.692  51.633  1.00  0.00     0.235 C 
ENDROOT
BRANCH   1  13
HETATM   13  C   UNL     1      29.354  42.688  52.954  1.00  0.00     0.273 C 
BRANCH  13  14
HETATM   14  C   UNL     1      29.571  43.550  54.171  1.00  0.00    -0.032 A 
HETATM   15  C   UNL     1      28.714  44.629  54.450  1.00  0.00     0.012 A 
HETATM   16  C   UNL     1      28.966  45.467  55.537  1.00  0.00     0.043 A 
HETATM   17  C   UNL     1      30.064  45.225  56.354  1.00  0.00     0.116 A 
HETATM   18  C   UNL     1      30.909  44.151  56.111  1.00  0.00     0.043 A 
HETATM   19  F   UNL     1      30.312  46.041  57.383  1.00  0.00    -0.206 F 
HETATM   20  C   UNL     1      30.665  43.311  55.023  1.00  0.00     0.012 A 
ENDBRANCH  13  14
ENDBRANCH   1  13
BRANCH   6  21
HETATM   21  C   UNL     1      25.236  47.694  49.547  1.00  0.00     0.280 C 
BRANCH  21  22
HETATM   22  C   UNL     1      23.868  48.139  49.155  1.00  0.00     0.009 A 
HETATM   23  S   UNL     1      23.438  49.792  49.315  1.00  0.00    -0.084 SA
HETATM   24  C   UNL     1      21.864  49.514  48.720  1.00  0.00     0.058 A 
HETATM   25  C   UNL     1      21.664  48.190  48.399  1.00  0.00     0.029 A 
HETATM   26  C   UNL     1      22.823  47.393  48.647  1.00  0.00     0.018 A 
BRANCH  24  27
HETATM   27  C   UNL     1      20.892  50.547  48.583  1.00  0.00    -0.057 C 
BRANCH  27  28
HETATM   28  C   UNL     1      20.088  51.435  48.484  1.00  0.00    -0.075 C 
BRANCH  28  29
HETATM   29  C   UNL     1      19.094  52.503  48.397  1.00  0.00     0.258 C 
BRANCH  29  30
HETATM   30  O   UNL     1      18.278  52.478  49.558  1.00  0.00    -0.389 OA
HETATM   31  H   UNL     1      18.078  53.403  49.780  1.00  0.00     0.210 HD
ENDBRANCH  29  30
ENDBRANCH  28  29
ENDBRANCH  27  28
ENDBRANCH  24  27
ENDBRANCH  21  22
ENDBRANCH   6  21
TORSDOF 8
ENDMDL
MODEL 4
REMARK VINA RESULT:      -8.0      5.368      8.226
REMARK  8 active torsions:
REMARK  status: ('A' for Active; 'I' for Inactive)
REMARK    1  A    between atoms: C_2  and  C_3 
REMARK    2  A    between atoms: C_3  and  N_4 
REMARK    3  A    between atoms: N_9  and  C_11 
REMARK    4  A    between atoms: C_11  and  C_12 
REMARK    5  A    between atoms: C_14  and  C_15 
REMARK    6  A    between atoms: C_15  and  C_16 
REMARK    7  A    between atoms: C_16  and  C_17 
REMARK    8  A    between atoms: C_17  and  O_18 
ROOT
HETATM    1  N   UNL     1      26.570  45.815  53.291  1.00  0.00    -0.066 N 
HETATM    2  H   UNL     1      27.454  45.599  52.813  1.00  0.00     0.280 HD
HETATM    3  C   UNL     1      25.528  44.785  52.913  1.00  0.00     0.246 C 
HETATM    4  C   UNL     1      25.315  44.761  51.389  1.00  0.00     0.009 C 
HETATM    5  C   UNL     1      24.232  43.731  51.017  1.00  0.00     0.246 C 
HETATM    6  N   UNL     1      24.529  43.367  49.580  1.00  0.00    -0.066 N 
HETATM    7  H   UNL     1      23.942  43.961  48.972  1.00  0.00     0.280 HD
HETATM    8  C   UNL     1      25.972  43.699  49.293  1.00  0.00     0.236 C 
HETATM    9  C   UNL     1      26.524  44.185  50.629  1.00  0.00     0.040 C 
HETATM   10  C   UNL     1      24.939  46.180  50.908  1.00  0.00     0.014 C 
HETATM   11  C   UNL     1      25.933  47.247  51.377  1.00  0.00     0.029 C 
HETATM   12  C   UNL     1      26.162  47.213  52.883  1.00  0.00     0.235 C 
ENDROOT
BRANCH   1  13
HETATM   13  C   UNL     1      26.933  45.773  54.778  1.00  0.00     0.273 C 
BRANCH  13  14
HETATM   14  C   UNL     1      28.244  45.075  55.030  1.00  0.00    -0.032 A 
HETATM   15  C   UNL     1      28.547  43.861  54.387  1.00  0.00     0.012 A 
HETATM   16  C   UNL     1      29.730  43.183  54.683  1.00  0.00     0.043 A 
HETATM   17  C   UNL     1      30.618  43.718  55.609  1.00  0.00     0.116 A 
HETATM   18  C   UNL     1      30.350  44.927  56.236  1.00  0.00     0.043 A 
HETATM   19  F   UNL     1      31.742  43.056  55.902  1.00  0.00    -0.206 F 
HETATM   20  C   UNL     1      29.166  45.609  55.948  1.00  0.00     0.012 A 
ENDBRANCH  13  14
ENDBRANCH   1  13
BRANCH   6  21
HETATM   21  C   UNL     1      24.137  41.953  49.192  1.00  0.00     0.280 C 
BRANCH  21  22
HETATM   22  C   UNL     1      25.325  41.079  48.974  1.00  0.00     0.009 A 
HETATM   23  S   UNL     1      26.164  40.440  50.328  1.00  0.00    -0.084 SA
HETATM   24  C   UNL     1      27.290  39.628  49.336  1.00  0.00     0.058 A 
HETATM   25  C   UNL     1      27.034  39.831  47.998  1.00  0.00     0.029 A 
HETATM   26  C   UNL     1      25.896  40.668  47.787  1.00  0.00     0.018 A 
BRANCH  24  27
HETATM   27  C   UNL     1      28.357  38.842  49.858  1.00  0.00    -0.057 C 
BRANCH  27  28
HETATM   28  C   UNL     1      29.253  38.189  50.322  1.00  0.00    -0.075 C 
BRANCH  28  29
HETATM   29  C   UNL     1      30.318  37.381  50.912  1.00  0.00     0.258 C 
BRANCH  29  30
HETATM   30  O   UNL     1      29.797  36.109  51.267  1.00  0.00    -0.389 OA
HETATM   31  H   UNL     1      29.201  36.250  52.022  1.00  0.00     0.210 HD
ENDBRANCH  29  30
ENDBRANCH  28  29
ENDBRANCH  27  28
ENDBRANCH  24  27
ENDBRANCH  21  22
ENDBRANCH   6  21
TORSDOF 8
ENDMDL
MODEL 5
REMARK VINA RESULT:      -7.6      5.291      7.639
REMARK  8 active torsions:
REMARK  status: ('A' for Active; 'I' for Inactive)
REMARK    1  A    between atoms: C_2  and  C_3 
REMARK    2  A    between atoms: C_3  and  N_4 
REMARK    3  A    between atoms: N_9  and  C_11 
REMARK    4  A    between atoms: C_11  and  C_12 
REMARK    5  A    between atoms: C_14  and  C_15 
REMARK    6  A    between atoms: C_15  and  C_16 
REMARK    7  A    between atoms: C_16  and  C_17 
REMARK    8  A    between atoms: C_17  and  O_18 
ROOT
HETATM    1  N   UNL     1      26.839  46.003  53.677  1.00  0.00    -0.066 N 
HETATM    2  H   UNL     1      27.742  46.008  53.186  1.00  0.00     0.280 HD
HETATM    3  C   UNL     1      26.122  44.700  53.400  1.00  0.00     0.246 C 
HETATM    4  C   UNL     1      25.906  44.509  51.887  1.00  0.00     0.009 C 
HETATM    5  C   UNL     1      25.149  43.195  51.618  1.00  0.00     0.246 C 
HETATM    6  N   UNL     1      25.518  42.828  50.198  1.00  0.00    -0.066 N 
HETATM    7  H   UNL     1      24.780  43.190  49.572  1.00  0.00     0.280 HD
HETATM    8  C   UNL     1      26.806  43.527  49.844  1.00  0.00     0.236 C 
HETATM    9  C   UNL     1      27.218  44.241  51.128  1.00  0.00     0.040 C 
HETATM   10  C   UNL     1      25.141  45.730  51.328  1.00  0.00     0.014 C 
HETATM   11  C   UNL     1      25.802  47.062  51.696  1.00  0.00     0.029 C 
HETATM   12  C   UNL     1      26.051  47.200  53.193  1.00  0.00     0.235 C 
ENDROOT
BRANCH   1  13
HETATM   13  C   UNL     1      27.218  46.170  55.151  1.00  0.00     0.273 C 
BRANCH  13  14
HETATM   14  C   UNL     1      28.524  45.498  55.488  1.00  0.00    -0.032 A 
HETATM   15  C   UNL     1      28.988  44.408  54.729  1.00  0.00     0.012 A 
HETATM   16  C   UNL     1      30.162  43.745  55.093  1.00  0.00     0.043 A 
HETATM   17  C   UNL     1      30.878  44.172  56.204  1.00  0.00     0.116 A 
HETATM   18  C   UNL     1      30.451  45.260  56.953  1.00  0.00     0.043 A 
HETATM   19  F   UNL     1      31.991  43.522  56.560  1.00  0.00    -0.206 F 
HETATM   20  C   UNL     1      29.277  45.927  56.596  1.00  0.00     0.012 A 
ENDBRANCH  13  14
ENDBRANCH   1  13
BRANCH   6  21
HETATM   21  C   UNL     1      25.532  41.337  49.915  1.00  0.00     0.280 C 
BRANCH  21  22
HETATM   22  C   UNL     1      26.549  40.969  48.888  1.00  0.00     0.009 A 
HETATM   23  S   UNL     1      26.161  41.113  47.223  1.00  0.00    -0.084 SA
HETATM   24  C   UNL     1      27.699  40.552  46.743  1.00  0.00     0.058 A 
HETATM   25  C   UNL     1      28.500  40.264  47.826  1.00  0.00     0.029 A 
HETATM   26  C   UNL     1      27.838  40.507  49.068  1.00  0.00     0.018 A 
BRANCH  24  27
HETATM   27  C   UNL     1      28.081  40.407  45.379  1.00  0.00    -0.057 C 
BRANCH  27  28
HETATM   28  C   UNL     1      28.419  40.264  44.234  1.00  0.00    -0.075 C 
BRANCH  28  29
HETATM   29  C   UNL     1      28.854  40.120  42.847  1.00  0.00     0.258 C 
BRANCH  29  30
HETATM   30  O   UNL     1      29.932  41.010  42.599  1.00  0.00    -0.389 OA
HETATM   31  H   UNL     1      30.067  41.522  43.415  1.00  0.00     0.210 HD
ENDBRANCH  29  30
ENDBRANCH  28  29
ENDBRANCH  27  28
ENDBRANCH  24  27
ENDBRANCH  21  22
ENDBRANCH   6  21
TORSDOF 8
ENDMDL
MODEL 6
REMARK VINA RESULT:      -7.2      5.448     10.837
REMARK  8 active torsions:
REMARK  status: ('A' for Active; 'I' for Inactive)
REMARK    1  A    between atoms: C_2  and  C_3 
REMARK    2  A    between atoms: C_3  and  N_4 
REMARK    3  A    between atoms: N_9  and  C_11 
REMARK    4  A    between atoms: C_11  and  C_12 
REMARK    5  A    between atoms: C_14  and  C_15 
REMARK    6  A    between atoms: C_15  and  C_16 
REMARK    7  A    between atoms: C_16  and  C_17 
REMARK    8  A    between atoms: C_17  and  O_18 
ROOT
HETATM    1  N   UNL     1      22.058  45.419  47.770  1.00  0.00    -0.066 N 
HETATM    2  H   UNL     1      22.740  46.063  47.349  1.00  0.00     0.280 HD
HETATM    3  C   UNL     1      22.345  45.277  49.249  1.00  0.00     0.246 C 
HETATM    4  C   UNL     1      23.777  44.759  49.477  1.00  0.00     0.009 C 
HETATM    5  C   UNL     1      24.049  44.590  50.984  1.00  0.00     0.246 C 
HETATM    6  N   UNL     1      25.553  44.677  51.112  1.00  0.00    -0.066 N 
HETATM    7  H   UNL     1      25.932  43.716  51.101  1.00  0.00     0.280 HD
HETATM    8  C   UNL     1      26.093  45.397  49.901  1.00  0.00     0.236 C 
HETATM    9  C   UNL     1      24.851  45.800  49.112  1.00  0.00     0.040 C 
HETATM   10  C   UNL     1      23.962  43.429  48.714  1.00  0.00     0.014 C 
HETATM   11  C   UNL     1      23.571  43.536  47.237  1.00  0.00     0.029 C 
HETATM   12  C   UNL     1      22.168  44.099  47.040  1.00  0.00     0.235 C 
ENDROOT
BRANCH   1  13
HETATM   13  C   UNL     1      20.704  46.077  47.489  1.00  0.00     0.273 C 
BRANCH  13  14
HETATM   14  C   UNL     1      20.682  47.534  47.875  1.00  0.00    -0.032 A 
HETATM   15  C   UNL     1      19.543  48.101  48.473  1.00  0.00     0.012 A 
HETATM   16  C   UNL     1      19.504  49.467  48.759  1.00  0.00     0.043 A 
HETATM   17  C   UNL     1      20.601  50.266  48.461  1.00  0.00     0.116 A 
HETATM   18  C   UNL     1      21.745  49.721  47.893  1.00  0.00     0.043 A 
HETATM   19  F   UNL     1      20.552  51.576  48.719  1.00  0.00    -0.206 F 
HETATM   20  C   UNL     1      21.790  48.356  47.601  1.00  0.00     0.012 A 
ENDBRANCH  13  14
ENDBRANCH   1  13
BRANCH   6  21
HETATM   21  C   UNL     1      26.044  45.245  52.431  1.00  0.00     0.280 C 
BRANCH  21  22
HETATM   22  C   UNL     1      27.247  44.526  52.940  1.00  0.00     0.009 A 
HETATM   23  S   UNL     1      27.979  45.035  54.406  1.00  0.00    -0.084 SA
HETATM   24  C   UNL     1      29.180  43.828  54.308  1.00  0.00     0.058 A 
HETATM   25  C   UNL     1      29.029  43.045  53.185  1.00  0.00     0.029 A 
HETATM   26  C   UNL     1      27.909  43.445  52.394  1.00  0.00     0.018 A 
BRANCH  24  27
HETATM   27  C   UNL     1      30.205  43.672  55.285  1.00  0.00    -0.057 C 
BRANCH  27  28
HETATM   28  C   UNL     1      31.054  43.522  56.122  1.00  0.00    -0.075 C 
BRANCH  28  29
HETATM   29  C   UNL     1      32.108  43.320  57.115  1.00  0.00     0.258 C 
BRANCH  29  30
HETATM   30  O   UNL     1      31.880  44.180  58.221  1.00  0.00    -0.389 OA
HETATM   31  H   UNL     1      32.351  43.794  58.979  1.00  0.00     0.210 HD
ENDBRANCH  29  30
ENDBRANCH  28  29
ENDBRANCH  27  28
ENDBRANCH  24  27
ENDBRANCH  21  22
ENDBRANCH   6  21
TORSDOF 8
ENDMDL
MODEL 7
REMARK VINA RESULT:      -7.1      4.547      6.763
REMARK  8 active torsions:
REMARK  status: ('A' for Active; 'I' for Inactive)
REMARK    1  A    between atoms: C_2  and  C_3 
REMARK    2  A    between atoms: C_3  and  N_4 
REMARK    3  A    between atoms: N_9  and  C_11 
REMARK    4  A    between atoms: C_11  and  C_12 
REMARK    5  A    between atoms: C_14  and  C_15 
REMARK    6  A    between atoms: C_15  and  C_16 
REMARK    7  A    between atoms: C_16  and  C_17 
REMARK    8  A    between atoms: C_17  and  O_18 
ROOT
HETATM    1  N   UNL     1      25.111  48.324  49.282  1.00  0.00    -0.066 N 
HETATM    2  H   UNL     1      25.082  47.646  48.510  1.00  0.00     0.280 HD
HETATM    3  C   UNL     1      23.727  48.469  49.877  1.00  0.00     0.246 C 
HETATM    4  C   UNL     1      22.720  48.925  48.806  1.00  0.00     0.009 C 
HETATM    5  C   UNL     1      21.321  49.098  49.427  1.00  0.00     0.246 C 
HETATM    6  N   UNL     1      20.366  48.946  48.265  1.00  0.00    -0.066 N 
HETATM    7  H   UNL     1      20.145  49.889  47.906  1.00  0.00     0.280 HD
HETATM    8  C   UNL     1      21.070  48.190  47.166  1.00  0.00     0.236 C 
HETATM    9  C   UNL     1      22.430  47.835  47.758  1.00  0.00     0.040 C 
HETATM   10  C   UNL     1      23.223  50.238  48.165  1.00  0.00     0.014 C 
HETATM   11  C   UNL     1      24.664  50.134  47.655  1.00  0.00     0.029 C 
HETATM   12  C   UNL     1      25.629  49.630  48.722  1.00  0.00     0.235 C 
ENDROOT
BRANCH   1  13
HETATM   13  C   UNL     1      26.119  47.724  50.266  1.00  0.00     0.273 C 
BRANCH  13  14
HETATM   14  C   UNL     1      25.893  46.251  50.493  1.00  0.00    -0.032 A 
HETATM   15  C   UNL     1      25.173  45.800  51.614  1.00  0.00     0.012 A 
HETATM   16  C   UNL     1      25.032  44.432  51.857  1.00  0.00     0.043 A 
HETATM   17  C   UNL     1      25.597  43.515  50.979  1.00  0.00     0.116 A 
HETATM   18  C   UNL     1      26.290  43.939  49.853  1.00  0.00     0.043 A 
HETATM   19  F   UNL     1      25.475  42.206  51.225  1.00  0.00    -0.206 F 
HETATM   20  C   UNL     1      26.437  45.305  49.606  1.00  0.00     0.012 A 
ENDBRANCH  13  14
ENDBRANCH   1  13
BRANCH   6  21
HETATM   21  C   UNL     1      19.010  48.371  48.632  1.00  0.00     0.280 C 
BRANCH  21  22
HETATM   22  C   UNL     1      17.945  49.414  48.654  1.00  0.00     0.009 A 
HETATM   23  S   UNL     1      17.968  50.622  49.872  1.00  0.00    -0.084 SA
HETATM   24  C   UNL     1      16.554  51.360  49.268  1.00  0.00     0.058 A 
HETATM   25  C   UNL     1      16.070  50.706  48.156  1.00  0.00     0.029 A 
HETATM   26  C   UNL     1      16.876  49.582  47.797  1.00  0.00     0.018 A 
BRANCH  24  27
HETATM   27  C   UNL     1      15.965  52.512  49.863  1.00  0.00    -0.057 C 
BRANCH  27  28
HETATM   28  C   UNL     1      15.451  53.468  50.379  1.00  0.00    -0.075 C 
BRANCH  28  29
HETATM   29  C   UNL     1      14.858  54.634  51.030  1.00  0.00     0.258 C 
BRANCH  29  30
HETATM   30  O   UNL     1      14.161  54.217  52.194  1.00  0.00    -0.389 OA
HETATM   31  H   UNL     1      14.113  53.247  52.160  1.00  0.00     0.210 HD
ENDBRANCH  29  30
ENDBRANCH  28  29
ENDBRANCH  27  28
ENDBRANCH  24  27
ENDBRANCH  21  22
ENDBRANCH   6  21
TORSDOF 8
ENDMDL
MODEL 8
REMARK VINA RESULT:      -7.1     17.626     19.457
REMARK  8 active torsions:
REMARK  status: ('A' for Active; 'I' for Inactive)
REMARK    1  A    between atoms: C_2  and  C_3 
REMARK    2  A    between atoms: C_3  and  N_4 
REMARK    3  A    between atoms: N_9  and  C_11 
REMARK    4  A    between atoms: C_11  and  C_12 
REMARK    5  A    between atoms: C_14  and  C_15 
REMARK    6  A    between atoms: C_15  and  C_16 
REMARK    7  A    between atoms: C_16  and  C_17 
REMARK    8  A    between atoms: C_17  and  O_18 
ROOT
HETATM    1  N   UNL     1      39.991  40.757  64.998  1.00  0.00    -0.066 N 
HETATM    2  H   UNL     1      39.183  40.189  65.283  1.00  0.00     0.280 HD
HETATM    3  C   UNL     1      39.758  42.200  65.391  1.00  0.00     0.246 C 
HETATM    4  C   UNL     1      38.473  42.739  64.737  1.00  0.00     0.009 C 
HETATM    5  C   UNL     1      38.261  44.217  65.119  1.00  0.00     0.246 C 
HETATM    6  N   UNL     1      36.774  44.442  64.957  1.00  0.00    -0.066 N 
HETATM    7  H   UNL     1      36.610  44.831  64.015  1.00  0.00     0.280 HD
HETATM    8  C   UNL     1      36.079  43.105  65.031  1.00  0.00     0.236 C 
HETATM    9  C   UNL     1      37.197  42.110  65.325  1.00  0.00     0.040 C 
HETATM   10  C   UNL     1      38.568  42.556  63.206  1.00  0.00     0.014 C 
HETATM   11  C   UNL     1      38.911  41.119  62.802  1.00  0.00     0.029 C 
HETATM   12  C   UNL     1      40.158  40.593  63.504  1.00  0.00     0.235 C 
ENDROOT
BRANCH   1  13
HETATM   13  C   UNL     1      41.170  40.123  65.742  1.00  0.00     0.273 C 
BRANCH  13  14
HETATM   14  C   UNL     1      41.160  38.618  65.659  1.00  0.00    -0.032 A 
HETATM   15  C   UNL     1      40.163  37.869  66.309  1.00  0.00     0.012 A 
HETATM   16  C   UNL     1      40.203  36.474  66.289  1.00  0.00     0.043 A 
HETATM   17  C   UNL     1      41.228  35.824  65.612  1.00  0.00     0.116 A 
HETATM   18  C   UNL     1      42.209  36.544  64.943  1.00  0.00     0.043 A 
HETATM   19  F   UNL     1      41.274  34.488  65.611  1.00  0.00    -0.206 F 
HETATM   20  C   UNL     1      42.176  37.940  64.962  1.00  0.00     0.012 A 
ENDBRANCH  13  14
ENDBRANCH   1  13
BRANCH   6  21
HETATM   21  C   UNL     1      36.189  45.488  65.888  1.00  0.00     0.280 C 
BRANCH  21  22
HETATM   22  C   UNL     1      36.622  46.869  65.525  1.00  0.00     0.009 A 
HETATM   23  S   UNL     1      36.885  48.025  66.765  1.00  0.00    -0.084 SA
HETATM   24  C   UNL     1      37.313  49.236  65.642  1.00  0.00     0.058 A 
HETATM   25  C   UNL     1      37.263  48.773  64.346  1.00  0.00     0.029 A 
HETATM   26  C   UNL     1      36.867  47.402  64.276  1.00  0.00     0.018 A 
BRANCH  24  27
HETATM   27  C   UNL     1      37.673  50.559  66.027  1.00  0.00    -0.057 C 
BRANCH  27  28
HETATM   28  C   UNL     1      37.952  51.679  66.364  1.00  0.00    -0.075 C 
BRANCH  28  29
HETATM   29  C   UNL     1      38.300  53.027  66.809  1.00  0.00     0.258 C 
BRANCH  29  30
HETATM   30  O   UNL     1      37.984  53.954  65.782  1.00  0.00    -0.389 OA
HETATM   31  H   UNL     1      38.068  54.842  66.169  1.00  0.00     0.210 HD
ENDBRANCH  29  30
ENDBRANCH  28  29
ENDBRANCH  27  28
ENDBRANCH  24  27
ENDBRANCH  21  22
ENDBRANCH   6  21
TORSDOF 8
ENDMDL
MODEL 9
REMARK VINA RESULT:      -7.1      6.103     11.447
REMARK  8 active torsions:
REMARK  status: ('A' for Active; 'I' for Inactive)
REMARK    1  A    between atoms: C_2  and  C_3 
REMARK    2  A    between atoms: C_3  and  N_4 
REMARK    3  A    between atoms: N_9  and  C_11 
REMARK    4  A    between atoms: C_11  and  C_12 
REMARK    5  A    between atoms: C_14  and  C_15 
REMARK    6  A    between atoms: C_15  and  C_16 
REMARK    7  A    between atoms: C_16  and  C_17 
REMARK    8  A    between atoms: C_17  and  O_18 
ROOT
HETATM    1  N   UNL     1      17.189  50.166  48.650  1.00  0.00    -0.066 N 
HETATM    2  H   UNL     1      17.372  49.832  49.605  1.00  0.00     0.280 HD
HETATM    3  C   UNL     1      18.450  50.044  47.823  1.00  0.00     0.246 C 
HETATM    4  C   UNL     1      19.597  50.851  48.458  1.00  0.00     0.009 C 
HETATM    5  C   UNL     1      20.867  50.744  47.593  1.00  0.00     0.246 C 
HETATM    6  N   UNL     1      22.004  51.024  48.549  1.00  0.00    -0.066 N 
HETATM    7  H   UNL     1      22.239  52.027  48.482  1.00  0.00     0.280 HD
HETATM    8  C   UNL     1      21.521  50.758  49.954  1.00  0.00     0.236 C 
HETATM    9  C   UNL     1      20.100  50.234  49.775  1.00  0.00     0.040 C 
HETATM   10  C   UNL     1      19.148  52.319  48.629  1.00  0.00     0.014 C 
HETATM   11  C   UNL     1      17.815  52.448  49.373  1.00  0.00     0.029 C 
HETATM   12  C   UNL     1      16.712  51.598  48.753  1.00  0.00     0.235 C 
ENDROOT
BRANCH   1  13
HETATM   13  C   UNL     1      16.061  49.259  48.150  1.00  0.00     0.273 C 
BRANCH  13  14
HETATM   14  C   UNL     1      16.572  47.939  47.633  1.00  0.00    -0.032 A 
HETATM   15  C   UNL     1      16.508  47.631  46.262  1.00  0.00     0.012 A 
HETATM   16  C   UNL     1      16.914  46.377  45.802  1.00  0.00     0.043 A 
HETATM   17  C   UNL     1      17.395  45.435  46.703  1.00  0.00     0.116 A 
HETATM   18  C   UNL     1      17.489  45.727  48.057  1.00  0.00     0.043 A 
HETATM   19  F   UNL     1      17.766  44.229  46.260  1.00  0.00    -0.206 F 
HETATM   20  C   UNL     1      17.081  46.978  48.524  1.00  0.00     0.012 A 
ENDBRANCH  13  14
ENDBRANCH   1  13
BRANCH   6  21
HETATM   21  C   UNL     1      23.306  50.323  48.206  1.00  0.00     0.280 C 
BRANCH  21  22
HETATM   22  C   UNL     1      23.249  48.860  48.489  1.00  0.00     0.009 A 
HETATM   23  S   UNL     1      24.341  48.175  49.622  1.00  0.00    -0.084 SA
HETATM   24  C   UNL     1      23.699  46.610  49.401  1.00  0.00     0.058 A 
HETATM   25  C   UNL     1      22.669  46.603  48.487  1.00  0.00     0.029 A 
HETATM   26  C   UNL     1      22.405  47.905  47.961  1.00  0.00     0.018 A 
BRANCH  24  27
HETATM   27  C   UNL     1      24.191  45.465  50.092  1.00  0.00    -0.057 C 
BRANCH  27  28
HETATM   28  C   UNL     1      24.591  44.507  50.697  1.00  0.00    -0.075 C 
BRANCH  28  29
HETATM   29  C   UNL     1      25.044  43.339  51.449  1.00  0.00     0.258 C 
BRANCH  29  30
HETATM   30  O   UNL     1      24.825  43.561  52.834  1.00  0.00    -0.389 OA
HETATM   31  H   UNL     1      24.469  44.462  52.922  1.00  0.00     0.210 HD
ENDBRANCH  29  30
ENDBRANCH  28  29
ENDBRANCH  27  28
ENDBRANCH  24  27
ENDBRANCH  21  22
ENDBRANCH   6  21
TORSDOF 8
ENDMDL
MODEL 10
REMARK VINA RESULT:      -7.1      3.832      5.154
REMARK  8 active torsions:
REMARK  status: ('A' for Active; 'I' for Inactive)
REMARK    1  A    between atoms: C_2  and  C_3 
REMARK    2  A    between atoms: C_3  and  N_4 
REMARK    3  A    between atoms: N_9  and  C_11 
REMARK    4  A    between atoms: C_11  and  C_12 
REMARK    5  A    between atoms: C_14  and  C_15 
REMARK    6  A    between atoms: C_15  and  C_16 
REMARK    7  A    between atoms: C_16  and  C_17 
REMARK    8  A    between atoms: C_17  and  O_18 
ROOT
HETATM    1  N   UNL     1      27.228  42.638  51.855  1.00  0.00    -0.066 N 
HETATM    2  H   UNL     1      27.950  43.035  51.240  1.00  0.00     0.280 HD
HETATM    3  C   UNL     1      25.858  43.002  51.325  1.00  0.00     0.246 C 
HETATM    4  C   UNL     1      25.699  44.531  51.236  1.00  0.00     0.009 C 
HETATM    5  C   UNL     1      24.292  44.891  50.724  1.00  0.00     0.246 C 
HETATM    6  N   UNL     1      24.447  46.270  50.124  1.00  0.00    -0.066 N 
HETATM    7  H   UNL     1      24.184  46.964  50.844  1.00  0.00     0.280 HD
HETATM    8  C   UNL     1      25.902  46.484  49.789  1.00  0.00     0.236 C 
HETATM    9  C   UNL     1      26.570  45.156  50.132  1.00  0.00     0.040 C 
HETATM   10  C   UNL     1      25.974  45.150  52.624  1.00  0.00     0.014 C 
HETATM   11  C   UNL     1      27.313  44.701  53.218  1.00  0.00     0.029 C 
HETATM   12  C   UNL     1      27.464  43.185  53.246  1.00  0.00     0.235 C 
ENDROOT
BRANCH   1  13
HETATM   13  C   UNL     1      27.497  41.131  51.818  1.00  0.00     0.273 C 
BRANCH  13  14
HETATM   14  C   UNL     1      27.448  40.573  50.419  1.00  0.00    -0.032 A 
HETATM   15  C   UNL     1      26.505  39.590  50.070  1.00  0.00     0.012 A 
HETATM   16  C   UNL     1      26.515  39.025  48.793  1.00  0.00     0.043 A 
HETATM   17  C   UNL     1      27.456  39.446  47.861  1.00  0.00     0.116 A 
HETATM   18  C   UNL     1      28.380  40.433  48.177  1.00  0.00     0.043 A 
HETATM   19  F   UNL     1      27.474  38.890  46.646  1.00  0.00    -0.206 F 
HETATM   20  C   UNL     1      28.378  41.000  49.453  1.00  0.00     0.012 A 
ENDBRANCH  13  14
ENDBRANCH   1  13
BRANCH   6  21
HETATM   21  C   UNL     1      23.503  46.569  48.974  1.00  0.00     0.280 C 
BRANCH  21  22
HETATM   22  C   UNL     1      23.031  47.984  48.985  1.00  0.00     0.009 A 
HETATM   23  S   UNL     1      21.359  48.319  48.799  1.00  0.00    -0.084 SA
HETATM   24  C   UNL     1      21.612  50.003  48.908  1.00  0.00     0.058 A 
HETATM   25  C   UNL     1      22.942  50.310  49.089  1.00  0.00     0.029 A 
HETATM   26  C   UNL     1      23.765  49.143  49.137  1.00  0.00     0.018 A 
BRANCH  24  27
HETATM   27  C   UNL     1      20.555  50.954  48.819  1.00  0.00    -0.057 C 
BRANCH  27  28
HETATM   28  C   UNL     1      19.645  51.735  48.743  1.00  0.00    -0.075 C 
BRANCH  28  29
HETATM   29  C   UNL     1      18.558  52.709  48.673  1.00  0.00     0.258 C 
BRANCH  29  30
HETATM   30  O   UNL     1      17.919  52.608  47.410  1.00  0.00    -0.389 OA
HETATM   31  H   UNL     1      16.961  52.644  47.576  1.00  0.00     0.210 HD
ENDBRANCH  29  30
ENDBRANCH  28  29
ENDBRANCH  27  28
ENDBRANCH  24  27
ENDBRANCH  21  22
ENDBRANCH   6  21
TORSDOF 8
ENDMDL
