MODEL 1
REMARK VINA RESULT:      -9.0      0.000      0.000
REMARK  7 active torsions:
REMARK  status: ('A' for Active; 'I' for Inactive)
REMARK    1  A    between atoms: C_2  and  N_3 
REMARK    2  A    between atoms: C_2  and  C_19 
REMARK       I    between atoms: N_3  and  C_4 
REMARK       I    between atoms: C_4  and  N_5 
REMARK    3  A    between atoms: N_5  and  C_6 
REMARK    4  A    between atoms: N_8  and  C_9 
REMARK    5  A    between atoms: C_9  and  C_10 
REMARK    6  A    between atoms: C_19  and  C_20 
REMARK    7  A    between atoms: C_23  and  O_24 
ROOT
HETATM    1  N   UNL     1      26.999  43.565  52.441  1.00  0.00    -0.338 N 
HETATM    2  C   UNL     1      27.317  42.726  51.422  1.00  0.00     0.322 C 
HETATM    3  N   UNL     1      26.633  42.885  50.254  1.00  0.00    -0.292 N 
HETATM    4  O   UNL     1      28.160  41.834  51.507  1.00  0.00    -0.247 OA
HETATM    5  H   UNL     1      26.331  44.295  52.193  1.00  0.00     0.164 HD
HETATM    6  H   UNL     1      26.866  42.203  49.549  1.00  0.00     0.172 HD
ENDROOT
BRANCH   1   7
HETATM    7  C   UNL     1      27.644  43.619  53.746  1.00  0.00     0.086 C 
HETATM    8  C   UNL     1      26.626  43.380  54.862  1.00  0.00     0.032 C 
BRANCH   7   9
HETATM    9  C   UNL     1      28.446  44.911  54.008  1.00  0.00     0.063 C 
BRANCH   9  10
HETATM   10  C   UNL     1      29.311  44.850  55.247  1.00  0.00    -0.056 A 
HETATM   11  C   UNL     1      29.143  45.794  56.272  1.00  0.00     0.010 A 
HETATM   12  C   UNL     1      29.936  45.745  57.421  1.00  0.00     0.037 A 
HETATM   13  C   UNL     1      30.899  44.749  57.543  1.00  0.00     0.065 A 
HETATM   14  C   UNL     1      31.083  43.807  56.538  1.00  0.00     0.037 A 
HETATM   15  C   UNL     1      30.291  43.858  55.390  1.00  0.00     0.010 A 
BRANCH  13  16
HETATM   16  O   UNL     1      31.692  44.662  58.650  1.00  0.00    -0.361 OA
HETATM   17  H   UNL     1      31.956  43.735  58.762  1.00  0.00     0.217 HD
ENDBRANCH  13  16
ENDBRANCH   9  10
ENDBRANCH   7   9
ENDBRANCH   1   7
BRANCH   3  18
HETATM   18  C   UNL     1      25.721  43.859  49.915  1.00  0.00     0.153 A 
HETATM   19  N   UNL     1      25.600  45.040  50.535  1.00  0.00    -0.154 NA
HETATM   20  N   UNL     1      24.611  45.669  49.866  1.00  0.00    -0.275 N 
HETATM   21  C   UNL     1      24.104  44.930  48.837  1.00  0.00     0.116 A 
HETATM   22  C   UNL     1      24.803  43.746  48.846  1.00  0.00     0.071 A 
BRANCH  20  23
HETATM   23  C   UNL     1      24.251  47.038  50.214  1.00  0.00     0.189 C 
BRANCH  23  24
HETATM   24  C   UNL     1      25.162  48.045  49.562  1.00  0.00    -0.038 A 
HETATM   25  C   UNL     1      24.637  49.057  48.744  1.00  0.00     0.009 A 
HETATM   26  C   UNL     1      25.479  49.999  48.151  1.00  0.00     0.001 A 
HETATM   27  C   UNL     1      26.854  49.941  48.370  1.00  0.00     0.000 A 
HETATM   28  C   UNL     1      27.389  48.941  49.179  1.00  0.00     0.001 A 
HETATM   29  C   UNL     1      26.548  47.996  49.773  1.00  0.00     0.009 A 
ENDBRANCH  23  24
ENDBRANCH  20  23
ENDBRANCH   3  18
TORSDOF 7
ENDMDL
MODEL 2
REMARK VINA RESULT:      -8.9      1.897      2.815
REMARK  7 active torsions:
REMARK  status: ('A' for Active; 'I' for Inactive)
REMARK    1  A    between atoms: C_2  and  N_3 
REMARK    2  A    between atoms: C_2  and  C_19 
REMARK       I    between atoms: N_3  and  C_4 
REMARK       I    between atoms: C_4  and  N_5 
REMARK    3  A    between atoms: N_5  and  C_6 
REMARK    4  A    between atoms: N_8  and  C_9 
REMARK    5  A    between atoms: C_9  and  C_10 
REMARK    6  A    between atoms: C_19  and  C_20 
REMARK    7  A    between atoms: C_23  and  O_24 
ROOT
HETATM    1  N   UNL     1      27.290  42.189  53.019  1.00  0.00    -0.338 N 
HETATM    2  C   UNL     1      27.889  41.091  52.489  1.00  0.00     0.322 C 
HETATM    3  N   UNL     1      27.360  40.595  51.335  1.00  0.00    -0.292 N 
HETATM    4  O   UNL     1      28.852  40.523  53.000  1.00  0.00    -0.247 OA
HETATM    5  H   UNL     1      26.548  42.584  52.441  1.00  0.00     0.164 HD
HETATM    6  H   UNL     1      27.803  39.748  51.014  1.00  0.00     0.172 HD
ENDROOT
BRANCH   1   7
HETATM    7  C   UNL     1      27.726  42.922  54.199  1.00  0.00     0.086 C 
HETATM    8  C   UNL     1      26.580  43.763  54.766  1.00  0.00     0.032 C 
BRANCH   7   9
HETATM    9  C   UNL     1      28.982  43.791  53.983  1.00  0.00     0.063 C 
BRANCH   9  10
HETATM   10  C   UNL     1      29.750  44.081  55.253  1.00  0.00    -0.056 A 
HETATM   11  C   UNL     1      30.684  43.156  55.740  1.00  0.00     0.010 A 
HETATM   12  C   UNL     1      31.399  43.415  56.911  1.00  0.00     0.037 A 
HETATM   13  C   UNL     1      31.177  44.606  57.596  1.00  0.00     0.065 A 
HETATM   14  C   UNL     1      30.254  45.534  57.132  1.00  0.00     0.037 A 
HETATM   15  C   UNL     1      29.539  45.273  55.962  1.00  0.00     0.010 A 
BRANCH  13  16
HETATM   16  O   UNL     1      31.857  44.901  58.741  1.00  0.00    -0.361 OA
HETATM   17  H   UNL     1      31.757  44.156  59.355  1.00  0.00     0.217 HD
ENDBRANCH  13  16
ENDBRANCH   9  10
ENDBRANCH   7   9
ENDBRANCH   1   7
BRANCH   3  18
HETATM   18  C   UNL     1      26.350  41.114  50.557  1.00  0.00     0.153 A 
HETATM   19  N   UNL     1      25.734  42.280  50.785  1.00  0.00    -0.154 NA
HETATM   20  N   UNL     1      24.844  42.392  49.777  1.00  0.00    -0.275 N 
HETATM   21  C   UNL     1      24.879  41.337  48.910  1.00  0.00     0.116 A 
HETATM   22  C   UNL     1      25.846  40.487  49.393  1.00  0.00     0.071 A 
BRANCH  20  23
HETATM   23  C   UNL     1      24.034  43.597  49.648  1.00  0.00     0.189 C 
BRANCH  23  24
HETATM   24  C   UNL     1      24.726  44.806  50.221  1.00  0.00    -0.038 A 
HETATM   25  C   UNL     1      24.587  45.129  51.579  1.00  0.00     0.009 A 
HETATM   26  C   UNL     1      25.239  46.241  52.115  1.00  0.00     0.001 A 
HETATM   27  C   UNL     1      26.037  47.041  51.299  1.00  0.00     0.000 A 
HETATM   28  C   UNL     1      26.182  46.733  49.948  1.00  0.00     0.001 A 
HETATM   29  C   UNL     1      25.530  45.621  49.410  1.00  0.00     0.009 A 
ENDBRANCH  23  24
ENDBRANCH  20  23
ENDBRANCH   3  18
TORSDOF 7
ENDMDL
MODEL 3
REMARK VINA RESULT:      -8.7      4.958      9.945
REMARK  7 active torsions:
REMARK  status: ('A' for Active; 'I' for Inactive)
REMARK    1  A    between atoms: C_2  and  N_3 
REMARK    2  A    between atoms: C_2  and  C_19 
REMARK       I    between atoms: N_3  and  C_4 
REMARK       I    between atoms: C_4  and  N_5 
REMARK    3  A    between atoms: N_5  and  C_6 
REMARK    4  A    between atoms: N_8  and  C_9 
REMARK    5  A    between atoms: C_9  and  C_10 
REMARK    6  A    between atoms: C_19  and  C_20 
REMARK    7  A    between atoms: C_23  and  O_24 
ROOT
HETATM    1  N   UNL     1      23.583  48.661  49.480  1.00  0.00    -0.338 N 
HETATM    2  C   UNL     1      24.737  49.093  48.910  1.00  0.00     0.322 C 
HETATM    3  N   UNL     1      25.894  48.516  49.343  1.00  0.00    -0.292 N 
HETATM    4  O   UNL     1      24.790  49.976  48.055  1.00  0.00    -0.247 OA
HETATM    5  H   UNL     1      23.697  47.876  50.121  1.00  0.00     0.164 HD
HETATM    6  H   UNL     1      26.725  48.911  48.931  1.00  0.00     0.172 HD
ENDROOT
BRANCH   1   7
HETATM    7  C   UNL     1      22.236  49.085  49.125  1.00  0.00     0.086 C 
HETATM    8  C   UNL     1      21.859  48.576  47.733  1.00  0.00     0.032 C 
BRANCH   7   9
HETATM    9  C   UNL     1      21.996  50.606  49.231  1.00  0.00     0.063 C 
BRANCH   9  10
HETATM   10  C   UNL     1      20.536  50.990  49.309  1.00  0.00    -0.056 A 
HETATM   11  C   UNL     1      19.668  50.295  50.166  1.00  0.00     0.010 A 
HETATM   12  C   UNL     1      18.318  50.643  50.246  1.00  0.00     0.037 A 
HETATM   13  C   UNL     1      17.836  51.690  49.468  1.00  0.00     0.065 A 
HETATM   14  C   UNL     1      18.679  52.389  48.611  1.00  0.00     0.037 A 
HETATM   15  C   UNL     1      20.027  52.039  48.530  1.00  0.00     0.010 A 
BRANCH  13  16
HETATM   16  O   UNL     1      16.526  52.066  49.519  1.00  0.00    -0.361 OA
HETATM   17  H   UNL     1      16.484  52.977  49.852  1.00  0.00     0.217 HD
ENDBRANCH  13  16
ENDBRANCH   9  10
ENDBRANCH   7   9
ENDBRANCH   1   7
BRANCH   3  18
HETATM   18  C   UNL     1      26.058  47.466  50.218  1.00  0.00     0.153 A 
HETATM   19  N   UNL     1      25.802  47.519  51.530  1.00  0.00    -0.154 NA
HETATM   20  N   UNL     1      26.082  46.277  51.977  1.00  0.00    -0.275 N 
HETATM   21  C   UNL     1      26.502  45.433  50.989  1.00  0.00     0.116 A 
HETATM   22  C   UNL     1      26.501  46.178  49.834  1.00  0.00     0.071 A 
BRANCH  20  23
HETATM   23  C   UNL     1      25.840  45.931  53.372  1.00  0.00     0.189 C 
BRANCH  23  24
HETATM   24  C   UNL     1      27.117  45.617  54.106  1.00  0.00    -0.038 A 
HETATM   25  C   UNL     1      27.672  44.329  54.052  1.00  0.00     0.009 A 
HETATM   26  C   UNL     1      28.863  44.041  54.719  1.00  0.00     0.001 A 
HETATM   27  C   UNL     1      29.513  45.035  55.447  1.00  0.00     0.000 A 
HETATM   28  C   UNL     1      28.972  46.318  55.511  1.00  0.00     0.001 A 
HETATM   29  C   UNL     1      27.780  46.608  54.844  1.00  0.00     0.009 A 
ENDBRANCH  23  24
ENDBRANCH  20  23
ENDBRANCH   3  18
TORSDOF 7
ENDMDL
MODEL 4
REMARK VINA RESULT:      -8.7      2.581      3.806
REMARK  7 active torsions:
REMARK  status: ('A' for Active; 'I' for Inactive)
REMARK    1  A    between atoms: C_2  and  N_3 
REMARK    2  A    between atoms: C_2  and  C_19 
REMARK       I    between atoms: N_3  and  C_4 
REMARK       I    between atoms: C_4  and  N_5 
REMARK    3  A    between atoms: N_5  and  C_6 
REMARK    4  A    between atoms: N_8  and  C_9 
REMARK    5  A    between atoms: C_9  and  C_10 
REMARK    6  A    between atoms: C_19  and  C_20 
REMARK    7  A    between atoms: C_23  and  O_24 
ROOT
HETATM    1  N   UNL     1      28.037  42.652  52.448  1.00  0.00    -0.338 N 
HETATM    2  C   UNL     1      27.812  41.335  52.691  1.00  0.00     0.322 C 
HETATM    3  N   UNL     1      26.880  40.714  51.914  1.00  0.00    -0.292 N 
HETATM    4  O   UNL     1      28.381  40.694  53.573  1.00  0.00    -0.247 OA
HETATM    5  H   UNL     1      27.539  43.023  51.640  1.00  0.00     0.164 HD
HETATM    6  H   UNL     1      26.709  39.754  52.171  1.00  0.00     0.172 HD
ENDROOT
BRANCH   1   7
HETATM    7  C   UNL     1      29.029  43.491  53.106  1.00  0.00     0.086 C 
HETATM    8  C   UNL     1      30.399  42.810  53.104  1.00  0.00     0.032 C 
BRANCH   7   9
HETATM    9  C   UNL     1      28.645  43.936  54.533  1.00  0.00     0.063 C 
BRANCH   9  10
HETATM   10  C   UNL     1      27.817  45.200  54.576  1.00  0.00    -0.056 A 
HETATM   11  C   UNL     1      26.573  45.251  53.930  1.00  0.00     0.010 A 
HETATM   12  C   UNL     1      25.800  46.414  53.966  1.00  0.00     0.037 A 
HETATM   13  C   UNL     1      26.275  47.528  54.651  1.00  0.00     0.065 A 
HETATM   14  C   UNL     1      27.506  47.498  55.294  1.00  0.00     0.037 A 
HETATM   15  C   UNL     1      28.278  46.336  55.256  1.00  0.00     0.010 A 
BRANCH  13  16
HETATM   16  O   UNL     1      25.550  48.682  54.715  1.00  0.00    -0.361 OA
HETATM   17  H   UNL     1      25.748  49.118  55.559  1.00  0.00     0.217 HD
ENDBRANCH  13  16
ENDBRANCH   9  10
ENDBRANCH   7   9
ENDBRANCH   1   7
BRANCH   3  18
HETATM   18  C   UNL     1      26.193  41.211  50.829  1.00  0.00     0.153 A 
HETATM   19  N   UNL     1      25.466  42.334  50.836  1.00  0.00    -0.154 NA
HETATM   20  N   UNL     1      24.999  42.439  49.574  1.00  0.00    -0.275 N 
HETATM   21  C   UNL     1      25.412  41.422  48.763  1.00  0.00     0.116 A 
HETATM   22  C   UNL     1      26.187  40.604  49.551  1.00  0.00     0.071 A 
BRANCH  20  23
HETATM   23  C   UNL     1      24.219  43.605  49.179  1.00  0.00     0.189 C 
BRANCH  23  24
HETATM   24  C   UNL     1      24.880  44.894  49.594  1.00  0.00    -0.038 A 
HETATM   25  C   UNL     1      26.268  45.055  49.469  1.00  0.00     0.009 A 
HETATM   26  C   UNL     1      26.880  46.254  49.840  1.00  0.00     0.001 A 
HETATM   27  C   UNL     1      26.111  47.303  50.337  1.00  0.00     0.000 A 
HETATM   28  C   UNL     1      24.732  47.157  50.468  1.00  0.00     0.001 A 
HETATM   29  C   UNL     1      24.118  45.958  50.099  1.00  0.00     0.009 A 
ENDBRANCH  23  24
ENDBRANCH  20  23
ENDBRANCH   3  18
TORSDOF 7
ENDMDL
MODEL 5
REMARK VINA RESULT:      -8.5      4.358      5.935
REMARK  7 active torsions:
REMARK  status: ('A' for Active; 'I' for Inactive)
REMARK    1  A    between atoms: C_2  and  N_3 
REMARK    2  A    between atoms: C_2  and  C_19 
REMARK       I    between atoms: N_3  and  C_4 
REMARK       I    between atoms: C_4  and  N_5 
REMARK    3  A    between atoms: N_5  and  C_6 
REMARK    4  A    between atoms: N_8  and  C_9 
REMARK    5  A    between atoms: C_9  and  C_10 
REMARK    6  A    between atoms: C_19  and  C_20 
REMARK    7  A    between atoms: C_23  and  O_24 
ROOT
HETATM    1  N   UNL     1      25.423  47.653  50.077  1.00  0.00    -0.338 N 
HETATM    2  C   UNL     1      25.943  48.592  49.244  1.00  0.00     0.322 C 
HETATM    3  N   UNL     1      25.063  49.451  48.655  1.00  0.00    -0.292 N 
HETATM    4  O   UNL     1      27.141  48.689  48.985  1.00  0.00    -0.247 OA
HETATM    5  H   UNL     1      24.421  47.746  50.244  1.00  0.00     0.164 HD
HETATM    6  H   UNL     1      25.492  50.090  48.004  1.00  0.00     0.172 HD
ENDROOT
BRANCH   1   7
HETATM    7  C   UNL     1      26.177  46.685  50.860  1.00  0.00     0.086 C 
HETATM    8  C   UNL     1      26.434  45.415  50.047  1.00  0.00     0.032 C 
BRANCH   7   9
HETATM    9  C   UNL     1      25.547  46.338  52.226  1.00  0.00     0.063 C 
BRANCH   9  10
HETATM   10  C   UNL     1      26.542  46.293  53.363  1.00  0.00    -0.056 A 
HETATM   11  C   UNL     1      26.799  47.444  54.122  1.00  0.00     0.010 A 
HETATM   12  C   UNL     1      27.715  47.412  55.176  1.00  0.00     0.037 A 
HETATM   13  C   UNL     1      28.375  46.223  55.470  1.00  0.00     0.065 A 
HETATM   14  C   UNL     1      28.137  45.073  54.728  1.00  0.00     0.037 A 
HETATM   15  C   UNL     1      27.222  45.107  53.674  1.00  0.00     0.010 A 
BRANCH  13  16
HETATM   16  O   UNL     1      29.274  46.146  56.493  1.00  0.00    -0.361 OA
HETATM   17  H   UNL     1      30.115  45.823  56.134  1.00  0.00     0.217 HD
ENDBRANCH  13  16
ENDBRANCH   9  10
ENDBRANCH   7   9
ENDBRANCH   1   7
BRANCH   3  18
HETATM   18  C   UNL     1      23.708  49.574  48.865  1.00  0.00     0.153 A 
HETATM   19  N   UNL     1      23.149  50.352  49.800  1.00  0.00    -0.154 NA
HETATM   20  N   UNL     1      21.821  50.178  49.629  1.00  0.00    -0.275 N 
HETATM   21  C   UNL     1      21.518  49.320  48.611  1.00  0.00     0.116 A 
HETATM   22  C   UNL     1      22.725  48.908  48.097  1.00  0.00     0.071 A 
BRANCH  20  23
HETATM   23  C   UNL     1      20.875  50.943  50.432  1.00  0.00     0.189 C 
BRANCH  23  24
HETATM   24  C   UNL     1      19.627  51.286  49.661  1.00  0.00    -0.038 A 
HETATM   25  C   UNL     1      18.389  50.738  50.029  1.00  0.00     0.009 A 
HETATM   26  C   UNL     1      17.230  51.066  49.324  1.00  0.00     0.001 A 
HETATM   27  C   UNL     1      17.296  51.945  48.245  1.00  0.00     0.000 A 
HETATM   28  C   UNL     1      18.519  52.496  47.868  1.00  0.00     0.001 A 
HETATM   29  C   UNL     1      19.680  52.168  48.572  1.00  0.00     0.009 A 
ENDBRANCH  23  24
ENDBRANCH  20  23
ENDBRANCH   3  18
TORSDOF 7
ENDMDL
MODEL 6
REMARK VINA RESULT:      -8.5      2.310      3.206
REMARK  7 active torsions:
REMARK  status: ('A' for Active; 'I' for Inactive)
REMARK    1  A    between atoms: C_2  and  N_3 
REMARK    2  A    between atoms: C_2  and  C_19 
REMARK       I    between atoms: N_3  and  C_4 
REMARK       I    between atoms: C_4  and  N_5 
REMARK    3  A    between atoms: N_5  and  C_6 
REMARK    4  A    between atoms: N_8  and  C_9 
REMARK    5  A    between atoms: C_9  and  C_10 
REMARK    6  A    between atoms: C_19  and  C_20 
REMARK    7  A    between atoms: C_23  and  O_24 
ROOT
HETATM    1  N   UNL     1      26.084  45.341  52.059  1.00  0.00    -0.338 N 
HETATM    2  C   UNL     1      26.725  44.975  50.919  1.00  0.00     0.322 C 
HETATM    3  N   UNL     1      26.273  45.519  49.754  1.00  0.00    -0.292 N 
HETATM    4  O   UNL     1      27.661  44.177  50.885  1.00  0.00    -0.247 OA
HETATM    5  H   UNL     1      25.376  46.063  51.931  1.00  0.00     0.164 HD
HETATM    6  H   UNL     1      26.743  45.173  48.932  1.00  0.00     0.172 HD
ENDROOT
BRANCH   1   7
HETATM    7  C   UNL     1      26.439  44.939  53.413  1.00  0.00     0.086 C 
HETATM    8  C   UNL     1      25.187  44.591  54.219  1.00  0.00     0.032 C 
BRANCH   7   9
HETATM    9  C   UNL     1      27.309  45.962  54.175  1.00  0.00     0.063 C 
BRANCH   9  10
HETATM   10  C   UNL     1      28.520  45.353  54.845  1.00  0.00    -0.056 A 
HETATM   11  C   UNL     1      29.155  46.025  55.900  1.00  0.00     0.010 A 
HETATM   12  C   UNL     1      30.274  45.471  56.526  1.00  0.00     0.037 A 
HETATM   13  C   UNL     1      30.757  44.240  56.094  1.00  0.00     0.065 A 
HETATM   14  C   UNL     1      30.144  43.560  55.048  1.00  0.00     0.037 A 
HETATM   15  C   UNL     1      29.027  44.116  54.422  1.00  0.00     0.010 A 
BRANCH  13  16
HETATM   16  O   UNL     1      31.843  43.660  56.680  1.00  0.00    -0.361 OA
HETATM   17  H   UNL     1      31.577  43.328  57.552  1.00  0.00     0.217 HD
ENDBRANCH  13  16
ENDBRANCH   9  10
ENDBRANCH   7   9
ENDBRANCH   1   7
BRANCH   3  18
HETATM   18  C   UNL     1      25.308  46.484  49.571  1.00  0.00     0.153 A 
HETATM   19  N   UNL     1      25.553  47.794  49.446  1.00  0.00    -0.154 NA
HETATM   20  N   UNL     1      24.335  48.347  49.268  1.00  0.00    -0.275 N 
HETATM   21  C   UNL     1      23.324  47.430  49.268  1.00  0.00     0.116 A 
HETATM   22  C   UNL     1      23.924  46.209  49.467  1.00  0.00     0.071 A 
BRANCH  20  23
HETATM   23  C   UNL     1      24.213  49.777  49.011  1.00  0.00     0.189 C 
BRANCH  23  24
HETATM   24  C   UNL     1      22.775  50.204  48.870  1.00  0.00    -0.038 A 
HETATM   25  C   UNL     1      22.090  50.768  49.957  1.00  0.00     0.009 A 
HETATM   26  C   UNL     1      20.762  51.178  49.823  1.00  0.00     0.001 A 
HETATM   27  C   UNL     1      20.107  51.030  48.602  1.00  0.00     0.000 A 
HETATM   28  C   UNL     1      20.775  50.471  47.515  1.00  0.00     0.001 A 
HETATM   29  C   UNL     1      22.103  50.059  47.647  1.00  0.00     0.009 A 
ENDBRANCH  23  24
ENDBRANCH  20  23
ENDBRANCH   3  18
TORSDOF 7
ENDMDL
MODEL 7
REMARK VINA RESULT:      -8.0     12.171     13.837
REMARK  7 active torsions:
REMARK  status: ('A' for Active; 'I' for Inactive)
REMARK    1  A    between atoms: C_2  and  N_3 
REMARK    2  A    between atoms: C_2  and  C_19 
REMARK       I    between atoms: N_3  and  C_4 
REMARK       I    between atoms: C_4  and  N_5 
REMARK    3  A    between atoms: N_5  and  C_6 
REMARK    4  A    between atoms: N_8  and  C_9 
REMARK    5  A    between atoms: C_9  and  C_10 
REMARK    6  A    between atoms: C_19  and  C_20 
REMARK    7  A    between atoms: C_23  and  O_24 
ROOT
HETATM    1  N   UNL     1      27.205  49.474  39.646  1.00  0.00    -0.338 N 
HETATM    2  C   UNL     1      26.954  50.110  38.472  1.00  0.00     0.322 C 
HETATM    3  N   UNL     1      27.425  51.382  38.346  1.00  0.00    -0.292 N 
HETATM    4  O   UNL     1      26.317  49.611  37.546  1.00  0.00    -0.247 OA
HETATM    5  H   UNL     1      27.804  49.993  40.287  1.00  0.00     0.164 HD
HETATM    6  H   UNL     1      27.163  51.830  37.481  1.00  0.00     0.172 HD
ENDROOT
BRANCH   1   7
HETATM    7  C   UNL     1      26.858  48.097  39.971  1.00  0.00     0.086 C 
HETATM    8  C   UNL     1      25.349  47.955  40.175  1.00  0.00     0.032 C 
BRANCH   7   9
HETATM    9  C   UNL     1      27.627  47.511  41.173  1.00  0.00     0.063 C 
BRANCH   9  10
HETATM   10  C   UNL     1      29.128  47.667  41.072  1.00  0.00    -0.056 A 
HETATM   11  C   UNL     1      29.840  47.005  40.061  1.00  0.00     0.010 A 
HETATM   12  C   UNL     1      31.226  47.144  39.958  1.00  0.00     0.037 A 
HETATM   13  C   UNL     1      31.900  47.948  40.871  1.00  0.00     0.065 A 
HETATM   14  C   UNL     1      31.213  48.609  41.882  1.00  0.00     0.037 A 
HETATM   15  C   UNL     1      29.828  48.468  41.985  1.00  0.00     0.010 A 
BRANCH  13  16
HETATM   16  O   UNL     1      33.252  48.116  40.805  1.00  0.00    -0.361 OA
HETATM   17  H   UNL     1      33.524  48.025  39.878  1.00  0.00     0.217 HD
ENDBRANCH  13  16
ENDBRANCH   9  10
ENDBRANCH   7   9
ENDBRANCH   1   7
BRANCH   3  18
HETATM   18  C   UNL     1      28.223  52.096  39.212  1.00  0.00     0.153 A 
HETATM   19  N   UNL     1      28.515  51.722  40.463  1.00  0.00    -0.154 NA
HETATM   20  N   UNL     1      29.329  52.696  40.922  1.00  0.00    -0.275 N 
HETATM   21  C   UNL     1      29.570  53.673  40.000  1.00  0.00     0.116 A 
HETATM   22  C   UNL     1      28.861  53.314  38.878  1.00  0.00     0.071 A 
BRANCH  20  23
HETATM   23  C   UNL     1      29.924  52.585  42.248  1.00  0.00     0.189 C 
BRANCH  23  24
HETATM   24  C   UNL     1      31.358  52.126  42.187  1.00  0.00    -0.038 A 
HETATM   25  C   UNL     1      32.002  51.963  40.951  1.00  0.00     0.009 A 
HETATM   26  C   UNL     1      33.334  51.551  40.894  1.00  0.00     0.001 A 
HETATM   27  C   UNL     1      34.037  51.299  42.070  1.00  0.00     0.000 A 
HETATM   28  C   UNL     1      33.410  51.456  43.304  1.00  0.00     0.001 A 
HETATM   29  C   UNL     1      32.076  51.866  43.364  1.00  0.00     0.009 A 
ENDBRANCH  23  24
ENDBRANCH  20  23
ENDBRANCH   3  18
TORSDOF 7
ENDMDL
MODEL 8
REMARK VINA RESULT:      -8.0      4.547      9.788
REMARK  7 active torsions:
REMARK  status: ('A' for Active; 'I' for Inactive)
REMARK    1  A    between atoms: C_2  and  N_3 
REMARK    2  A    between atoms: C_2  and  C_19 
REMARK       I    between atoms: N_3  and  C_4 
REMARK       I    between atoms: C_4  and  N_5 
REMARK    3  A    between atoms: N_5  and  C_6 
REMARK    4  A    between atoms: N_8  and  C_9 
REMARK    5  A    between atoms: C_9  and  C_10 
REMARK    6  A    between atoms: C_19  and  C_20 
REMARK    7  A    between atoms: C_23  and  O_24 
ROOT
HETATM    1  N   UNL     1      23.874  48.027  49.951  1.00  0.00    -0.338 N 
HETATM    2  C   UNL     1      25.149  48.338  49.598  1.00  0.00     0.322 C 
HETATM    3  N   UNL     1      26.148  47.786  50.343  1.00  0.00    -0.292 N 
HETATM    4  O   UNL     1      25.438  49.095  48.673  1.00  0.00    -0.247 OA
HETATM    5  H   UNL     1      23.800  47.333  50.693  1.00  0.00     0.164 HD
HETATM    6  H   UNL     1      27.071  48.092  50.078  1.00  0.00     0.172 HD
ENDROOT
BRANCH   1   7
HETATM    7  C   UNL     1      22.663  48.446  49.259  1.00  0.00     0.086 C 
HETATM    8  C   UNL     1      22.397  47.550  48.048  1.00  0.00     0.032 C 
BRANCH   7   9
HETATM    9  C   UNL     1      22.644  49.934  48.849  1.00  0.00     0.063 C 
BRANCH   9  10
HETATM   10  C   UNL     1      21.261  50.545  48.835  1.00  0.00    -0.056 A 
HETATM   11  C   UNL     1      20.675  50.994  50.028  1.00  0.00     0.010 A 
HETATM   12  C   UNL     1      19.399  51.561  50.026  1.00  0.00     0.037 A 
HETATM   13  C   UNL     1      18.708  51.679  48.824  1.00  0.00     0.065 A 
HETATM   14  C   UNL     1      19.269  51.238  47.632  1.00  0.00     0.037 A 
HETATM   15  C   UNL     1      20.544  50.669  47.637  1.00  0.00     0.010 A 
BRANCH  13  16
HETATM   16  O   UNL     1      17.461  52.231  48.775  1.00  0.00    -0.361 OA
HETATM   17  H   UNL     1      16.902  51.777  49.426  1.00  0.00     0.217 HD
ENDBRANCH  13  16
ENDBRANCH   9  10
ENDBRANCH   7   9
ENDBRANCH   1   7
BRANCH   3  18
HETATM   18  C   UNL     1      26.055  46.858  51.356  1.00  0.00     0.153 A 
HETATM   19  N   UNL     1      26.389  45.567  51.241  1.00  0.00    -0.154 NA
HETATM   20  N   UNL     1      26.159  45.051  52.466  1.00  0.00    -0.275 N 
HETATM   21  C   UNL     1      25.696  45.974  53.359  1.00  0.00     0.116 A 
HETATM   22  C   UNL     1      25.614  47.158  52.666  1.00  0.00     0.071 A 
BRANCH  20  23
HETATM   23  C   UNL     1      26.491  43.659  52.747  1.00  0.00     0.189 C 
BRANCH  23  24
HETATM   24  C   UNL     1      27.888  43.511  53.291  1.00  0.00    -0.038 A 
HETATM   25  C   UNL     1      28.859  42.793  52.576  1.00  0.00     0.009 A 
HETATM   26  C   UNL     1      30.157  42.667  53.072  1.00  0.00     0.001 A 
HETATM   27  C   UNL     1      30.500  43.258  54.286  1.00  0.00     0.000 A 
HETATM   28  C   UNL     1      29.546  43.973  55.007  1.00  0.00     0.001 A 
HETATM   29  C   UNL     1      28.246  44.099  54.513  1.00  0.00     0.009 A 
ENDBRANCH  23  24
ENDBRANCH  20  23
ENDBRANCH   3  18
TORSDOF 7
ENDMDL
MODEL 9
REMARK VINA RESULT:      -8.0      3.684      4.659
REMARK  7 active torsions:
REMARK  status: ('A' for Active; 'I' for Inactive)
REMARK    1  A    between atoms: C_2  and  N_3 
REMARK    2  A    between atoms: C_2  and  C_19 
REMARK       I    between atoms: N_3  and  C_4 
REMARK       I    between atoms: C_4  and  N_5 
REMARK    3  A    between atoms: N_5  and  C_6 
REMARK    4  A    between atoms: N_8  and  C_9 
REMARK    5  A    between atoms: C_9  and  C_10 
REMARK    6  A    between atoms: C_19  and  C_20 
REMARK    7  A    between atoms: C_23  and  O_24 
ROOT
HETATM    1  N   UNL     1      27.297  42.379  52.936  1.00  0.00    -0.338 N 
HETATM    2  C   UNL     1      27.836  41.165  52.651  1.00  0.00     0.322 C 
HETATM    3  N   UNL     1      27.461  40.583  51.477  1.00  0.00    -0.292 N 
HETATM    4  O   UNL     1      28.612  40.569  53.396  1.00  0.00    -0.247 OA
HETATM    5  H   UNL     1      26.726  42.773  52.188  1.00  0.00     0.164 HD
HETATM    6  H   UNL     1      27.843  39.661  51.339  1.00  0.00     0.172 HD
ENDROOT
BRANCH   1   7
HETATM    7  C   UNL     1      27.606  43.208  54.093  1.00  0.00     0.086 C 
HETATM    8  C   UNL     1      26.406  44.079  54.469  1.00  0.00     0.032 C 
BRANCH   7   9
HETATM    9  C   UNL     1      28.876  44.070  53.940  1.00  0.00     0.063 C 
BRANCH   9  10
HETATM   10  C   UNL     1      29.634  44.275  55.232  1.00  0.00    -0.056 A 
HETATM   11  C   UNL     1      30.568  43.320  55.662  1.00  0.00     0.010 A 
HETATM   12  C   UNL     1      31.274  43.500  56.853  1.00  0.00     0.037 A 
HETATM   13  C   UNL     1      31.045  44.641  57.615  1.00  0.00     0.065 A 
HETATM   14  C   UNL     1      30.122  45.597  57.209  1.00  0.00     0.037 A 
HETATM   15  C   UNL     1      29.415  45.414  56.019  1.00  0.00     0.010 A 
BRANCH  13  16
HETATM   16  O   UNL     1      31.716  44.859  58.783  1.00  0.00    -0.361 OA
HETATM   17  H   UNL     1      32.661  44.939  58.579  1.00  0.00     0.217 HD
ENDBRANCH  13  16
ENDBRANCH   9  10
ENDBRANCH   7   9
ENDBRANCH   1   7
BRANCH   3  18
HETATM   18  C   UNL     1      26.681  41.102  50.469  1.00  0.00     0.153 A 
HETATM   19  N   UNL     1      25.444  41.587  50.633  1.00  0.00    -0.154 NA
HETATM   20  N   UNL     1      25.078  41.998  49.401  1.00  0.00    -0.275 N 
HETATM   21  C   UNL     1      26.045  41.797  48.459  1.00  0.00     0.116 A 
HETATM   22  C   UNL     1      27.098  41.212  49.121  1.00  0.00     0.071 A 
BRANCH  20  23
HETATM   23  C   UNL     1      23.798  42.668  49.205  1.00  0.00     0.189 C 
BRANCH  23  24
HETATM   24  C   UNL     1      23.100  42.196  47.956  1.00  0.00    -0.038 A 
HETATM   25  C   UNL     1      22.937  43.058  46.862  1.00  0.00     0.009 A 
HETATM   26  C   UNL     1      22.303  42.618  45.699  1.00  0.00     0.001 A 
HETATM   27  C   UNL     1      21.826  41.311  45.618  1.00  0.00     0.000 A 
HETATM   28  C   UNL     1      21.980  40.445  46.697  1.00  0.00     0.001 A 
HETATM   29  C   UNL     1      22.613  40.884  47.862  1.00  0.00     0.009 A 
ENDBRANCH  23  24
ENDBRANCH  20  23
ENDBRANCH   3  18
TORSDOF 7
ENDMDL
MODEL 10
REMARK VINA RESULT:      -7.9      3.843      6.915
REMARK  7 active torsions:
REMARK  status: ('A' for Active; 'I' for Inactive)
REMARK    1  A    between atoms: C_2  and  N_3 
REMARK    2  A    between atoms: C_2  and  C_19 
REMARK       I    between atoms: N_3  and  C_4 
REMARK       I    between atoms: C_4  and  N_5 
REMARK    3  A    between atoms: N_5  and  C_6 
REMARK    4  A    between atoms: N_8  and  C_9 
REMARK    5  A    between atoms: C_9  and  C_10 
REMARK    6  A    between atoms: C_19  and  C_20 
REMARK    7  A    between atoms: C_23  and  O_24 
ROOT
HETATM    1  N   UNL     1      27.588  40.736  50.178  1.00  0.00    -0.338 N 
HETATM    2  C   UNL     1      28.474  39.871  50.737  1.00  0.00     0.322 C 
HETATM    3  N   UNL     1      29.085  40.271  51.888  1.00  0.00    -0.292 N 
HETATM    4  O   UNL     1      28.761  38.777  50.254  1.00  0.00    -0.247 OA
HETATM    5  H   UNL     1      27.406  41.570  50.734  1.00  0.00     0.164 HD
HETATM    6  H   UNL     1      29.775  39.620  52.231  1.00  0.00     0.172 HD
ENDROOT
BRANCH   1   7
HETATM    7  C   UNL     1      26.775  40.490  48.995  1.00  0.00     0.086 C 
HETATM    8  C   UNL     1      27.354  41.218  47.781  1.00  0.00     0.032 C 
BRANCH   7   9
HETATM    9  C   UNL     1      25.279  40.826  49.168  1.00  0.00     0.063 C 
BRANCH   9  10
HETATM   10  C   UNL     1      25.020  42.245  49.620  1.00  0.00    -0.056 A 
HETATM   11  C   UNL     1      24.752  43.249  48.678  1.00  0.00     0.010 A 
HETATM   12  C   UNL     1      24.511  44.562  49.086  1.00  0.00     0.037 A 
HETATM   13  C   UNL     1      24.538  44.870  50.443  1.00  0.00     0.065 A 
HETATM   14  C   UNL     1      24.805  43.891  51.391  1.00  0.00     0.037 A 
HETATM   15  C   UNL     1      25.047  42.579  50.982  1.00  0.00     0.010 A 
BRANCH  13  16
HETATM   16  O   UNL     1      24.303  46.139  50.886  1.00  0.00    -0.361 OA
HETATM   17  H   UNL     1      23.448  46.147  51.345  1.00  0.00     0.217 HD
ENDBRANCH  13  16
ENDBRANCH   9  10
ENDBRANCH   7   9
ENDBRANCH   1   7
BRANCH   3  18
HETATM   18  C   UNL     1      28.855  41.403  52.638  1.00  0.00     0.153 A 
HETATM   19  N   UNL     1      27.673  41.740  53.167  1.00  0.00    -0.154 NA
HETATM   20  N   UNL     1      27.916  42.893  53.824  1.00  0.00    -0.275 N 
HETATM   21  C   UNL     1      29.218  43.296  53.736  1.00  0.00     0.116 A 
HETATM   22  C   UNL     1      29.853  42.350  52.967  1.00  0.00     0.071 A 
BRANCH  20  23
HETATM   23  C   UNL     1      26.860  43.526  54.605  1.00  0.00     0.189 C 
BRANCH  23  24
HETATM   24  C   UNL     1      27.039  45.019  54.690  1.00  0.00    -0.038 A 
HETATM   25  C   UNL     1      28.030  45.572  55.515  1.00  0.00     0.009 A 
HETATM   26  C   UNL     1      28.207  46.955  55.584  1.00  0.00     0.001 A 
HETATM   27  C   UNL     1      27.395  47.799  54.830  1.00  0.00     0.000 A 
HETATM   28  C   UNL     1      26.406  47.264  54.008  1.00  0.00     0.001 A 
HETATM   29  C   UNL     1      26.227  45.880  53.938  1.00  0.00     0.009 A 
ENDBRANCH  23  24
ENDBRANCH  20  23
ENDBRANCH   3  18
TORSDOF 7
ENDMDL
