MODEL 1
REMARK VINA RESULT:      -9.8      0.000      0.000
REMARK  8 active torsions:
REMARK  status: ('A' for Active; 'I' for Inactive)
REMARK    1  A    between atoms: C_5  and  C_6 
REMARK    2  A    between atoms: C_6  and  N_7 
REMARK       I    between atoms: N_7  and  C_8 
REMARK    3  A    between atoms: C_8  and  C_9 
REMARK    4  A    between atoms: C_9  and  S_10 
REMARK    5  A    between atoms: S_10  and  C_11 
REMARK    6  A    between atoms: C_13  and  N_14 
REMARK    7  A    between atoms: C_15  and  N_16 
REMARK       I    between atoms: N_16  and  C_17 
REMARK    8  A    between atoms: C_17  and  C_18 
ROOT
HETATM    1  C   UNL     1      23.988  47.028  49.531  1.00  0.00     0.171 C 
HETATM    2  N   UNL     1      24.266  48.284  49.574  1.00  0.00    -0.210 NA
HETATM    3  C   UNL     1      23.241  49.168  49.357  1.00  0.00     0.136 C 
HETATM    4  C   UNL     1      21.992  48.775  49.008  1.00  0.00     0.144 C 
HETATM    5  C   UNL     1      21.830  47.327  48.677  1.00  0.00     0.277 C 
HETATM    6  O   UNL     1      21.022  46.894  47.864  1.00  0.00    -0.266 OA
HETATM    7  N   UNL     1      22.775  46.514  49.223  1.00  0.00    -0.300 N 
HETATM    8  H   UNL     1      22.703  45.529  49.021  1.00  0.00     0.171 HD
ENDROOT
BRANCH   1   9
HETATM    9  S   UNL     1      25.171  45.814  49.895  1.00  0.00    -0.083 SA
BRANCH   9  10
HETATM   10  C   UNL     1      24.783  45.508  51.640  1.00  0.00     0.185 C 
BRANCH  10  11
HETATM   11  C   UNL     1      25.556  46.366  52.628  1.00  0.00     0.227 C 
HETATM   12  N   UNL     1      26.549  45.735  53.342  1.00  0.00    -0.356 N 
HETATM   13  H   UNL     1      26.455  44.732  53.457  1.00  0.00     0.162 HD
HETATM   14  O   UNL     1      25.355  47.578  52.705  1.00  0.00    -0.273 OA
BRANCH  12  15
HETATM   15  C   UNL     1      27.239  46.453  54.388  1.00  0.00     0.161 C 
BRANCH  15  16
HETATM   16  C   UNL     1      28.404  45.676  54.939  1.00  0.00    -0.041 A 
HETATM   17  C   UNL     1      29.103  46.136  56.063  1.00  0.00     0.009 A 
HETATM   18  C   UNL     1      30.148  45.386  56.609  1.00  0.00     0.007 A 
HETATM   19  C   UNL     1      30.516  44.163  56.039  1.00  0.00    -0.062 A 
HETATM   20  C   UNL     1      31.603  43.327  56.647  1.00  0.00     0.048 C 
HETATM   21  C   UNL     1      29.817  43.698  54.919  1.00  0.00     0.007 A 
HETATM   22  C   UNL     1      28.773  44.449  54.372  1.00  0.00     0.009 A 
ENDBRANCH  15  16
ENDBRANCH  12  15
ENDBRANCH  10  11
ENDBRANCH   9  10
ENDBRANCH   1   9
BRANCH   3  23
HETATM   23  N   UNL     1      23.524  50.514  49.561  1.00  0.00    -0.285 NA
HETATM   24  H   UNL     1      22.628  50.986  49.688  1.00  0.00     0.125 HD
HETATM   25  H   UNL     1      24.064  50.633  50.417  1.00  0.00     0.125 HD
ENDBRANCH   3  23
BRANCH   4  26
HETATM   26  N   UNL     1      20.958  49.688  48.968  1.00  0.00    -0.314 N 
HETATM   27  C   UNL     1      19.762  49.629  49.655  1.00  0.00     0.280 C 
HETATM   28  O   UNL     1      19.424  48.725  50.408  1.00  0.00    -0.265 OA
HETATM   29  H   UNL     1      21.199  50.605  48.604  1.00  0.00     0.169 HD
BRANCH  27  30
HETATM   30  C   UNL     1      18.950  50.819  49.472  1.00  0.00     0.144 A 
HETATM   31  O   UNL     1      17.662  50.835  49.942  1.00  0.00    -0.298 OA
HETATM   32  C   UNL     1      17.124  52.036  49.595  1.00  0.00     0.122 A 
HETATM   33 BR   UNL     1      15.372  52.546  49.982  1.00  0.00    -0.023 Br
HETATM   34  C   UNL     1      18.046  52.800  48.920  1.00  0.00     0.048 A 
HETATM   35  C   UNL     1      19.225  52.018  48.840  1.00  0.00     0.046 A 
ENDBRANCH  27  30
ENDBRANCH   4  26
TORSDOF 8
ENDMDL
MODEL 2
REMARK VINA RESULT:      -9.7      3.461      5.294
REMARK  8 active torsions:
REMARK  status: ('A' for Active; 'I' for Inactive)
REMARK    1  A    between atoms: C_5  and  C_6 
REMARK    2  A    between atoms: C_6  and  N_7 
REMARK       I    between atoms: N_7  and  C_8 
REMARK    3  A    between atoms: C_8  and  C_9 
REMARK    4  A    between atoms: C_9  and  S_10 
REMARK    5  A    between atoms: S_10  and  C_11 
REMARK    6  A    between atoms: C_13  and  N_14 
REMARK    7  A    between atoms: C_15  and  N_16 
REMARK       I    between atoms: N_16  and  C_17 
REMARK    8  A    between atoms: C_17  and  C_18 
ROOT
HETATM    1  C   UNL     1      25.523  42.335  50.038  1.00  0.00     0.171 C 
HETATM    2  N   UNL     1      24.372  42.737  50.450  1.00  0.00    -0.210 NA
HETATM    3  C   UNL     1      24.050  44.054  50.246  1.00  0.00     0.136 C 
HETATM    4  C   UNL     1      24.922  44.953  49.727  1.00  0.00     0.144 C 
HETATM    5  C   UNL     1      26.331  44.480  49.567  1.00  0.00     0.277 C 
HETATM    6  O   UNL     1      27.314  45.206  49.657  1.00  0.00    -0.266 OA
HETATM    7  N   UNL     1      26.467  43.128  49.480  1.00  0.00    -0.300 N 
HETATM    8  H   UNL     1      27.403  42.769  49.374  1.00  0.00     0.171 HD
ENDROOT
BRANCH   1   9
HETATM    9  S   UNL     1      26.004  40.672  50.139  1.00  0.00    -0.083 SA
BRANCH   9  10
HETATM   10  C   UNL     1      27.787  40.841  49.851  1.00  0.00     0.185 C 
BRANCH  10  11
HETATM   11  C   UNL     1      28.653  40.685  51.090  1.00  0.00     0.227 C 
HETATM   12  N   UNL     1      28.820  41.810  51.867  1.00  0.00    -0.356 N 
HETATM   13  H   UNL     1      28.701  42.702  51.400  1.00  0.00     0.162 HD
HETATM   14  O   UNL     1      29.096  39.585  51.417  1.00  0.00    -0.273 OA
BRANCH  12  15
HETATM   15  C   UNL     1      29.731  41.772  52.987  1.00  0.00     0.161 C 
BRANCH  15  16
HETATM   16  C   UNL     1      29.562  42.958  53.898  1.00  0.00    -0.041 A 
HETATM   17  C   UNL     1      28.424  43.771  53.808  1.00  0.00     0.009 A 
HETATM   18  C   UNL     1      28.239  44.837  54.691  1.00  0.00     0.007 A 
HETATM   19  C   UNL     1      29.189  45.112  55.680  1.00  0.00    -0.062 A 
HETATM   20  C   UNL     1      28.975  46.223  56.665  1.00  0.00     0.048 C 
HETATM   21  C   UNL     1      30.323  44.298  55.777  1.00  0.00     0.007 A 
HETATM   22  C   UNL     1      30.510  43.234  54.892  1.00  0.00     0.009 A 
ENDBRANCH  15  16
ENDBRANCH  12  15
ENDBRANCH  10  11
ENDBRANCH   9  10
ENDBRANCH   1   9
BRANCH   3  23
HETATM   23  N   UNL     1      22.748  44.433  50.552  1.00  0.00    -0.285 NA
HETATM   24  H   UNL     1      22.816  45.190  51.233  1.00  0.00     0.125 HD
HETATM   25  H   UNL     1      22.286  44.801  49.722  1.00  0.00     0.125 HD
ENDBRANCH   3  23
BRANCH   4  26
HETATM   26  N   UNL     1      24.499  46.221  49.386  1.00  0.00    -0.314 N 
HETATM   27  C   UNL     1      24.617  47.373  50.136  1.00  0.00     0.280 C 
HETATM   28  O   UNL     1      25.113  47.440  51.254  1.00  0.00    -0.265 OA
HETATM   29  H   UNL     1      24.317  46.368  48.397  1.00  0.00     0.169 HD
BRANCH  27  30
HETATM   30  C   UNL     1      24.172  48.556  49.422  1.00  0.00     0.144 A 
HETATM   31  O   UNL     1      22.882  48.995  49.582  1.00  0.00    -0.298 OA
HETATM   32  C   UNL     1      22.722  50.075  48.771  1.00  0.00     0.122 A 
HETATM   33 BR   UNL     1      21.127  51.026  48.600  1.00  0.00    -0.023 Br
HETATM   34  C   UNL     1      23.891  50.350  48.100  1.00  0.00     0.048 A 
HETATM   35  C   UNL     1      24.827  49.373  48.519  1.00  0.00     0.046 A 
ENDBRANCH  27  30
ENDBRANCH   4  26
TORSDOF 8
ENDMDL
MODEL 3
REMARK VINA RESULT:      -9.7      1.966      2.722
REMARK  8 active torsions:
REMARK  status: ('A' for Active; 'I' for Inactive)
REMARK    1  A    between atoms: C_5  and  C_6 
REMARK    2  A    between atoms: C_6  and  N_7 
REMARK       I    between atoms: N_7  and  C_8 
REMARK    3  A    between atoms: C_8  and  C_9 
REMARK    4  A    between atoms: C_9  and  S_10 
REMARK    5  A    between atoms: S_10  and  C_11 
REMARK    6  A    between atoms: C_13  and  N_14 
REMARK    7  A    between atoms: C_15  and  N_16 
REMARK       I    between atoms: N_16  and  C_17 
REMARK    8  A    between atoms: C_17  and  C_18 
ROOT
HETATM    1  C   UNL     1      25.614  44.792  49.600  1.00  0.00     0.171 C 
HETATM    2  N   UNL     1      26.025  45.996  49.793  1.00  0.00    -0.210 NA
HETATM    3  C   UNL     1      25.092  46.999  49.752  1.00  0.00     0.136 C 
HETATM    4  C   UNL     1      23.795  46.784  49.422  1.00  0.00     0.144 C 
HETATM    5  C   UNL     1      23.468  45.419  48.911  1.00  0.00     0.277 C 
HETATM    6  O   UNL     1      22.586  45.184  48.092  1.00  0.00    -0.266 OA
HETATM    7  N   UNL     1      24.343  44.448  49.292  1.00  0.00    -0.300 N 
HETATM    8  H   UNL     1      24.159  43.513  48.965  1.00  0.00     0.171 HD
ENDROOT
BRANCH   1   9
HETATM    9  S   UNL     1      26.676  43.428  49.735  1.00  0.00    -0.083 SA
BRANCH   9  10
HETATM   10  C   UNL     1      26.121  42.752  51.323  1.00  0.00     0.185 C 
BRANCH  10  11
HETATM   11  C   UNL     1      26.184  43.724  52.490  1.00  0.00     0.227 C 
HETATM   12  N   UNL     1      27.362  44.419  52.646  1.00  0.00    -0.356 N 
HETATM   13  H   UNL     1      28.194  43.991  52.254  1.00  0.00     0.162 HD
HETATM   14  O   UNL     1      25.195  43.936  53.191  1.00  0.00    -0.273 OA
BRANCH  12  15
HETATM   15  C   UNL     1      27.542  45.264  53.803  1.00  0.00     0.161 C 
BRANCH  15  16
HETATM   16  C   UNL     1      28.660  44.784  54.689  1.00  0.00    -0.041 A 
HETATM   17  C   UNL     1      29.251  43.532  54.478  1.00  0.00     0.009 A 
HETATM   18  C   UNL     1      30.327  43.110  55.263  1.00  0.00     0.007 A 
HETATM   19  C   UNL     1      30.831  43.932  56.276  1.00  0.00    -0.062 A 
HETATM   20  C   UNL     1      32.017  43.510  57.091  1.00  0.00     0.048 C 
HETATM   21  C   UNL     1      30.247  45.187  56.486  1.00  0.00     0.007 A 
HETATM   22  C   UNL     1      29.170  45.607  55.702  1.00  0.00     0.009 A 
ENDBRANCH  15  16
ENDBRANCH  12  15
ENDBRANCH  10  11
ENDBRANCH   9  10
ENDBRANCH   1   9
BRANCH   3  23
HETATM   23  N   UNL     1      25.523  48.270  50.117  1.00  0.00    -0.285 NA
HETATM   24  H   UNL     1      25.756  48.760  49.253  1.00  0.00     0.125 HD
HETATM   25  H   UNL     1      24.767  48.779  50.572  1.00  0.00     0.125 HD
ENDBRANCH   3  23
BRANCH   4  26
HETATM   26  N   UNL     1      22.862  47.792  49.559  1.00  0.00    -0.314 N 
HETATM   27  C   UNL     1      22.670  48.874  48.723  1.00  0.00     0.280 C 
HETATM   28  O   UNL     1      23.328  49.115  47.719  1.00  0.00    -0.265 OA
HETATM   29  H   UNL     1      22.086  47.587  50.182  1.00  0.00     0.169 HD
BRANCH  27  30
HETATM   30  C   UNL     1      21.521  49.677  49.099  1.00  0.00     0.144 A 
HETATM   31  O   UNL     1      20.266  49.284  48.709  1.00  0.00    -0.298 OA
HETATM   32  C   UNL     1      19.395  50.232  49.148  1.00  0.00     0.122 A 
HETATM   33 BR   UNL     1      17.555  50.178  48.848  1.00  0.00    -0.023 Br
HETATM   34  C   UNL     1      20.064  51.224  49.826  1.00  0.00     0.048 A 
HETATM   35  C   UNL     1      21.434  50.868  49.796  1.00  0.00     0.046 A 
ENDBRANCH  27  30
ENDBRANCH   4  26
TORSDOF 8
ENDMDL
MODEL 4
REMARK VINA RESULT:      -9.5      3.926     10.451
REMARK  8 active torsions:
REMARK  status: ('A' for Active; 'I' for Inactive)
REMARK    1  A    between atoms: C_5  and  C_6 
REMARK    2  A    between atoms: C_6  and  N_7 
REMARK       I    between atoms: N_7  and  C_8 
REMARK    3  A    between atoms: C_8  and  C_9 
REMARK    4  A    between atoms: C_9  and  S_10 
REMARK    5  A    between atoms: S_10  and  C_11 
REMARK    6  A    between atoms: C_13  and  N_14 
REMARK    7  A    between atoms: C_15  and  N_16 
REMARK       I    between atoms: N_16  and  C_17 
REMARK    8  A    between atoms: C_17  and  C_18 
ROOT
HETATM    1  C   UNL     1      23.990  45.402  49.398  1.00  0.00     0.171 C 
HETATM    2  N   UNL     1      24.524  46.542  49.666  1.00  0.00    -0.210 NA
HETATM    3  C   UNL     1      25.390  46.602  50.727  1.00  0.00     0.136 C 
HETATM    4  C   UNL     1      25.623  45.549  51.548  1.00  0.00     0.144 C 
HETATM    5  C   UNL     1      24.734  44.362  51.358  1.00  0.00     0.277 C 
HETATM    6  O   UNL     1      24.401  43.602  52.259  1.00  0.00    -0.266 OA
HETATM    7  N   UNL     1      24.167  44.274  50.124  1.00  0.00    -0.300 N 
HETATM    8  H   UNL     1      23.557  43.489  49.956  1.00  0.00     0.171 HD
ENDROOT
BRANCH   1   9
HETATM    9  S   UNL     1      22.965  45.171  48.018  1.00  0.00    -0.083 SA
BRANCH   9  10
HETATM   10  C   UNL     1      21.571  46.235  48.481  1.00  0.00     0.185 C 
BRANCH  10  11
HETATM   11  C   UNL     1      21.812  47.724  48.291  1.00  0.00     0.227 C 
HETATM   12  N   UNL     1      21.976  48.470  49.436  1.00  0.00    -0.356 N 
HETATM   13  H   UNL     1      21.564  48.093  50.283  1.00  0.00     0.162 HD
HETATM   14  O   UNL     1      21.943  48.205  47.165  1.00  0.00    -0.273 OA
BRANCH  12  15
HETATM   15  C   UNL     1      22.081  49.907  49.340  1.00  0.00     0.161 C 
BRANCH  15  16
HETATM   16  C   UNL     1      20.733  50.576  49.333  1.00  0.00    -0.041 A 
HETATM   17  C   UNL     1      19.722  50.156  50.207  1.00  0.00     0.009 A 
HETATM   18  C   UNL     1      18.489  50.813  50.241  1.00  0.00     0.007 A 
HETATM   19  C   UNL     1      18.244  51.903  49.399  1.00  0.00    -0.062 A 
HETATM   20  C   UNL     1      16.943  52.647  49.463  1.00  0.00     0.048 C 
HETATM   21  C   UNL     1      19.254  52.330  48.529  1.00  0.00     0.007 A 
HETATM   22  C   UNL     1      20.485  51.671  48.494  1.00  0.00     0.009 A 
ENDBRANCH  15  16
ENDBRANCH  12  15
ENDBRANCH  10  11
ENDBRANCH   9  10
ENDBRANCH   1   9
BRANCH   3  23
HETATM   23  N   UNL     1      26.076  47.798  50.907  1.00  0.00    -0.285 NA
HETATM   24  H   UNL     1      26.537  47.738  51.815  1.00  0.00     0.125 HD
HETATM   25  H   UNL     1      26.798  47.898  50.195  1.00  0.00     0.125 HD
ENDBRANCH   3  23
BRANCH   4  26
HETATM   26  N   UNL     1      26.625  45.608  52.494  1.00  0.00    -0.314 N 
HETATM   27  C   UNL     1      26.502  45.958  53.824  1.00  0.00     0.280 C 
HETATM   28  O   UNL     1      25.459  46.295  54.371  1.00  0.00    -0.265 OA
HETATM   29  H   UNL     1      27.477  45.107  52.259  1.00  0.00     0.169 HD
BRANCH  27  30
HETATM   30  C   UNL     1      27.740  45.798  54.564  1.00  0.00     0.144 A 
HETATM   31  O   UNL     1      28.423  44.611  54.489  1.00  0.00    -0.298 OA
HETATM   32  C   UNL     1      29.504  44.718  55.308  1.00  0.00     0.122 A 
HETATM   33 BR   UNL     1      30.745  43.353  55.581  1.00  0.00    -0.023 Br
HETATM   34  C   UNL     1      29.539  45.958  55.900  1.00  0.00     0.048 A 
HETATM   35  C   UNL     1      28.403  46.657  55.422  1.00  0.00     0.046 A 
ENDBRANCH  27  30
ENDBRANCH   4  26
TORSDOF 8
ENDMDL
MODEL 5
REMARK VINA RESULT:      -9.4      4.297     11.142
REMARK  8 active torsions:
REMARK  status: ('A' for Active; 'I' for Inactive)
REMARK    1  A    between atoms: C_5  and  C_6 
REMARK    2  A    between atoms: C_6  and  N_7 
REMARK       I    between atoms: N_7  and  C_8 
REMARK    3  A    between atoms: C_8  and  C_9 
REMARK    4  A    between atoms: C_9  and  S_10 
REMARK    5  A    between atoms: S_10  and  C_11 
REMARK    6  A    between atoms: C_13  and  N_14 
REMARK    7  A    between atoms: C_15  and  N_16 
REMARK       I    between atoms: N_16  and  C_17 
REMARK    8  A    between atoms: C_17  and  C_18 
ROOT
HETATM    1  C   UNL     1      23.977  46.689  49.741  1.00  0.00     0.171 C 
HETATM    2  N   UNL     1      24.504  47.361  50.704  1.00  0.00    -0.210 NA
HETATM    3  C   UNL     1      25.482  46.748  51.444  1.00  0.00     0.136 C 
HETATM    4  C   UNL     1      25.837  45.452  51.265  1.00  0.00     0.144 C 
HETATM    5  C   UNL     1      24.967  44.657  50.346  1.00  0.00     0.277 C 
HETATM    6  O   UNL     1      24.760  43.455  50.463  1.00  0.00    -0.266 OA
HETATM    7  N   UNL     1      24.267  45.402  49.446  1.00  0.00    -0.300 N 
HETATM    8  H   UNL     1      23.665  44.902  48.809  1.00  0.00     0.171 HD
ENDROOT
BRANCH   1   9
HETATM    9  S   UNL     1      22.809  47.389  48.666  1.00  0.00    -0.083 SA
BRANCH   9  10
HETATM   10  C   UNL     1      23.536  49.034  48.439  1.00  0.00     0.185 C 
BRANCH  10  11
HETATM   11  C   UNL     1      22.883  50.141  49.250  1.00  0.00     0.227 C 
HETATM   12  N   UNL     1      21.633  49.871  49.761  1.00  0.00    -0.356 N 
HETATM   13  H   UNL     1      21.091  49.165  49.276  1.00  0.00     0.162 HD
HETATM   14  O   UNL     1      23.491  51.180  49.506  1.00  0.00    -0.273 OA
BRANCH  12  15
HETATM   15  C   UNL     1      20.898  50.917  50.433  1.00  0.00     0.161 C 
BRANCH  15  16
HETATM   16  C   UNL     1      19.636  51.285  49.701  1.00  0.00    -0.041 A 
HETATM   17  C   UNL     1      19.681  52.108  48.567  1.00  0.00     0.009 A 
HETATM   18  C   UNL     1      18.516  52.403  47.854  1.00  0.00     0.007 A 
HETATM   19  C   UNL     1      17.284  51.882  48.261  1.00  0.00    -0.062 A 
HETATM   20  C   UNL     1      16.037  52.152  47.474  1.00  0.00     0.048 C 
HETATM   21  C   UNL     1      17.236  51.055  49.389  1.00  0.00     0.007 A 
HETATM   22  C   UNL     1      18.400  50.762  50.104  1.00  0.00     0.009 A 
ENDBRANCH  15  16
ENDBRANCH  12  15
ENDBRANCH  10  11
ENDBRANCH   9  10
ENDBRANCH   1   9
BRANCH   3  23
HETATM   23  N   UNL     1      26.149  47.538  52.374  1.00  0.00    -0.285 NA
HETATM   24  H   UNL     1      25.688  47.385  53.272  1.00  0.00     0.125 HD
HETATM   25  H   UNL     1      27.116  47.232  52.464  1.00  0.00     0.125 HD
ENDBRANCH   3  23
BRANCH   4  26
HETATM   26  N   UNL     1      26.937  44.933  51.914  1.00  0.00    -0.314 N 
HETATM   27  C   UNL     1      26.949  44.190  53.078  1.00  0.00     0.280 C 
HETATM   28  O   UNL     1      25.960  43.890  53.734  1.00  0.00    -0.265 OA
HETATM   29  H   UNL     1      27.784  44.871  51.357  1.00  0.00     0.169 HD
BRANCH  27  30
HETATM   30  C   UNL     1      28.273  43.701  53.419  1.00  0.00     0.144 A 
HETATM   31  O   UNL     1      28.756  43.890  54.688  1.00  0.00    -0.298 OA
HETATM   32  C   UNL     1      30.019  43.386  54.716  1.00  0.00     0.122 A 
HETATM   33 BR   UNL     1      31.126  43.423  56.217  1.00  0.00    -0.023 Br
HETATM   34  C   UNL     1      30.356  42.863  53.489  1.00  0.00     0.048 A 
HETATM   35  C   UNL     1      29.231  43.064  52.652  1.00  0.00     0.046 A 
ENDBRANCH  27  30
ENDBRANCH   4  26
TORSDOF 8
ENDMDL
MODEL 6
REMARK VINA RESULT:      -9.4      1.715      2.165
REMARK  8 active torsions:
REMARK  status: ('A' for Active; 'I' for Inactive)
REMARK    1  A    between atoms: C_5  and  C_6 
REMARK    2  A    between atoms: C_6  and  N_7 
REMARK       I    between atoms: N_7  and  C_8 
REMARK    3  A    between atoms: C_8  and  C_9 
REMARK    4  A    between atoms: C_9  and  S_10 
REMARK    5  A    between atoms: S_10  and  C_11 
REMARK    6  A    between atoms: C_13  and  N_14 
REMARK    7  A    between atoms: C_15  and  N_16 
REMARK       I    between atoms: N_16  and  C_17 
REMARK    8  A    between atoms: C_17  and  C_18 
ROOT
HETATM    1  C   UNL     1      23.822  45.498  48.907  1.00  0.00     0.171 C 
HETATM    2  N   UNL     1      24.189  46.572  49.513  1.00  0.00    -0.210 NA
HETATM    3  C   UNL     1      23.417  47.692  49.342  1.00  0.00     0.136 C 
HETATM    4  C   UNL     1      22.359  47.735  48.496  1.00  0.00     0.144 C 
HETATM    5  C   UNL     1      22.190  46.550  47.601  1.00  0.00     0.277 C 
HETATM    6  O   UNL     1      21.710  46.601  46.475  1.00  0.00    -0.266 OA
HETATM    7  N   UNL     1      22.771  45.407  48.061  1.00  0.00    -0.300 N 
HETATM    8  H   UNL     1      22.682  44.585  47.484  1.00  0.00     0.171 HD
ENDROOT
BRANCH   1   9
HETATM    9  S   UNL     1      24.651  43.991  49.129  1.00  0.00    -0.083 SA
BRANCH   9  10
HETATM   10  C   UNL     1      26.149  44.575  49.968  1.00  0.00     0.185 C 
BRANCH  10  11
HETATM   11  C   UNL     1      26.695  43.636  51.032  1.00  0.00     0.227 C 
HETATM   12  N   UNL     1      27.990  43.859  51.440  1.00  0.00    -0.356 N 
HETATM   13  H   UNL     1      28.594  44.339  50.781  1.00  0.00     0.162 HD
HETATM   14  O   UNL     1      25.974  42.788  51.556  1.00  0.00    -0.273 OA
BRANCH  12  15
HETATM   15  C   UNL     1      28.619  42.932  52.351  1.00  0.00     0.161 C 
BRANCH  15  16
HETATM   16  C   UNL     1      29.029  43.591  53.640  1.00  0.00    -0.041 A 
HETATM   17  C   UNL     1      30.173  43.165  54.328  1.00  0.00     0.009 A 
HETATM   18  C   UNL     1      30.586  43.814  55.494  1.00  0.00     0.007 A 
HETATM   19  C   UNL     1      29.862  44.901  55.996  1.00  0.00    -0.062 A 
HETATM   20  C   UNL     1      30.326  45.635  57.218  1.00  0.00     0.048 C 
HETATM   21  C   UNL     1      28.723  45.333  55.308  1.00  0.00     0.007 A 
HETATM   22  C   UNL     1      28.308  44.682  54.143  1.00  0.00     0.009 A 
ENDBRANCH  15  16
ENDBRANCH  12  15
ENDBRANCH  10  11
ENDBRANCH   9  10
ENDBRANCH   1   9
BRANCH   3  23
HETATM   23  N   UNL     1      23.736  48.796  50.125  1.00  0.00    -0.285 NA
HETATM   24  H   UNL     1      23.080  49.535  49.871  1.00  0.00     0.125 HD
HETATM   25  H   UNL     1      23.596  48.579  51.110  1.00  0.00     0.125 HD
ENDBRANCH   3  23
BRANCH   4  26
HETATM   26  N   UNL     1      21.516  48.826  48.485  1.00  0.00    -0.314 N 
HETATM   27  C   UNL     1      20.256  48.916  49.044  1.00  0.00     0.280 C 
HETATM   28  O   UNL     1      19.678  48.009  49.630  1.00  0.00    -0.265 OA
HETATM   29  H   UNL     1      21.957  49.717  48.276  1.00  0.00     0.169 HD
BRANCH  27  30
HETATM   30  C   UNL     1      19.695  50.251  48.952  1.00  0.00     0.144 A 
HETATM   31  O   UNL     1      18.496  50.523  49.560  1.00  0.00    -0.298 OA
HETATM   32  C   UNL     1      18.186  51.817  49.276  1.00  0.00     0.122 A 
HETATM   33 BR   UNL     1      16.630  52.668  49.852  1.00  0.00    -0.023 Br
HETATM   34  C   UNL     1      19.170  52.389  48.505  1.00  0.00     0.048 A 
HETATM   35  C   UNL     1      20.144  51.382  48.295  1.00  0.00     0.046 A 
ENDBRANCH  27  30
ENDBRANCH   4  26
TORSDOF 8
ENDMDL
MODEL 7
REMARK VINA RESULT:      -9.2      4.094     11.433
REMARK  8 active torsions:
REMARK  status: ('A' for Active; 'I' for Inactive)
REMARK    1  A    between atoms: C_5  and  C_6 
REMARK    2  A    between atoms: C_6  and  N_7 
REMARK       I    between atoms: N_7  and  C_8 
REMARK    3  A    between atoms: C_8  and  C_9 
REMARK    4  A    between atoms: C_9  and  S_10 
REMARK    5  A    between atoms: S_10  and  C_11 
REMARK    6  A    between atoms: C_13  and  N_14 
REMARK    7  A    between atoms: C_15  and  N_16 
REMARK       I    between atoms: N_16  and  C_17 
REMARK    8  A    between atoms: C_17  and  C_18 
ROOT
HETATM    1  C   UNL     1      24.348  45.958  49.898  1.00  0.00     0.171 C 
HETATM    2  N   UNL     1      24.021  45.132  50.828  1.00  0.00    -0.210 NA
HETATM    3  C   UNL     1      25.016  44.685  51.659  1.00  0.00     0.136 C 
HETATM    4  C   UNL     1      26.322  44.999  51.477  1.00  0.00     0.144 C 
HETATM    5  C   UNL     1      26.654  45.702  50.201  1.00  0.00     0.277 C 
HETATM    6  O   UNL     1      27.720  45.585  49.608  1.00  0.00    -0.266 OA
HETATM    7  N   UNL     1      25.610  46.368  49.635  1.00  0.00    -0.300 N 
HETATM    8  H   UNL     1      25.793  46.853  48.770  1.00  0.00     0.171 HD
ENDROOT
BRANCH   1   9
HETATM    9  S   UNL     1      23.166  46.678  48.853  1.00  0.00    -0.083 SA
BRANCH   9  10
HETATM   10  C   UNL     1      23.647  48.421  48.986  1.00  0.00     0.185 C 
BRANCH  10  11
HETATM   11  C   UNL     1      22.915  49.362  48.043  1.00  0.00     0.227 C 
HETATM   12  N   UNL     1      21.548  49.434  48.189  1.00  0.00    -0.356 N 
HETATM   13  H   UNL     1      21.096  48.628  48.607  1.00  0.00     0.162 HD
HETATM   14  O   UNL     1      23.535  50.082  47.261  1.00  0.00    -0.273 OA
BRANCH  12  15
HETATM   15  C   UNL     1      20.772  50.207  47.247  1.00  0.00     0.161 C 
BRANCH  15  16
HETATM   16  C   UNL     1      19.688  51.004  47.922  1.00  0.00    -0.041 A 
HETATM   17  C   UNL     1      18.522  51.353  47.229  1.00  0.00     0.009 A 
HETATM   18  C   UNL     1      17.491  52.043  47.871  1.00  0.00     0.007 A 
HETATM   19  C   UNL     1      17.607  52.398  49.219  1.00  0.00    -0.062 A 
HETATM   20  C   UNL     1      16.485  53.094  49.931  1.00  0.00     0.048 C 
HETATM   21  C   UNL     1      18.768  52.045  49.916  1.00  0.00     0.007 A 
HETATM   22  C   UNL     1      19.800  51.358  49.272  1.00  0.00     0.009 A 
ENDBRANCH  15  16
ENDBRANCH  12  15
ENDBRANCH  10  11
ENDBRANCH   9  10
ENDBRANCH   1   9
BRANCH   3  23
HETATM   23  N   UNL     1      24.622  43.921  52.751  1.00  0.00    -0.285 NA
HETATM   24  H   UNL     1      25.468  43.702  53.277  1.00  0.00     0.125 HD
HETATM   25  H   UNL     1      24.009  44.464  53.357  1.00  0.00     0.125 HD
ENDBRANCH   3  23
BRANCH   4  26
HETATM   26  N   UNL     1      27.260  44.667  52.433  1.00  0.00    -0.314 N 
HETATM   27  C   UNL     1      28.122  43.588  52.420  1.00  0.00     0.280 C 
HETATM   28  O   UNL     1      28.169  42.732  51.545  1.00  0.00    -0.265 OA
HETATM   29  H   UNL     1      27.517  45.414  53.070  1.00  0.00     0.169 HD
BRANCH  27  30
HETATM   30  C   UNL     1      29.061  43.607  53.527  1.00  0.00     0.144 A 
HETATM   31  O   UNL     1      28.941  44.568  54.497  1.00  0.00    -0.298 OA
HETATM   32  C   UNL     1      29.966  44.385  55.373  1.00  0.00     0.122 A 
HETATM   33 BR   UNL     1      30.268  45.459  56.867  1.00  0.00    -0.023 Br
HETATM   34  C   UNL     1      30.738  43.313  54.992  1.00  0.00     0.048 A 
HETATM   35  C   UNL     1      30.156  42.809  53.803  1.00  0.00     0.046 A 
ENDBRANCH  27  30
ENDBRANCH   4  26
TORSDOF 8
ENDMDL
MODEL 8
REMARK VINA RESULT:      -9.2      4.278     11.080
REMARK  8 active torsions:
REMARK  status: ('A' for Active; 'I' for Inactive)
REMARK    1  A    between atoms: C_5  and  C_6 
REMARK    2  A    between atoms: C_6  and  N_7 
REMARK       I    between atoms: N_7  and  C_8 
REMARK    3  A    between atoms: C_8  and  C_9 
REMARK    4  A    between atoms: C_9  and  S_10 
REMARK    5  A    between atoms: S_10  and  C_11 
REMARK    6  A    between atoms: C_13  and  N_14 
REMARK    7  A    between atoms: C_15  and  N_16 
REMARK       I    between atoms: N_16  and  C_17 
REMARK    8  A    between atoms: C_17  and  C_18 
ROOT
HETATM    1  C   UNL     1      23.770  44.795  49.531  1.00  0.00     0.171 C 
HETATM    2  N   UNL     1      24.757  44.198  48.961  1.00  0.00    -0.210 NA
HETATM    3  C   UNL     1      25.910  44.045  49.687  1.00  0.00     0.136 C 
HETATM    4  C   UNL     1      26.078  44.577  50.922  1.00  0.00     0.144 C 
HETATM    5  C   UNL     1      25.009  45.514  51.382  1.00  0.00     0.277 C 
HETATM    6  O   UNL     1      25.202  46.464  52.131  1.00  0.00    -0.266 OA
HETATM    7  N   UNL     1      23.806  45.342  50.767  1.00  0.00    -0.300 N 
HETATM    8  H   UNL     1      23.058  45.957  51.048  1.00  0.00     0.171 HD
ENDROOT
BRANCH   1   9
HETATM    9  S   UNL     1      22.225  44.955  48.759  1.00  0.00    -0.083 SA
BRANCH   9  10
HETATM   10  C   UNL     1      22.519  46.447  47.772  1.00  0.00     0.185 C 
BRANCH  10  11
HETATM   11  C   UNL     1      22.675  47.727  48.576  1.00  0.00     0.227 C 
HETATM   12  N   UNL     1      21.580  48.560  48.621  1.00  0.00    -0.356 N 
HETATM   13  H   UNL     1      20.922  48.482  47.853  1.00  0.00     0.162 HD
HETATM   14  O   UNL     1      23.698  47.946  49.223  1.00  0.00    -0.273 OA
BRANCH  12  15
HETATM   15  C   UNL     1      21.694  49.852  49.258  1.00  0.00     0.161 C 
BRANCH  15  16
HETATM   16  C   UNL     1      20.387  50.597  49.271  1.00  0.00    -0.041 A 
HETATM   17  C   UNL     1      19.347  50.199  50.121  1.00  0.00     0.009 A 
HETATM   18  C   UNL     1      18.154  50.925  50.176  1.00  0.00     0.007 A 
HETATM   19  C   UNL     1      17.978  52.061  49.380  1.00  0.00    -0.062 A 
HETATM   20  C   UNL     1      16.722  52.875  49.468  1.00  0.00     0.048 C 
HETATM   21  C   UNL     1      19.018  52.465  48.534  1.00  0.00     0.007 A 
HETATM   22  C   UNL     1      20.209  51.738  48.477  1.00  0.00     0.009 A 
ENDBRANCH  15  16
ENDBRANCH  12  15
ENDBRANCH  10  11
ENDBRANCH   9  10
ENDBRANCH   1   9
BRANCH   3  23
HETATM   23  N   UNL     1      26.908  43.263  49.116  1.00  0.00    -0.285 NA
HETATM   24  H   UNL     1      26.948  43.513  48.128  1.00  0.00     0.125 HD
HETATM   25  H   UNL     1      27.811  43.488  49.531  1.00  0.00     0.125 HD
ENDBRANCH   3  23
BRANCH   4  26
HETATM   26  N   UNL     1      27.187  44.253  51.677  1.00  0.00    -0.314 N 
HETATM   27  C   UNL     1      27.208  43.793  52.979  1.00  0.00     0.280 C 
HETATM   28  O   UNL     1      26.220  43.616  53.681  1.00  0.00    -0.265 OA
HETATM   29  H   UNL     1      28.042  44.095  51.152  1.00  0.00     0.169 HD
BRANCH  27  30
HETATM   30  C   UNL     1      28.542  43.437  53.427  1.00  0.00     0.144 A 
HETATM   31  O   UNL     1      28.911  43.701  54.721  1.00  0.00    -0.298 OA
HETATM   32  C   UNL     1      30.210  43.317  54.854  1.00  0.00     0.122 A 
HETATM   33 BR   UNL     1      31.195  43.493  56.427  1.00  0.00    -0.023 Br
HETATM   34  C   UNL     1      30.681  42.797  53.671  1.00  0.00     0.048 A 
HETATM   35  C   UNL     1      29.607  42.872  52.750  1.00  0.00     0.046 A 
ENDBRANCH  27  30
ENDBRANCH   4  26
TORSDOF 8
ENDMDL
MODEL 9
REMARK VINA RESULT:      -9.1      1.672      2.036
REMARK  8 active torsions:
REMARK  status: ('A' for Active; 'I' for Inactive)
REMARK    1  A    between atoms: C_5  and  C_6 
REMARK    2  A    between atoms: C_6  and  N_7 
REMARK       I    between atoms: N_7  and  C_8 
REMARK    3  A    between atoms: C_8  and  C_9 
REMARK    4  A    between atoms: C_9  and  S_10 
REMARK    5  A    between atoms: S_10  and  C_11 
REMARK    6  A    between atoms: C_13  and  N_14 
REMARK    7  A    between atoms: C_15  and  N_16 
REMARK       I    between atoms: N_16  and  C_17 
REMARK    8  A    between atoms: C_17  and  C_18 
ROOT
HETATM    1  C   UNL     1      23.862  47.506  49.604  1.00  0.00     0.171 C 
HETATM    2  N   UNL     1      23.987  48.782  49.714  1.00  0.00    -0.210 NA
HETATM    3  C   UNL     1      22.886  49.553  49.444  1.00  0.00     0.136 C 
HETATM    4  C   UNL     1      21.722  49.037  48.978  1.00  0.00     0.144 C 
HETATM    5  C   UNL     1      21.758  47.596  48.583  1.00  0.00     0.277 C 
HETATM    6  O   UNL     1      21.073  47.110  47.690  1.00  0.00    -0.266 OA
HETATM    7  N   UNL     1      22.746  46.872  49.177  1.00  0.00    -0.300 N 
HETATM    8  H   UNL     1      22.805  45.895  48.935  1.00  0.00     0.171 HD
ENDROOT
BRANCH   1   9
HETATM    9  S   UNL     1      25.146  46.419  50.022  1.00  0.00    -0.083 SA
BRANCH   9  10
HETATM   10  C   UNL     1      24.184  45.037  50.695  1.00  0.00     0.185 C 
BRANCH  10  11
HETATM   11  C   UNL     1      25.006  43.836  51.131  1.00  0.00     0.227 C 
HETATM   12  N   UNL     1      26.362  44.035  51.261  1.00  0.00    -0.356 N 
HETATM   13  H   UNL     1      26.760  44.794  50.719  1.00  0.00     0.162 HD
HETATM   14  O   UNL     1      24.462  42.775  51.438  1.00  0.00    -0.273 OA
BRANCH  12  15
HETATM   15  C   UNL     1      27.223  42.911  51.547  1.00  0.00     0.161 C 
BRANCH  15  16
HETATM   16  C   UNL     1      28.201  43.210  52.650  1.00  0.00    -0.041 A 
HETATM   17  C   UNL     1      27.855  44.074  53.698  1.00  0.00     0.009 A 
HETATM   18  C   UNL     1      28.742  44.307  54.752  1.00  0.00     0.007 A 
HETATM   19  C   UNL     1      29.992  43.682  54.778  1.00  0.00    -0.062 A 
HETATM   20  C   UNL     1      30.931  43.886  55.930  1.00  0.00     0.048 C 
HETATM   21  C   UNL     1      30.339  42.813  53.737  1.00  0.00     0.007 A 
HETATM   22  C   UNL     1      29.453  42.582  52.681  1.00  0.00     0.009 A 
ENDBRANCH  15  16
ENDBRANCH  12  15
ENDBRANCH  10  11
ENDBRANCH   9  10
ENDBRANCH   1   9
BRANCH   3  23
HETATM   23  N   UNL     1      22.992  50.912  49.718  1.00  0.00    -0.285 NA
HETATM   24  H   UNL     1      22.052  51.241  49.938  1.00  0.00     0.125 HD
HETATM   25  H   UNL     1      23.575  51.058  50.541  1.00  0.00     0.125 HD
ENDBRANCH   3  23
BRANCH   4  26
HETATM   26  N   UNL     1      20.596  49.827  48.883  1.00  0.00    -0.314 N 
HETATM   27  C   UNL     1      19.470  49.779  49.682  1.00  0.00     0.280 C 
HETATM   28  O   UNL     1      19.293  48.995  50.605  1.00  0.00    -0.265 OA
HETATM   29  H   UNL     1      20.707  50.684  48.349  1.00  0.00     0.169 HD
BRANCH  27  30
HETATM   30  C   UNL     1      18.522  50.836  49.379  1.00  0.00     0.144 A 
HETATM   31  O   UNL     1      17.608  50.654  48.373  1.00  0.00    -0.298 OA
HETATM   32  C   UNL     1      16.888  51.805  48.274  1.00  0.00     0.122 A 
HETATM   33 BR   UNL     1      15.528  52.081  47.028  1.00  0.00    -0.023 Br
HETATM   34  C   UNL     1      17.313  52.721  49.207  1.00  0.00     0.048 A 
HETATM   35  C   UNL     1      18.366  52.099  49.921  1.00  0.00     0.046 A 
ENDBRANCH  27  30
ENDBRANCH   4  26
TORSDOF 8
ENDMDL
MODEL 10
REMARK VINA RESULT:      -8.8     12.899     15.373
REMARK  8 active torsions:
REMARK  status: ('A' for Active; 'I' for Inactive)
REMARK    1  A    between atoms: C_5  and  C_6 
REMARK    2  A    between atoms: C_6  and  N_7 
REMARK       I    between atoms: N_7  and  C_8 
REMARK    3  A    between atoms: C_8  and  C_9 
REMARK    4  A    between atoms: C_9  and  S_10 
REMARK    5  A    between atoms: S_10  and  C_11 
REMARK    6  A    between atoms: C_13  and  N_14 
REMARK    7  A    between atoms: C_15  and  N_16 
REMARK       I    between atoms: N_16  and  C_17 
REMARK    8  A    between atoms: C_17  and  C_18 
ROOT
HETATM    1  C   UNL     1      29.276  47.180  38.829  1.00  0.00     0.171 C 
HETATM    2  N   UNL     1      29.988  48.115  38.304  1.00  0.00    -0.210 NA
HETATM    3  C   UNL     1      30.676  48.941  39.155  1.00  0.00     0.136 C 
HETATM    4  C   UNL     1      30.557  48.873  40.503  1.00  0.00     0.144 C 
HETATM    5  C   UNL     1      29.480  47.974  41.020  1.00  0.00     0.277 C 
HETATM    6  O   UNL     1      28.863  48.168  42.061  1.00  0.00    -0.266 OA
HETATM    7  N   UNL     1      29.102  46.992  40.157  1.00  0.00    -0.300 N 
HETATM    8  H   UNL     1      28.376  46.365  40.467  1.00  0.00     0.171 HD
ENDROOT
BRANCH   1   9
HETATM    9  S   UNL     1      28.448  46.004  37.859  1.00  0.00    -0.083 SA
BRANCH   9  10
HETATM   10  C   UNL     1      27.015  46.984  37.333  1.00  0.00     0.185 C 
BRANCH  10  11
HETATM   11  C   UNL     1      26.438  47.899  38.400  1.00  0.00     0.227 C 
HETATM   12  N   UNL     1      26.852  49.212  38.372  1.00  0.00    -0.356 N 
HETATM   13  H   UNL     1      27.748  49.393  37.932  1.00  0.00     0.162 HD
HETATM   14  O   UNL     1      25.577  47.495  39.181  1.00  0.00    -0.273 OA
BRANCH  12  15
HETATM   15  C   UNL     1      26.447  50.109  39.429  1.00  0.00     0.161 C 
BRANCH  15  16
HETATM   16  C   UNL     1      27.525  51.098  39.780  1.00  0.00    -0.041 A 
HETATM   17  C   UNL     1      27.831  51.377  41.118  1.00  0.00     0.009 A 
HETATM   18  C   UNL     1      28.870  52.252  41.445  1.00  0.00     0.007 A 
HETATM   19  C   UNL     1      29.622  52.866  40.439  1.00  0.00    -0.062 A 
HETATM   20  C   UNL     1      30.771  53.768  40.779  1.00  0.00     0.048 C 
HETATM   21  C   UNL     1      29.323  52.586  39.100  1.00  0.00     0.007 A 
HETATM   22  C   UNL     1      28.282  51.713  38.774  1.00  0.00     0.009 A 
ENDBRANCH  15  16
ENDBRANCH  12  15
ENDBRANCH  10  11
ENDBRANCH   9  10
ENDBRANCH   1   9
BRANCH   3  23
HETATM   23  N   UNL     1      31.560  49.842  38.572  1.00  0.00    -0.285 NA
HETATM   24  H   UNL     1      32.500  49.521  38.801  1.00  0.00     0.125 HD
HETATM   25  H   UNL     1      31.461  49.823  37.558  1.00  0.00     0.125 HD
ENDBRANCH   3  23
BRANCH   4  26
HETATM   26  N   UNL     1      31.394  49.608  41.317  1.00  0.00    -0.314 N 
HETATM   27  C   UNL     1      32.696  49.311  41.666  1.00  0.00     0.280 C 
HETATM   28  O   UNL     1      33.312  48.314  41.310  1.00  0.00    -0.265 OA
HETATM   29  H   UNL     1      31.120  50.575  41.465  1.00  0.00     0.169 HD
BRANCH  27  30
HETATM   30  C   UNL     1      33.324  50.364  42.443  1.00  0.00     0.144 A 
HETATM   31  O   UNL     1      34.649  50.654  42.239  1.00  0.00    -0.298 OA
HETATM   32  C   UNL     1      34.986  51.632  43.123  1.00  0.00     0.122 A 
HETATM   33 BR   UNL     1      36.695  52.363  43.270  1.00  0.00    -0.023 Br
HETATM   34  C   UNL     1      33.897  51.989  43.884  1.00  0.00     0.048 A 
HETATM   35  C   UNL     1      32.825  51.174  43.446  1.00  0.00     0.046 A 
ENDBRANCH  27  30
ENDBRANCH   4  26
TORSDOF 8
ENDMDL
