MODEL 1
REMARK VINA RESULT:      -8.7      0.000      0.000
REMARK  7 active torsions:
REMARK  status: ('A' for Active; 'I' for Inactive)
REMARK    1  A    between atoms: C_3  and  O_4 
REMARK    2  A    between atoms: C_5  and  C_6 
REMARK       I    between atoms: C_6  and  N_7 
REMARK    3  A    between atoms: N_7  and  C_8 
REMARK    4  A    between atoms: C_8  and  C_9 
REMARK    5  A    between atoms: C_9  and  C_10 
REMARK    6  A    between atoms: C_10  and  C_11 
REMARK    7  A    between atoms: C_15  and  C_16 
ROOT
HETATM    1  C   UNL     1      26.332  42.954  49.435  1.00  0.00     0.126 C 
ENDROOT
BRANCH   1   2
HETATM    2  N   UNL     1      24.962  42.796  49.932  1.00  0.00    -0.352 N 
HETATM    3  C   UNL     1      24.219  43.823  50.527  1.00  0.00     0.256 C 
HETATM    4  O   UNL     1      22.985  43.849  50.511  1.00  0.00    -0.267 OA
HETATM    5  C   UNL     1      24.197  41.702  49.348  1.00  0.00     0.152 C 
BRANCH   3   6
HETATM    6  C   UNL     1      24.886  44.984  51.165  1.00  0.00     0.065 A 
HETATM    7  C   UNL     1      25.144  44.950  52.546  1.00  0.00     0.087 A 
HETATM    8  C   UNL     1      25.767  46.028  53.187  1.00  0.00    -0.028 A 
HETATM    9  C   UNL     1      26.037  45.993  54.664  1.00  0.00     0.051 C 
HETATM   10  C   UNL     1      26.159  47.134  52.420  1.00  0.00     0.009 A 
HETATM   11  C   UNL     1      25.959  47.149  51.038  1.00  0.00     0.002 A 
HETATM   12  C   UNL     1      25.341  46.068  50.407  1.00  0.00     0.020 A 
BRANCH   7  13
HETATM   13  O   UNL     1      24.815  43.859  53.312  1.00  0.00    -0.359 OA
HETATM   14  H   UNL     1      25.042  43.056  52.791  1.00  0.00     0.218 HD
ENDBRANCH   7  13
ENDBRANCH   3   6
ENDBRANCH   1   2
BRANCH   1  15
HETATM   15  C   UNL     1      27.324  41.991  50.095  1.00  0.00     0.026 C 
BRANCH  15  16
HETATM   16  C   UNL     1      27.049  41.907  51.597  1.00  0.00     0.060 C 
BRANCH  16  17
HETATM   17  C   UNL     1      28.169  42.344  52.478  1.00  0.00     0.030 A 
HETATM   18  N   UNL     1      29.498  42.247  52.177  1.00  0.00    -0.282 N 
HETATM   19  H   UNL     1      29.930  41.867  51.341  1.00  0.00     0.189 HD
HETATM   20  N   UNL     1      30.308  42.727  53.131  1.00  0.00    -0.174 NA
HETATM   21  C   UNL     1      29.485  43.179  54.092  1.00  0.00     0.089 A 
HETATM   22  C   UNL     1      28.133  42.944  53.719  1.00  0.00     0.060 A 
BRANCH  21  23
HETATM   23  C   UNL     1      29.995  43.817  55.314  1.00  0.00    -0.006 A 
HETATM   24  C   UNL     1      29.518  45.075  55.714  1.00  0.00     0.014 A 
HETATM   25  C   UNL     1      29.990  45.688  56.878  1.00  0.00     0.001 A 
HETATM   26  C   UNL     1      30.949  45.049  57.662  1.00  0.00     0.000 A 
HETATM   27  C   UNL     1      31.432  43.799  57.282  1.00  0.00     0.001 A 
HETATM   28  C   UNL     1      30.959  43.187  56.117  1.00  0.00     0.014 A 
ENDBRANCH  21  23
ENDBRANCH  16  17
ENDBRANCH  15  16
ENDBRANCH   1  15
TORSDOF 7
ENDMDL
MODEL 2
REMARK VINA RESULT:      -8.7      4.054      5.315
REMARK  7 active torsions:
REMARK  status: ('A' for Active; 'I' for Inactive)
REMARK    1  A    between atoms: C_3  and  O_4 
REMARK    2  A    between atoms: C_5  and  C_6 
REMARK       I    between atoms: C_6  and  N_7 
REMARK    3  A    between atoms: N_7  and  C_8 
REMARK    4  A    between atoms: C_8  and  C_9 
REMARK    5  A    between atoms: C_9  and  C_10 
REMARK    6  A    between atoms: C_10  and  C_11 
REMARK    7  A    between atoms: C_15  and  C_16 
ROOT
HETATM    1  C   UNL     1      24.960  47.387  50.636  1.00  0.00     0.126 C 
ENDROOT
BRANCH   1   2
HETATM    2  N   UNL     1      25.444  48.176  49.499  1.00  0.00    -0.352 N 
HETATM    3  C   UNL     1      24.666  49.109  48.804  1.00  0.00     0.256 C 
HETATM    4  O   UNL     1      25.156  50.067  48.200  1.00  0.00    -0.267 OA
HETATM    5  C   UNL     1      26.889  48.350  49.415  1.00  0.00     0.152 C 
BRANCH   3   6
HETATM    6  C   UNL     1      23.186  49.028  48.804  1.00  0.00     0.065 A 
HETATM    7  C   UNL     1      22.444  50.067  49.393  1.00  0.00     0.087 A 
HETATM    8  C   UNL     1      21.045  50.026  49.419  1.00  0.00    -0.028 A 
HETATM    9  C   UNL     1      20.254  51.135  50.052  1.00  0.00     0.051 C 
HETATM   10  C   UNL     1      20.391  48.941  48.820  1.00  0.00     0.009 A 
HETATM   11  C   UNL     1      21.119  47.934  48.182  1.00  0.00     0.002 A 
HETATM   12  C   UNL     1      22.514  47.986  48.157  1.00  0.00     0.020 A 
BRANCH   7  13
HETATM   13  O   UNL     1      23.059  51.165  49.944  1.00  0.00    -0.359 OA
HETATM   14  H   UNL     1      23.712  50.836  50.600  1.00  0.00     0.218 HD
ENDBRANCH   7  13
ENDBRANCH   3   6
ENDBRANCH   1   2
BRANCH   1  15
HETATM   15  C   UNL     1      26.092  46.846  51.516  1.00  0.00     0.026 C 
BRANCH  15  16
HETATM   16  C   UNL     1      25.628  46.763  52.970  1.00  0.00     0.060 C 
BRANCH  16  17
HETATM   17  C   UNL     1      26.714  46.613  53.981  1.00  0.00     0.030 A 
HETATM   18  N   UNL     1      27.018  47.519  54.957  1.00  0.00    -0.282 N 
HETATM   19  H   UNL     1      26.580  48.415  55.145  1.00  0.00     0.189 HD
HETATM   20  N   UNL     1      28.028  47.142  55.753  1.00  0.00    -0.174 NA
HETATM   21  C   UNL     1      28.395  45.930  55.301  1.00  0.00     0.089 A 
HETATM   22  C   UNL     1      27.596  45.572  54.181  1.00  0.00     0.060 A 
BRANCH  21  23
HETATM   23  C   UNL     1      29.469  45.156  55.938  1.00  0.00    -0.006 A 
HETATM   24  C   UNL     1      29.975  45.536  57.192  1.00  0.00     0.014 A 
HETATM   25  C   UNL     1      30.992  44.804  57.810  1.00  0.00     0.001 A 
HETATM   26  C   UNL     1      31.519  43.677  57.183  1.00  0.00     0.000 A 
HETATM   27  C   UNL     1      31.028  43.283  55.940  1.00  0.00     0.001 A 
HETATM   28  C   UNL     1      30.011  44.017  55.322  1.00  0.00     0.014 A 
ENDBRANCH  21  23
ENDBRANCH  16  17
ENDBRANCH  15  16
ENDBRANCH   1  15
TORSDOF 7
ENDMDL
MODEL 3
REMARK VINA RESULT:      -8.6      3.780      5.022
REMARK  7 active torsions:
REMARK  status: ('A' for Active; 'I' for Inactive)
REMARK    1  A    between atoms: C_3  and  O_4 
REMARK    2  A    between atoms: C_5  and  C_6 
REMARK       I    between atoms: C_6  and  N_7 
REMARK    3  A    between atoms: N_7  and  C_8 
REMARK    4  A    between atoms: C_8  and  C_9 
REMARK    5  A    between atoms: C_9  and  C_10 
REMARK    6  A    between atoms: C_10  and  C_11 
REMARK    7  A    between atoms: C_15  and  C_16 
ROOT
HETATM    1  C   UNL     1      24.765  47.234  50.689  1.00  0.00     0.126 C 
ENDROOT
BRANCH   1   2
HETATM    2  N   UNL     1      25.324  48.024  49.588  1.00  0.00    -0.352 N 
HETATM    3  C   UNL     1      24.608  48.994  48.876  1.00  0.00     0.256 C 
HETATM    4  O   UNL     1      25.154  49.946  48.312  1.00  0.00    -0.267 OA
HETATM    5  C   UNL     1      26.775  48.153  49.571  1.00  0.00     0.152 C 
BRANCH   3   6
HETATM    6  C   UNL     1      23.127  48.961  48.811  1.00  0.00     0.065 A 
HETATM    7  C   UNL     1      22.393  50.010  49.392  1.00  0.00     0.087 A 
HETATM    8  C   UNL     1      20.993  50.014  49.356  1.00  0.00    -0.028 A 
HETATM    9  C   UNL     1      20.211  51.132  49.982  1.00  0.00     0.051 C 
HETATM   10  C   UNL     1      20.332  48.965  48.702  1.00  0.00     0.009 A 
HETATM   11  C   UNL     1      21.056  47.950  48.072  1.00  0.00     0.002 A 
HETATM   12  C   UNL     1      22.452  47.957  48.109  1.00  0.00     0.020 A 
BRANCH   7  13
HETATM   13  O   UNL     1      23.017  51.074  49.996  1.00  0.00    -0.359 OA
HETATM   14  H   UNL     1      23.154  50.835  50.940  1.00  0.00     0.218 HD
ENDBRANCH   7  13
ENDBRANCH   3   6
ENDBRANCH   1   2
BRANCH   1  15
HETATM   15  C   UNL     1      24.900  45.724  50.472  1.00  0.00     0.026 C 
BRANCH  15  16
HETATM   16  C   UNL     1      24.586  44.979  51.770  1.00  0.00     0.060 C 
BRANCH  16  17
HETATM   17  C   UNL     1      25.765  44.409  52.482  1.00  0.00     0.030 A 
HETATM   18  N   UNL     1      26.219  43.126  52.361  1.00  0.00    -0.282 N 
HETATM   19  H   UNL     1      25.840  42.373  51.796  1.00  0.00     0.189 HD
HETATM   20  N   UNL     1      27.308  42.864  53.096  1.00  0.00    -0.174 NA
HETATM   21  C   UNL     1      27.602  44.022  53.712  1.00  0.00     0.089 A 
HETATM   22  C   UNL     1      26.644  45.011  53.357  1.00  0.00     0.060 A 
BRANCH  21  23
HETATM   23  C   UNL     1      28.765  44.157  54.599  1.00  0.00    -0.006 A 
HETATM   24  C   UNL     1      29.681  43.102  54.740  1.00  0.00     0.014 A 
HETATM   25  C   UNL     1      30.795  43.221  55.575  1.00  0.00     0.001 A 
HETATM   26  C   UNL     1      31.011  44.401  56.283  1.00  0.00     0.000 A 
HETATM   27  C   UNL     1      30.114  45.460  56.155  1.00  0.00     0.001 A 
HETATM   28  C   UNL     1      28.999  45.339  55.319  1.00  0.00     0.014 A 
ENDBRANCH  21  23
ENDBRANCH  16  17
ENDBRANCH  15  16
ENDBRANCH   1  15
TORSDOF 7
ENDMDL
MODEL 4
REMARK VINA RESULT:      -8.5     12.991     14.387
REMARK  7 active torsions:
REMARK  status: ('A' for Active; 'I' for Inactive)
REMARK    1  A    between atoms: C_3  and  O_4 
REMARK    2  A    between atoms: C_5  and  C_6 
REMARK       I    between atoms: C_6  and  N_7 
REMARK    3  A    between atoms: N_7  and  C_8 
REMARK    4  A    between atoms: C_8  and  C_9 
REMARK    5  A    between atoms: C_9  and  C_10 
REMARK    6  A    between atoms: C_10  and  C_11 
REMARK    7  A    between atoms: C_15  and  C_16 
ROOT
HETATM    1  C   UNL     1      27.764  49.686  41.071  1.00  0.00     0.126 C 
ENDROOT
BRANCH   1   2
HETATM    2  N   UNL     1      27.239  50.330  39.863  1.00  0.00    -0.352 N 
HETATM    3  C   UNL     1      28.007  51.116  38.997  1.00  0.00     0.256 C 
HETATM    4  O   UNL     1      27.730  51.258  37.802  1.00  0.00    -0.267 OA
HETATM    5  C   UNL     1      26.035  49.734  39.297  1.00  0.00     0.152 C 
BRANCH   3   6
HETATM    6  C   UNL     1      29.247  51.784  39.461  1.00  0.00     0.065 A 
HETATM    7  C   UNL     1      30.483  51.378  38.929  1.00  0.00     0.087 A 
HETATM    8  C   UNL     1      31.677  51.979  39.345  1.00  0.00    -0.028 A 
HETATM    9  C   UNL     1      32.998  51.540  38.780  1.00  0.00     0.051 C 
HETATM   10  C   UNL     1      31.618  53.019  40.283  1.00  0.00     0.009 A 
HETATM   11  C   UNL     1      30.388  53.467  40.772  1.00  0.00     0.002 A 
HETATM   12  C   UNL     1      29.203  52.865  40.348  1.00  0.00     0.020 A 
BRANCH   7  13
HETATM   13  O   UNL     1      30.565  50.395  37.974  1.00  0.00    -0.359 OA
HETATM   14  H   UNL     1      29.934  49.685  38.228  1.00  0.00     0.218 HD
ENDBRANCH   7  13
ENDBRANCH   3   6
ENDBRANCH   1   2
BRANCH   1  15
HETATM   15  C   UNL     1      27.566  48.167  41.075  1.00  0.00     0.026 C 
BRANCH  15  16
HETATM   16  C   UNL     1      28.810  47.477  40.515  1.00  0.00     0.060 C 
BRANCH  16  17
HETATM   17  C   UNL     1      30.109  48.125  40.854  1.00  0.00     0.030 A 
HETATM   18  N   UNL     1      31.278  47.965  40.164  1.00  0.00    -0.282 N 
HETATM   19  H   UNL     1      31.453  47.394  39.344  1.00  0.00     0.189 HD
HETATM   20  N   UNL     1      32.303  48.670  40.662  1.00  0.00    -0.174 NA
HETATM   21  C   UNL     1      31.791  49.341  41.708  1.00  0.00     0.089 A 
HETATM   22  C   UNL     1      30.416  49.012  41.864  1.00  0.00     0.060 A 
BRANCH  21  23
HETATM   23  C   UNL     1      32.604  50.263  42.513  1.00  0.00    -0.006 A 
HETATM   24  C   UNL     1      33.942  50.516  42.173  1.00  0.00     0.014 A 
HETATM   25  C   UNL     1      34.722  51.397  42.928  1.00  0.00     0.001 A 
HETATM   26  C   UNL     1      34.174  52.039  44.036  1.00  0.00     0.000 A 
HETATM   27  C   UNL     1      32.847  51.801  44.387  1.00  0.00     0.001 A 
HETATM   28  C   UNL     1      32.067  50.920  43.632  1.00  0.00     0.014 A 
ENDBRANCH  21  23
ENDBRANCH  16  17
ENDBRANCH  15  16
ENDBRANCH   1  15
TORSDOF 7
ENDMDL
MODEL 5
REMARK VINA RESULT:      -8.4      2.339      4.196
REMARK  7 active torsions:
REMARK  status: ('A' for Active; 'I' for Inactive)
REMARK    1  A    between atoms: C_3  and  O_4 
REMARK    2  A    between atoms: C_5  and  C_6 
REMARK       I    between atoms: C_6  and  N_7 
REMARK    3  A    between atoms: N_7  and  C_8 
REMARK    4  A    between atoms: C_8  and  C_9 
REMARK    5  A    between atoms: C_9  and  C_10 
REMARK    6  A    between atoms: C_10  and  C_11 
REMARK    7  A    between atoms: C_15  and  C_16 
ROOT
HETATM    1  C   UNL     1      26.055  47.060  51.907  1.00  0.00     0.126 C 
ENDROOT
BRANCH   1   2
HETATM    2  N   UNL     1      25.228  46.102  51.168  1.00  0.00    -0.352 N 
HETATM    3  C   UNL     1      24.925  44.813  51.623  1.00  0.00     0.256 C 
HETATM    4  O   UNL     1      23.907  44.206  51.278  1.00  0.00    -0.267 OA
HETATM    5  C   UNL     1      24.307  46.675  50.195  1.00  0.00     0.152 C 
BRANCH   3   6
HETATM    6  C   UNL     1      25.794  44.121  52.606  1.00  0.00     0.065 A 
HETATM    7  C   UNL     1      27.000  43.548  52.168  1.00  0.00     0.087 A 
HETATM    8  C   UNL     1      27.846  42.882  53.063  1.00  0.00    -0.028 A 
HETATM    9  C   UNL     1      29.132  42.265  52.593  1.00  0.00     0.051 C 
HETATM   10  C   UNL     1      27.483  42.820  54.415  1.00  0.00     0.009 A 
HETATM   11  C   UNL     1      26.315  43.438  54.868  1.00  0.00     0.002 A 
HETATM   12  C   UNL     1      25.480  44.104  53.968  1.00  0.00     0.020 A 
BRANCH   7  13
HETATM   13  O   UNL     1      27.403  43.636  50.858  1.00  0.00    -0.359 OA
HETATM   14  H   UNL     1      27.766  42.758  50.604  1.00  0.00     0.218 HD
ENDBRANCH   7  13
ENDBRANCH   3   6
ENDBRANCH   1   2
BRANCH   1  15
HETATM   15  C   UNL     1      25.545  47.323  53.327  1.00  0.00     0.026 C 
BRANCH  15  16
HETATM   16  C   UNL     1      26.555  48.177  54.095  1.00  0.00     0.060 C 
BRANCH  16  17
HETATM   17  C   UNL     1      27.391  47.443  55.087  1.00  0.00     0.030 A 
HETATM   18  N   UNL     1      27.232  47.487  56.444  1.00  0.00    -0.282 N 
HETATM   19  H   UNL     1      26.552  48.013  56.982  1.00  0.00     0.189 HD
HETATM   20  N   UNL     1      28.102  46.723  57.117  1.00  0.00    -0.174 NA
HETATM   21  C   UNL     1      28.854  46.133  56.172  1.00  0.00     0.089 A 
HETATM   22  C   UNL     1      28.441  46.572  54.885  1.00  0.00     0.060 A 
BRANCH  21  23
HETATM   23  C   UNL     1      29.920  45.180  56.511  1.00  0.00    -0.006 A 
HETATM   24  C   UNL     1      30.563  45.242  57.757  1.00  0.00     0.014 A 
HETATM   25  C   UNL     1      31.574  44.337  58.092  1.00  0.00     0.001 A 
HETATM   26  C   UNL     1      31.956  43.353  57.184  1.00  0.00     0.000 A 
HETATM   27  C   UNL     1      31.328  43.273  55.943  1.00  0.00     0.001 A 
HETATM   28  C   UNL     1      30.318  44.180  55.608  1.00  0.00     0.014 A 
ENDBRANCH  21  23
ENDBRANCH  16  17
ENDBRANCH  15  16
ENDBRANCH   1  15
TORSDOF 7
ENDMDL
MODEL 6
REMARK VINA RESULT:      -8.4      4.290      8.723
REMARK  7 active torsions:
REMARK  status: ('A' for Active; 'I' for Inactive)
REMARK    1  A    between atoms: C_3  and  O_4 
REMARK    2  A    between atoms: C_5  and  C_6 
REMARK       I    between atoms: C_6  and  N_7 
REMARK    3  A    between atoms: N_7  and  C_8 
REMARK    4  A    between atoms: C_8  and  C_9 
REMARK    5  A    between atoms: C_9  and  C_10 
REMARK    6  A    between atoms: C_10  and  C_11 
REMARK    7  A    between atoms: C_15  and  C_16 
ROOT
HETATM    1  C   UNL     1      26.436  45.820  51.072  1.00  0.00     0.126 C 
ENDROOT
BRANCH   1   2
HETATM    2  N   UNL     1      25.562  44.919  51.829  1.00  0.00    -0.352 N 
HETATM    3  C   UNL     1      25.625  44.749  53.217  1.00  0.00     0.256 C 
HETATM    4  O   UNL     1      24.654  44.394  53.890  1.00  0.00    -0.267 OA
HETATM    5  C   UNL     1      24.294  44.581  51.195  1.00  0.00     0.152 C 
BRANCH   3   6
HETATM    6  C   UNL     1      26.866  45.048  53.973  1.00  0.00     0.065 A 
HETATM    7  C   UNL     1      27.869  44.066  54.058  1.00  0.00     0.087 A 
HETATM    8  C   UNL     1      29.052  44.308  54.766  1.00  0.00    -0.028 A 
HETATM    9  C   UNL     1      30.121  43.256  54.860  1.00  0.00     0.051 C 
HETATM   10  C   UNL     1      29.235  45.561  55.366  1.00  0.00     0.009 A 
HETATM   11  C   UNL     1      28.269  46.561  55.237  1.00  0.00     0.002 A 
HETATM   12  C   UNL     1      27.094  46.312  54.525  1.00  0.00     0.020 A 
BRANCH   7  13
HETATM   13  O   UNL     1      27.736  42.848  53.437  1.00  0.00    -0.359 OA
HETATM   14  H   UNL     1      26.898  42.446  53.759  1.00  0.00     0.218 HD
ENDBRANCH   7  13
ENDBRANCH   3   6
ENDBRANCH   1   2
BRANCH   1  15
HETATM   15  C   UNL     1      25.920  47.261  51.030  1.00  0.00     0.026 C 
BRANCH  15  16
HETATM   16  C   UNL     1      26.316  47.920  49.708  1.00  0.00     0.060 C 
BRANCH  16  17
HETATM   17  C   UNL     1      25.255  48.740  49.058  1.00  0.00     0.030 A 
HETATM   18  N   UNL     1      25.457  49.646  48.055  1.00  0.00    -0.282 N 
HETATM   19  H   UNL     1      26.330  49.909  47.609  1.00  0.00     0.189 HD
HETATM   20  N   UNL     1      24.336  50.244  47.629  1.00  0.00    -0.174 NA
HETATM   21  C   UNL     1      23.349  49.699  48.361  1.00  0.00     0.089 A 
HETATM   22  C   UNL     1      23.894  48.758  49.278  1.00  0.00     0.060 A 
BRANCH  21  23
HETATM   23  C   UNL     1      21.942  50.075  48.170  1.00  0.00    -0.006 A 
HETATM   24  C   UNL     1      21.466  51.314  48.628  1.00  0.00     0.014 A 
HETATM   25  C   UNL     1      20.131  51.685  48.445  1.00  0.00     0.001 A 
HETATM   26  C   UNL     1      19.250  50.821  47.799  1.00  0.00     0.000 A 
HETATM   27  C   UNL     1      19.705  49.588  47.335  1.00  0.00     0.001 A 
HETATM   28  C   UNL     1      21.041  49.217  47.519  1.00  0.00     0.014 A 
ENDBRANCH  21  23
ENDBRANCH  16  17
ENDBRANCH  15  16
ENDBRANCH   1  15
TORSDOF 7
ENDMDL
MODEL 7
REMARK VINA RESULT:      -8.3      1.439      2.279
REMARK  7 active torsions:
REMARK  status: ('A' for Active; 'I' for Inactive)
REMARK    1  A    between atoms: C_3  and  O_4 
REMARK    2  A    between atoms: C_5  and  C_6 
REMARK       I    between atoms: C_6  and  N_7 
REMARK    3  A    between atoms: N_7  and  C_8 
REMARK    4  A    between atoms: C_8  and  C_9 
REMARK    5  A    between atoms: C_9  and  C_10 
REMARK    6  A    between atoms: C_10  and  C_11 
REMARK    7  A    between atoms: C_15  and  C_16 
ROOT
HETATM    1  C   UNL     1      25.406  42.137  49.073  1.00  0.00     0.126 C 
ENDROOT
BRANCH   1   2
HETATM    2  N   UNL     1      24.006  42.361  49.446  1.00  0.00    -0.352 N 
HETATM    3  C   UNL     1      23.540  43.511  50.094  1.00  0.00     0.256 C 
HETATM    4  O   UNL     1      22.377  43.910  49.990  1.00  0.00    -0.267 OA
HETATM    5  C   UNL     1      23.018  41.603  48.688  1.00  0.00     0.152 C 
BRANCH   3   6
HETATM    6  C   UNL     1      24.449  44.357  50.905  1.00  0.00     0.065 A 
HETATM    7  C   UNL     1      24.880  45.590  50.387  1.00  0.00     0.087 A 
HETATM    8  C   UNL     1      25.741  46.416  51.119  1.00  0.00    -0.028 A 
HETATM    9  C   UNL     1      26.205  47.731  50.561  1.00  0.00     0.051 C 
HETATM   10  C   UNL     1      26.147  46.004  52.396  1.00  0.00     0.009 A 
HETATM   11  C   UNL     1      25.676  44.808  52.941  1.00  0.00     0.002 A 
HETATM   12  C   UNL     1      24.813  43.993  52.206  1.00  0.00     0.020 A 
BRANCH   7  13
HETATM   13  O   UNL     1      24.459  46.039  49.159  1.00  0.00    -0.359 OA
HETATM   14  H   UNL     1      24.790  45.403  48.486  1.00  0.00     0.218 HD
ENDBRANCH   7  13
ENDBRANCH   3   6
ENDBRANCH   1   2
BRANCH   1  15
HETATM   15  C   UNL     1      26.057  40.989  49.850  1.00  0.00     0.026 C 
BRANCH  15  16
HETATM   16  C   UNL     1      27.520  41.321  50.145  1.00  0.00     0.060 C 
BRANCH  16  17
HETATM   17  C   UNL     1      27.819  41.707  51.553  1.00  0.00     0.030 A 
HETATM   18  N   UNL     1      27.391  41.039  52.665  1.00  0.00    -0.282 N 
HETATM   19  H   UNL     1      26.813  40.207  52.717  1.00  0.00     0.189 HD
HETATM   20  N   UNL     1      27.810  41.579  53.818  1.00  0.00    -0.174 NA
HETATM   21  C   UNL     1      28.562  42.633  53.457  1.00  0.00     0.089 A 
HETATM   22  C   UNL     1      28.580  42.749  52.040  1.00  0.00     0.060 A 
BRANCH  21  23
HETATM   23  C   UNL     1      29.236  43.482  54.449  1.00  0.00    -0.006 A 
HETATM   24  C   UNL     1      30.394  43.032  55.104  1.00  0.00     0.014 A 
HETATM   25  C   UNL     1      31.047  43.834  56.044  1.00  0.00     0.001 A 
HETATM   26  C   UNL     1      30.552  45.101  56.343  1.00  0.00     0.000 A 
HETATM   27  C   UNL     1      29.405  45.565  55.702  1.00  0.00     0.001 A 
HETATM   28  C   UNL     1      28.752  44.762  54.762  1.00  0.00     0.014 A 
ENDBRANCH  21  23
ENDBRANCH  16  17
ENDBRANCH  15  16
ENDBRANCH   1  15
TORSDOF 7
ENDMDL
MODEL 8
REMARK VINA RESULT:      -8.3      4.147      8.585
REMARK  7 active torsions:
REMARK  status: ('A' for Active; 'I' for Inactive)
REMARK    1  A    between atoms: C_3  and  O_4 
REMARK    2  A    between atoms: C_5  and  C_6 
REMARK       I    between atoms: C_6  and  N_7 
REMARK    3  A    between atoms: N_7  and  C_8 
REMARK    4  A    between atoms: C_8  and  C_9 
REMARK    5  A    between atoms: C_9  and  C_10 
REMARK    6  A    between atoms: C_10  and  C_11 
REMARK    7  A    between atoms: C_15  and  C_16 
ROOT
HETATM    1  C   UNL     1      26.511  45.657  50.837  1.00  0.00     0.126 C 
ENDROOT
BRANCH   1   2
HETATM    2  N   UNL     1      25.508  44.829  51.513  1.00  0.00    -0.352 N 
HETATM    3  C   UNL     1      25.634  44.359  52.826  1.00  0.00     0.256 C 
HETATM    4  O   UNL     1      24.660  44.090  53.534  1.00  0.00    -0.267 OA
HETATM    5  C   UNL     1      24.152  44.918  50.987  1.00  0.00     0.152 C 
BRANCH   3   6
HETATM    6  C   UNL     1      26.964  44.214  53.466  1.00  0.00     0.065 A 
HETATM    7  C   UNL     1      27.388  45.185  54.390  1.00  0.00     0.087 A 
HETATM    8  C   UNL     1      28.638  45.087  55.013  1.00  0.00    -0.028 A 
HETATM    9  C   UNL     1      29.091  46.127  55.997  1.00  0.00     0.051 C 
HETATM   10  C   UNL     1      29.453  43.985  54.719  1.00  0.00     0.009 A 
HETATM   11  C   UNL     1      29.014  42.987  53.846  1.00  0.00     0.002 A 
HETATM   12  C   UNL     1      27.763  43.090  53.234  1.00  0.00     0.020 A 
BRANCH   7  13
HETATM   13  O   UNL     1      26.589  46.248  54.732  1.00  0.00    -0.359 OA
HETATM   14  H   UNL     1      25.926  46.359  54.014  1.00  0.00     0.218 HD
ENDBRANCH   7  13
ENDBRANCH   3   6
ENDBRANCH   1   2
BRANCH   1  15
HETATM   15  C   UNL     1      26.250  47.159  50.989  1.00  0.00     0.026 C 
BRANCH  15  16
HETATM   16  C   UNL     1      26.649  47.891  49.707  1.00  0.00     0.060 C 
BRANCH  16  17
HETATM   17  C   UNL     1      25.570  48.695  49.066  1.00  0.00     0.030 A 
HETATM   18  N   UNL     1      25.752  49.612  48.069  1.00  0.00    -0.282 N 
HETATM   19  H   UNL     1      26.618  49.895  47.623  1.00  0.00     0.189 HD
HETATM   20  N   UNL     1      24.618  50.190  47.650  1.00  0.00    -0.174 NA
HETATM   21  C   UNL     1      23.644  49.620  48.381  1.00  0.00     0.089 A 
HETATM   22  C   UNL     1      24.209  48.684  49.289  1.00  0.00     0.060 A 
BRANCH  21  23
HETATM   23  C   UNL     1      22.229  49.970  48.196  1.00  0.00    -0.006 A 
HETATM   24  C   UNL     1      21.335  49.048  47.629  1.00  0.00     0.014 A 
HETATM   25  C   UNL     1      19.985  49.368  47.454  1.00  0.00     0.001 A 
HETATM   26  C   UNL     1      19.509  50.616  47.848  1.00  0.00     0.000 A 
HETATM   27  C   UNL     1      20.380  51.543  48.415  1.00  0.00     0.001 A 
HETATM   28  C   UNL     1      21.731  51.223  48.588  1.00  0.00     0.014 A 
ENDBRANCH  21  23
ENDBRANCH  16  17
ENDBRANCH  15  16
ENDBRANCH   1  15
TORSDOF 7
ENDMDL
MODEL 9
REMARK VINA RESULT:      -8.1      3.667      8.363
REMARK  7 active torsions:
REMARK  status: ('A' for Active; 'I' for Inactive)
REMARK    1  A    between atoms: C_3  and  O_4 
REMARK    2  A    between atoms: C_5  and  C_6 
REMARK       I    between atoms: C_6  and  N_7 
REMARK    3  A    between atoms: N_7  and  C_8 
REMARK    4  A    between atoms: C_8  and  C_9 
REMARK    5  A    between atoms: C_9  and  C_10 
REMARK    6  A    between atoms: C_10  and  C_11 
REMARK    7  A    between atoms: C_15  and  C_16 
ROOT
HETATM    1  C   UNL     1      26.190  44.927  53.956  1.00  0.00     0.126 C 
ENDROOT
BRANCH   1   2
HETATM    2  N   UNL     1      26.743  46.137  54.571  1.00  0.00    -0.352 N 
HETATM    3  C   UNL     1      28.106  46.337  54.821  1.00  0.00     0.256 C 
HETATM    4  O   UNL     1      28.614  47.460  54.885  1.00  0.00    -0.267 OA
HETATM    5  C   UNL     1      25.924  47.338  54.460  1.00  0.00     0.152 C 
BRANCH   3   6
HETATM    6  C   UNL     1      29.037  45.193  54.966  1.00  0.00     0.065 A 
HETATM    7  C   UNL     1      29.832  45.099  56.122  1.00  0.00     0.087 A 
HETATM    8  C   UNL     1      30.727  44.036  56.294  1.00  0.00    -0.028 A 
HETATM    9  C   UNL     1      31.579  43.941  57.527  1.00  0.00     0.051 C 
HETATM   10  C   UNL     1      30.797  43.047  55.305  1.00  0.00     0.009 A 
HETATM   11  C   UNL     1      29.969  43.102  54.182  1.00  0.00     0.002 A 
HETATM   12  C   UNL     1      29.075  44.163  54.021  1.00  0.00     0.020 A 
BRANCH   7  13
HETATM   13  O   UNL     1      29.747  46.029  57.129  1.00  0.00    -0.359 OA
HETATM   14  H   UNL     1      29.173  45.649  57.831  1.00  0.00     0.218 HD
ENDBRANCH   7  13
ENDBRANCH   3   6
ENDBRANCH   1   2
BRANCH   1  15
HETATM   15  C   UNL     1      25.359  45.218  52.702  1.00  0.00     0.026 C 
BRANCH  15  16
HETATM   16  C   UNL     1      26.273  45.676  51.565  1.00  0.00     0.060 C 
BRANCH  16  17
HETATM   17  C   UNL     1      25.761  46.815  50.751  1.00  0.00     0.030 A 
HETATM   18  N   UNL     1      26.533  47.758  50.134  1.00  0.00    -0.282 N 
HETATM   19  H   UNL     1      27.544  47.844  50.135  1.00  0.00     0.189 HD
HETATM   20  N   UNL     1      25.832  48.670  49.447  1.00  0.00    -0.174 NA
HETATM   21  C   UNL     1      24.546  48.306  49.594  1.00  0.00     0.089 A 
HETATM   22  C   UNL     1      24.465  47.150  50.418  1.00  0.00     0.060 A 
BRANCH  21  23
HETATM   23  C   UNL     1      23.451  49.048  48.956  1.00  0.00    -0.006 A 
HETATM   24  C   UNL     1      22.296  48.380  48.519  1.00  0.00     0.014 A 
HETATM   25  C   UNL     1      21.245  49.077  47.917  1.00  0.00     0.001 A 
HETATM   26  C   UNL     1      21.333  50.457  47.743  1.00  0.00     0.000 A 
HETATM   27  C   UNL     1      22.471  51.137  48.172  1.00  0.00     0.001 A 
HETATM   28  C   UNL     1      23.522  50.439  48.774  1.00  0.00     0.014 A 
ENDBRANCH  21  23
ENDBRANCH  16  17
ENDBRANCH  15  16
ENDBRANCH   1  15
TORSDOF 7
ENDMDL
MODEL 10
REMARK VINA RESULT:      -8.0     13.034     14.258
REMARK  7 active torsions:
REMARK  status: ('A' for Active; 'I' for Inactive)
REMARK    1  A    between atoms: C_3  and  O_4 
REMARK    2  A    between atoms: C_5  and  C_6 
REMARK       I    between atoms: C_6  and  N_7 
REMARK    3  A    between atoms: N_7  and  C_8 
REMARK    4  A    between atoms: C_8  and  C_9 
REMARK    5  A    between atoms: C_9  and  C_10 
REMARK    6  A    between atoms: C_10  and  C_11 
REMARK    7  A    between atoms: C_15  and  C_16 
ROOT
HETATM    1  C   UNL     1      27.784  47.397  38.426  1.00  0.00     0.126 C 
ENDROOT
BRANCH   1   2
HETATM    2  N   UNL     1      26.499  47.652  39.084  1.00  0.00    -0.352 N 
HETATM    3  C   UNL     1      26.087  48.910  39.539  1.00  0.00     0.256 C 
HETATM    4  O   UNL     1      24.898  49.224  39.648  1.00  0.00    -0.267 OA
HETATM    5  C   UNL     1      25.441  46.688  38.810  1.00  0.00     0.152 C 
BRANCH   3   6
HETATM    6  C   UNL     1      27.072  49.970  39.863  1.00  0.00     0.065 A 
HETATM    7  C   UNL     1      27.431  50.897  38.869  1.00  0.00     0.087 A 
HETATM    8  C   UNL     1      28.361  51.910  39.134  1.00  0.00    -0.028 A 
HETATM    9  C   UNL     1      28.748  52.896  38.069  1.00  0.00     0.051 C 
HETATM   10  C   UNL     1      28.909  52.004  40.420  1.00  0.00     0.009 A 
HETATM   11  C   UNL     1      28.513  51.122  41.429  1.00  0.00     0.002 A 
HETATM   12  C   UNL     1      27.581  50.119  41.157  1.00  0.00     0.020 A 
BRANCH   7  13
HETATM   13  O   UNL     1      26.873  50.858  37.615  1.00  0.00    -0.359 OA
HETATM   14  H   UNL     1      27.224  50.058  37.164  1.00  0.00     0.218 HD
ENDBRANCH   7  13
ENDBRANCH   3   6
ENDBRANCH   1   2
BRANCH   1  15
HETATM   15  C   UNL     1      28.934  47.194  39.417  1.00  0.00     0.026 C 
BRANCH  15  16
HETATM   16  C   UNL     1      30.264  47.553  38.752  1.00  0.00     0.060 C 
BRANCH  16  17
HETATM   17  C   UNL     1      31.037  48.642  39.414  1.00  0.00     0.030 A 
HETATM   18  N   UNL     1      31.570  49.730  38.783  1.00  0.00    -0.282 N 
HETATM   19  H   UNL     1      31.539  49.966  37.796  1.00  0.00     0.189 HD
HETATM   20  N   UNL     1      32.207  50.576  39.604  1.00  0.00    -0.174 NA
HETATM   21  C   UNL     1      32.074  50.040  40.830  1.00  0.00     0.089 A 
HETATM   22  C   UNL     1      31.353  48.817  40.745  1.00  0.00     0.060 A 
BRANCH  21  23
HETATM   23  C   UNL     1      32.619  50.695  42.027  1.00  0.00    -0.006 A 
HETATM   24  C   UNL     1      33.982  51.024  42.102  1.00  0.00     0.014 A 
HETATM   25  C   UNL     1      34.510  51.653  43.233  1.00  0.00     0.001 A 
HETATM   26  C   UNL     1      33.680  51.963  44.308  1.00  0.00     0.000 A 
HETATM   27  C   UNL     1      32.324  51.646  44.251  1.00  0.00     0.001 A 
HETATM   28  C   UNL     1      31.797  51.016  43.119  1.00  0.00     0.014 A 
ENDBRANCH  21  23
ENDBRANCH  16  17
ENDBRANCH  15  16
ENDBRANCH   1  15
TORSDOF 7
ENDMDL
