MODEL 1
REMARK VINA RESULT:      -9.8      0.000      0.000
REMARK  4 active torsions:
REMARK  status: ('A' for Active; 'I' for Inactive)
REMARK    1  A    between atoms: C_7  and  C_8 
REMARK    2  A    between atoms: C_8  and  N_9 
REMARK    3  A    between atoms: N_15  and  C_17 
REMARK    4  A    between atoms: C_17  and  C_18 
ROOT
HETATM    1  N   UNL     1      25.725  47.161  50.196  1.00  0.00    -0.067 N 
HETATM    2  H   UNL     1      26.316  47.646  49.506  1.00  0.00     0.280 HD
HETATM    3  C   UNL     1      26.428  47.341  51.516  1.00  0.00     0.236 C 
HETATM    4  C   UNL     1      25.795  46.464  52.594  1.00  0.00     0.039 C 
HETATM    5  C   UNL     1      25.734  44.956  52.225  1.00  0.00    -0.013 C 
HETATM    6  C   UNL     1      27.133  44.285  52.201  1.00  0.00     0.244 C 
HETATM    7  N   UNL     1      27.736  44.242  53.579  1.00  0.00    -0.065 N 
HETATM    8  H   UNL     1      27.840  45.209  53.931  1.00  0.00     0.280 HD
HETATM    9  C   UNL     1      26.912  43.461  54.561  1.00  0.00     0.235 C 
HETATM   10  C   UNL     1      25.517  44.068  54.633  1.00  0.00     0.029 C 
HETATM   11  C   UNL     1      24.864  44.189  53.256  1.00  0.00     0.013 C 
HETATM   12  C   UNL     1      25.062  44.835  50.828  1.00  0.00     0.039 C 
HETATM   13  C   UNL     1      25.677  45.726  49.749  1.00  0.00     0.236 C 
ENDROOT
BRANCH   7  14
HETATM   14  C   UNL     1      29.202  43.800  53.556  1.00  0.00     0.293 C 
BRANCH  14  15
HETATM   15  C   UNL     1      29.864  44.068  54.893  1.00  0.00     0.060 A 
HETATM   16  N   UNL     1      29.566  45.269  55.482  1.00  0.00    -0.264 NA
HETATM   17  C   UNL     1      30.094  45.483  56.714  1.00  0.00     0.117 A 
HETATM   18  C   UNL     1      30.932  44.592  57.361  1.00  0.00     0.019 A 
HETATM   19  C   UNL     1      31.237  43.393  56.727  1.00  0.00     0.003 A 
HETATM   20  C   UNL     1      30.689  43.115  55.479  1.00  0.00     0.029 A 
ENDBRANCH  14  15
ENDBRANCH   7  14
BRANCH   1  21
HETATM   21  C   UNL     1      24.386  47.884  50.061  1.00  0.00     0.278 C 
BRANCH  21  22
HETATM   22  C   UNL     1      24.331  48.834  48.929  1.00  0.00     0.025 A 
HETATM   23  C   UNL     1      23.193  49.198  48.151  1.00  0.00     0.068 A 
HETATM   24  C   UNL     1      21.797  48.703  48.234  1.00  0.00     0.073 C 
HETATM   25  N   UNL     1      23.502  50.138  47.258  1.00  0.00    -0.133 NA
HETATM   26  O   UNL     1      24.855  50.355  47.376  1.00  0.00    -0.217 OA
HETATM   27  C   UNL     1      25.357  49.565  48.359  1.00  0.00     0.085 A 
HETATM   28  C   UNL     1      26.812  49.683  48.583  1.00  0.00     0.079 C 
ENDBRANCH  21  22
ENDBRANCH   1  21
TORSDOF 4
ENDMDL
MODEL 2
REMARK VINA RESULT:      -8.6      3.472      5.580
REMARK  4 active torsions:
REMARK  status: ('A' for Active; 'I' for Inactive)
REMARK    1  A    between atoms: C_7  and  C_8 
REMARK    2  A    between atoms: C_8  and  N_9 
REMARK    3  A    between atoms: N_15  and  C_17 
REMARK    4  A    between atoms: C_17  and  C_18 
ROOT
HETATM    1  N   UNL     1      25.283  46.221  50.175  1.00  0.00    -0.067 N 
HETATM    2  H   UNL     1      24.517  46.336  49.497  1.00  0.00     0.280 HD
HETATM    3  C   UNL     1      26.291  45.337  49.488  1.00  0.00     0.236 C 
HETATM    4  C   UNL     1      27.369  44.878  50.467  1.00  0.00     0.039 C 
HETATM    5  C   UNL     1      26.812  44.167  51.732  1.00  0.00    -0.013 C 
HETATM    6  C   UNL     1      26.203  42.775  51.421  1.00  0.00     0.244 C 
HETATM    7  N   UNL     1      27.263  41.810  50.966  1.00  0.00    -0.065 N 
HETATM    8  H   UNL     1      27.705  42.176  50.105  1.00  0.00     0.280 HD
HETATM    9  C   UNL     1      28.334  41.580  51.993  1.00  0.00     0.235 C 
HETATM   10  C   UNL     1      28.977  42.914  52.348  1.00  0.00     0.029 C 
HETATM   11  C   UNL     1      27.946  43.962  52.772  1.00  0.00     0.013 C 
HETATM   12  C   UNL     1      25.731  45.093  52.360  1.00  0.00     0.039 C 
HETATM   13  C   UNL     1      24.661  45.573  51.381  1.00  0.00     0.236 C 
ENDROOT
BRANCH   7  14
HETATM   14  C   UNL     1      26.667  40.504  50.433  1.00  0.00     0.293 C 
BRANCH  14  15
HETATM   15  C   UNL     1      27.173  40.215  49.034  1.00  0.00     0.060 A 
HETATM   16  N   UNL     1      27.328  38.893  48.710  1.00  0.00    -0.264 NA
HETATM   17  C   UNL     1      27.707  38.625  47.434  1.00  0.00     0.117 A 
HETATM   18  C   UNL     1      27.982  39.599  46.490  1.00  0.00     0.019 A 
HETATM   19  C   UNL     1      27.841  40.933  46.855  1.00  0.00     0.003 A 
HETATM   20  C   UNL     1      27.420  41.253  48.141  1.00  0.00     0.029 A 
ENDBRANCH  14  15
ENDBRANCH   7  14
BRANCH   1  21
HETATM   21  C   UNL     1      25.734  47.660  50.424  1.00  0.00     0.278 C 
BRANCH  21  22
HETATM   22  C   UNL     1      25.446  48.578  49.299  1.00  0.00     0.025 A 
HETATM   23  C   UNL     1      26.359  49.438  48.622  1.00  0.00     0.068 A 
HETATM   24  C   UNL     1      27.801  49.674  48.880  1.00  0.00     0.073 C 
HETATM   25  N   UNL     1      25.763  50.069  47.610  1.00  0.00    -0.133 NA
HETATM   26  O   UNL     1      24.440  49.700  47.648  1.00  0.00    -0.217 OA
HETATM   27  C   UNL     1      24.241  48.825  48.667  1.00  0.00     0.085 A 
HETATM   28  C   UNL     1      22.851  48.356  48.836  1.00  0.00     0.079 C 
ENDBRANCH  21  22
ENDBRANCH   1  21
TORSDOF 4
ENDMDL
MODEL 3
REMARK VINA RESULT:      -8.2      3.304      8.352
REMARK  4 active torsions:
REMARK  status: ('A' for Active; 'I' for Inactive)
REMARK    1  A    between atoms: C_7  and  C_8 
REMARK    2  A    between atoms: C_8  and  N_9 
REMARK    3  A    between atoms: N_15  and  C_17 
REMARK    4  A    between atoms: C_17  and  C_18 
ROOT
HETATM    1  N   UNL     1      28.586  43.785  54.093  1.00  0.00    -0.067 N 
HETATM    2  H   UNL     1      28.266  44.639  54.572  1.00  0.00     0.280 HD
HETATM    3  C   UNL     1      28.714  44.170  52.643  1.00  0.00     0.236 C 
HETATM    4  C   UNL     1      28.943  42.937  51.771  1.00  0.00     0.039 C 
HETATM    5  C   UNL     1      27.858  41.837  51.936  1.00  0.00    -0.013 C 
HETATM    6  C   UNL     1      26.483  42.255  51.353  1.00  0.00     0.244 C 
HETATM    7  N   UNL     1      26.552  42.400  49.857  1.00  0.00    -0.065 N 
HETATM    8  H   UNL     1      27.246  43.129  49.621  1.00  0.00     0.280 HD
HETATM    9  C   UNL     1      26.936  41.128  49.157  1.00  0.00     0.235 C 
HETATM   10  C   UNL     1      28.284  40.658  49.686  1.00  0.00     0.029 C 
HETATM   11  C   UNL     1      28.300  40.538  51.211  1.00  0.00     0.013 C 
HETATM   12  C   UNL     1      27.721  41.529  53.455  1.00  0.00     0.039 C 
HETATM   13  C   UNL     1      27.513  42.761  54.335  1.00  0.00     0.236 C 
ENDROOT
BRANCH   7  14
HETATM   14  C   UNL     1      25.283  43.032  49.278  1.00  0.00     0.293 C 
BRANCH  14  15
HETATM   15  C   UNL     1      25.304  44.537  49.456  1.00  0.00     0.060 A 
HETATM   16  N   UNL     1      24.082  45.154  49.515  1.00  0.00    -0.264 NA
HETATM   17  C   UNL     1      24.092  46.490  49.751  1.00  0.00     0.117 A 
HETATM   18  C   UNL     1      25.246  47.242  49.882  1.00  0.00     0.019 A 
HETATM   19  C   UNL     1      26.472  46.593  49.792  1.00  0.00     0.003 A 
HETATM   20  C   UNL     1      26.509  45.218  49.587  1.00  0.00     0.029 A 
ENDBRANCH  14  15
ENDBRANCH   7  14
BRANCH   1  21
HETATM   21  C   UNL     1      29.899  43.469  54.807  1.00  0.00     0.278 C 
BRANCH  21  22
HETATM   22  C   UNL     1      30.176  44.347  55.965  1.00  0.00     0.025 A 
HETATM   23  C   UNL     1      31.101  44.124  57.027  1.00  0.00     0.068 A 
HETATM   24  C   UNL     1      31.985  42.959  57.277  1.00  0.00     0.073 C 
HETATM   25  N   UNL     1      31.137  45.164  57.860  1.00  0.00    -0.133 NA
HETATM   26  O   UNL     1      30.188  46.052  57.412  1.00  0.00    -0.217 OA
HETATM   27  C   UNL     1      29.598  45.560  56.292  1.00  0.00     0.085 A 
HETATM   28  C   UNL     1      28.540  46.410  55.710  1.00  0.00     0.079 C 
ENDBRANCH  21  22
ENDBRANCH   1  21
TORSDOF 4
ENDMDL
MODEL 4
REMARK VINA RESULT:      -8.2      4.601     11.060
REMARK  4 active torsions:
REMARK  status: ('A' for Active; 'I' for Inactive)
REMARK    1  A    between atoms: C_7  and  C_8 
REMARK    2  A    between atoms: C_8  and  N_9 
REMARK    3  A    between atoms: N_15  and  C_17 
REMARK    4  A    between atoms: C_17  and  C_18 
ROOT
HETATM    1  N   UNL     1      23.571  48.574  48.504  1.00  0.00    -0.067 N 
HETATM    2  H   UNL     1      24.090  48.044  47.789  1.00  0.00     0.280 HD
HETATM    3  C   UNL     1      22.170  48.022  48.467  1.00  0.00     0.236 C 
HETATM    4  C   UNL     1      21.223  48.881  49.301  1.00  0.00     0.039 C 
HETATM    5  C   UNL     1      21.215  50.383  48.901  1.00  0.00    -0.013 C 
HETATM    6  C   UNL     1      20.561  50.633  47.517  1.00  0.00     0.244 C 
HETATM    7  N   UNL     1      19.092  50.313  47.547  1.00  0.00    -0.065 N 
HETATM    8  H   UNL     1      18.969  49.316  47.794  1.00  0.00     0.280 HD
HETATM    9  C   UNL     1      18.325  51.148  48.532  1.00  0.00     0.235 C 
HETATM   10  C   UNL     1      18.918  50.951  49.920  1.00  0.00     0.029 C 
HETATM   11  C   UNL     1      20.425  51.211  49.950  1.00  0.00     0.013 C 
HETATM   12  C   UNL     1      22.689  50.881  48.891  1.00  0.00     0.039 C 
HETATM   13  C   UNL     1      23.646  50.013  48.074  1.00  0.00     0.236 C 
ENDROOT
BRANCH   7  14
HETATM   14  C   UNL     1      18.467  50.327  46.149  1.00  0.00     0.293 C 
BRANCH  14  15
HETATM   15  C   UNL     1      17.070  49.739  46.180  1.00  0.00     0.060 A 
HETATM   16  N   UNL     1      16.965  48.463  46.668  1.00  0.00    -0.264 NA
HETATM   17  C   UNL     1      15.709  47.958  46.770  1.00  0.00     0.117 A 
HETATM   18  C   UNL     1      14.570  48.635  46.372  1.00  0.00     0.019 A 
HETATM   19  C   UNL     1      14.710  49.919  45.857  1.00  0.00     0.003 A 
HETATM   20  C   UNL     1      15.975  50.490  45.767  1.00  0.00     0.029 A 
ENDBRANCH  14  15
ENDBRANCH   7  14
BRANCH   1  21
HETATM   21  C   UNL     1      24.358  48.280  49.780  1.00  0.00     0.278 C 
BRANCH  21  22
HETATM   22  C   UNL     1      25.694  47.694  49.536  1.00  0.00     0.025 A 
HETATM   23  C   UNL     1      26.088  46.332  49.686  1.00  0.00     0.068 A 
HETATM   24  C   UNL     1      25.299  45.168  50.157  1.00  0.00     0.073 C 
HETATM   25  N   UNL     1      27.354  46.154  49.306  1.00  0.00    -0.133 NA
HETATM   26  O   UNL     1      27.838  47.397  48.976  1.00  0.00    -0.217 OA
HETATM   27  C   UNL     1      26.857  48.323  49.129  1.00  0.00     0.085 A 
HETATM   28  C   UNL     1      27.246  49.714  48.824  1.00  0.00     0.079 C 
ENDBRANCH  21  22
ENDBRANCH   1  21
TORSDOF 4
ENDMDL
MODEL 5
REMARK VINA RESULT:      -7.9     11.438     13.778
REMARK  4 active torsions:
REMARK  status: ('A' for Active; 'I' for Inactive)
REMARK    1  A    between atoms: C_7  and  C_8 
REMARK    2  A    between atoms: C_8  and  N_9 
REMARK    3  A    between atoms: N_15  and  C_17 
REMARK    4  A    between atoms: C_17  and  C_18 
ROOT
HETATM    1  N   UNL     1      28.319  47.491  40.410  1.00  0.00    -0.067 N 
HETATM    2  H   UNL     1      28.556  46.854  41.183  1.00  0.00     0.280 HD
HETATM    3  C   UNL     1      29.574  48.281  40.147  1.00  0.00     0.236 C 
HETATM    4  C   UNL     1      29.299  49.438  39.190  1.00  0.00     0.039 C 
HETATM    5  C   UNL     1      28.161  50.387  39.657  1.00  0.00    -0.013 C 
HETATM    6  C   UNL     1      28.552  51.230  40.901  1.00  0.00     0.244 C 
HETATM    7  N   UNL     1      29.650  52.203  40.570  1.00  0.00    -0.065 N 
HETATM    8  H   UNL     1      30.483  51.677  40.253  1.00  0.00     0.280 HD
HETATM    9  C   UNL     1      29.268  53.185  39.500  1.00  0.00     0.235 C 
HETATM   10  C   UNL     1      28.869  52.421  38.245  1.00  0.00     0.029 C 
HETATM   11  C   UNL     1      27.788  51.375  38.520  1.00  0.00     0.013 C 
HETATM   12  C   UNL     1      26.915  49.514  39.978  1.00  0.00     0.039 C 
HETATM   13  C   UNL     1      27.188  48.340  40.919  1.00  0.00     0.236 C 
ENDROOT
BRANCH   7  14
HETATM   14  C   UNL     1      30.217  52.883  41.820  1.00  0.00     0.293 C 
BRANCH  14  15
HETATM   15  C   UNL     1      31.552  52.277  42.202  1.00  0.00     0.060 A 
HETATM   16  N   UNL     1      32.426  52.047  41.172  1.00  0.00    -0.264 NA
HETATM   17  C   UNL     1      33.652  51.575  41.515  1.00  0.00     0.117 A 
HETATM   18  C   UNL     1      34.030  51.281  42.813  1.00  0.00     0.019 A 
HETATM   19  C   UNL     1      33.113  51.500  43.835  1.00  0.00     0.003 A 
HETATM   20  C   UNL     1      31.858  52.017  43.534  1.00  0.00     0.029 A 
ENDBRANCH  14  15
ENDBRANCH   7  14
BRANCH   1  21
HETATM   21  C   UNL     1      27.903  46.531  39.296  1.00  0.00     0.278 C 
BRANCH  21  22
HETATM   22  C   UNL     1      28.062  45.103  39.649  1.00  0.00     0.025 A 
HETATM   23  C   UNL     1      28.836  44.118  38.968  1.00  0.00     0.068 A 
HETATM   24  C   UNL     1      29.638  44.243  37.726  1.00  0.00     0.073 C 
HETATM   25  N   UNL     1      28.804  42.951  39.612  1.00  0.00    -0.133 NA
HETATM   26  O   UNL     1      27.953  43.121  40.678  1.00  0.00    -0.217 OA
HETATM   27  C   UNL     1      27.493  44.398  40.694  1.00  0.00     0.085 A 
HETATM   28  C   UNL     1      26.549  44.716  41.784  1.00  0.00     0.079 C 
ENDBRANCH  21  22
ENDBRANCH   1  21
TORSDOF 4
ENDMDL
MODEL 6
REMARK VINA RESULT:      -7.9      4.179      6.158
REMARK  4 active torsions:
REMARK  status: ('A' for Active; 'I' for Inactive)
REMARK    1  A    between atoms: C_7  and  C_8 
REMARK    2  A    between atoms: C_8  and  N_9 
REMARK    3  A    between atoms: N_15  and  C_17 
REMARK    4  A    between atoms: C_17  and  C_18 
ROOT
HETATM    1  N   UNL     1      26.114  42.030  50.046  1.00  0.00    -0.067 N 
HETATM    2  H   UNL     1      26.353  41.062  50.304  1.00  0.00     0.280 HD
HETATM    3  C   UNL     1      27.247  42.872  50.570  1.00  0.00     0.236 C 
HETATM    4  C   UNL     1      26.910  44.358  50.477  1.00  0.00     0.039 C 
HETATM    5  C   UNL     1      25.583  44.751  51.184  1.00  0.00    -0.013 C 
HETATM    6  C   UNL     1      25.674  44.651  52.730  1.00  0.00     0.244 C 
HETATM    7  N   UNL     1      26.632  45.671  53.282  1.00  0.00    -0.065 N 
HETATM    8  H   UNL     1      27.572  45.500  52.885  1.00  0.00     0.280 HD
HETATM    9  C   UNL     1      26.233  47.086  52.974  1.00  0.00     0.235 C 
HETATM   10  C   UNL     1      26.123  47.253  51.465  1.00  0.00     0.029 C 
HETATM   11  C   UNL     1      25.200  46.212  50.830  1.00  0.00     0.013 C 
HETATM   12  C   UNL     1      24.465  43.807  50.656  1.00  0.00     0.039 C 
HETATM   13  C   UNL     1      24.805  42.318  50.727  1.00  0.00     0.236 C 
ENDROOT
BRANCH   7  14
HETATM   14  C   UNL     1      26.920  45.451  54.770  1.00  0.00     0.293 C 
BRANCH  14  15
HETATM   15  C   UNL     1      28.293  44.840  54.966  1.00  0.00     0.060 A 
HETATM   16  N   UNL     1      29.132  45.506  55.821  1.00  0.00    -0.264 NA
HETATM   17  C   UNL     1      30.335  44.924  56.060  1.00  0.00     0.117 A 
HETATM   18  C   UNL     1      30.758  43.751  55.461  1.00  0.00     0.019 A 
HETATM   19  C   UNL     1      29.895  43.111  54.578  1.00  0.00     0.003 A 
HETATM   20  C   UNL     1      28.638  43.652  54.331  1.00  0.00     0.029 A 
ENDBRANCH  14  15
ENDBRANCH   7  14
BRANCH   1  21
HETATM   21  C   UNL     1      26.002  41.955  48.524  1.00  0.00     0.278 C 
BRANCH  21  22
HETATM   22  C   UNL     1      26.154  40.587  47.981  1.00  0.00     0.025 A 
HETATM   23  C   UNL     1      27.332  39.783  47.964  1.00  0.00     0.068 A 
HETATM   24  C   UNL     1      28.701  40.106  48.435  1.00  0.00     0.073 C 
HETATM   25  N   UNL     1      27.081  38.574  47.460  1.00  0.00    -0.133 NA
HETATM   26  O   UNL     1      25.764  38.585  47.066  1.00  0.00    -0.217 OA
HETATM   27  C   UNL     1      25.212  39.790  47.357  1.00  0.00     0.085 A 
HETATM   28  C   UNL     1      23.796  39.947  46.969  1.00  0.00     0.079 C 
ENDBRANCH  21  22
ENDBRANCH   1  21
TORSDOF 4
ENDMDL
MODEL 7
REMARK VINA RESULT:      -7.7      4.586      6.816
REMARK  4 active torsions:
REMARK  status: ('A' for Active; 'I' for Inactive)
REMARK    1  A    between atoms: C_7  and  C_8 
REMARK    2  A    between atoms: C_8  and  N_9 
REMARK    3  A    between atoms: N_15  and  C_17 
REMARK    4  A    between atoms: C_17  and  C_18 
ROOT
HETATM    1  N   UNL     1      27.903  41.176  50.895  1.00  0.00    -0.067 N 
HETATM    2  H   UNL     1      28.385  40.411  51.387  1.00  0.00     0.280 HD
HETATM    3  C   UNL     1      28.621  42.432  51.314  1.00  0.00     0.236 C 
HETATM    4  C   UNL     1      27.860  43.673  50.855  1.00  0.00     0.039 C 
HETATM    5  C   UNL     1      26.382  43.720  51.333  1.00  0.00    -0.013 C 
HETATM    6  C   UNL     1      26.251  43.946  52.863  1.00  0.00     0.244 C 
HETATM    7  N   UNL     1      26.746  45.312  53.252  1.00  0.00    -0.065 N 
HETATM    8  H   UNL     1      27.743  45.396  52.990  1.00  0.00     0.280 HD
HETATM    9  C   UNL     1      25.983  46.426  52.596  1.00  0.00     0.235 C 
HETATM   10  C   UNL     1      26.069  46.265  51.084  1.00  0.00     0.029 C 
HETATM   11  C   UNL     1      25.627  44.875  50.622  1.00  0.00     0.013 C 
HETATM   12  C   UNL     1      25.710  42.375  50.934  1.00  0.00     0.039 C 
HETATM   13  C   UNL     1      26.478  41.128  51.372  1.00  0.00     0.236 C 
ENDROOT
BRANCH   7  14
HETATM   14  C   UNL     1      26.846  45.480  54.771  1.00  0.00     0.293 C 
BRANCH  14  15
HETATM   15  C   UNL     1      28.253  45.183  55.251  1.00  0.00     0.060 A 
HETATM   16  N   UNL     1      28.744  46.011  56.226  1.00  0.00    -0.264 NA
HETATM   17  C   UNL     1      29.972  45.704  56.715  1.00  0.00     0.117 A 
HETATM   18  C   UNL     1      30.746  44.653  56.255  1.00  0.00     0.019 A 
HETATM   19  C   UNL     1      30.232  43.845  55.247  1.00  0.00     0.003 A 
HETATM   20  C   UNL     1      28.962  44.101  54.741  1.00  0.00     0.029 A 
ENDBRANCH  14  15
ENDBRANCH   7  14
BRANCH   1  21
HETATM   21  C   UNL     1      28.064  40.787  49.426  1.00  0.00     0.278 C 
BRANCH  21  22
HETATM   22  C   UNL     1      27.710  39.379  49.139  1.00  0.00     0.025 A 
HETATM   23  C   UNL     1      26.615  38.898  48.363  1.00  0.00     0.068 A 
HETATM   24  C   UNL     1      25.534  39.655  47.686  1.00  0.00     0.073 C 
HETATM   25  N   UNL     1      26.648  37.569  48.259  1.00  0.00    -0.133 NA
HETATM   26  O   UNL     1      27.711  37.147  49.021  1.00  0.00    -0.217 OA
HETATM   27  C   UNL     1      28.337  38.222  49.564  1.00  0.00     0.085 A 
HETATM   28  C   UNL     1      29.494  37.912  50.426  1.00  0.00     0.079 C 
ENDBRANCH  21  22
ENDBRANCH   1  21
TORSDOF 4
ENDMDL
MODEL 8
REMARK VINA RESULT:      -7.7     12.204     14.537
REMARK  4 active torsions:
REMARK  status: ('A' for Active; 'I' for Inactive)
REMARK    1  A    between atoms: C_7  and  C_8 
REMARK    2  A    between atoms: C_8  and  N_9 
REMARK    3  A    between atoms: N_15  and  C_17 
REMARK    4  A    between atoms: C_17  and  C_18 
ROOT
HETATM    1  N   UNL     1      30.698  49.877  40.134  1.00  0.00    -0.067 N 
HETATM    2  H   UNL     1      30.716  49.626  39.136  1.00  0.00     0.280 HD
HETATM    3  C   UNL     1      31.385  51.214  40.220  1.00  0.00     0.236 C 
HETATM    4  C   UNL     1      31.653  51.597  41.674  1.00  0.00     0.039 C 
HETATM    5  C   UNL     1      32.458  50.533  42.469  1.00  0.00    -0.013 C 
HETATM    6  C   UNL     1      33.935  50.424  42.005  1.00  0.00     0.244 C 
HETATM    7  N   UNL     1      34.694  51.684  42.318  1.00  0.00    -0.065 N 
HETATM    8  H   UNL     1      34.250  52.477  41.823  1.00  0.00     0.280 HD
HETATM    9  C   UNL     1      34.737  51.999  43.785  1.00  0.00     0.235 C 
HETATM   10  C   UNL     1      33.313  52.118  44.310  1.00  0.00     0.029 C 
HETATM   11  C   UNL     1      32.467  50.888  43.980  1.00  0.00     0.013 C 
HETATM   12  C   UNL     1      31.743  49.163  42.290  1.00  0.00     0.039 C 
HETATM   13  C   UNL     1      31.453  48.784  40.838  1.00  0.00     0.236 C 
ENDROOT
BRANCH   7  14
HETATM   14  C   UNL     1      36.082  51.701  41.670  1.00  0.00     0.293 C 
BRANCH  14  15
HETATM   15  C   UNL     1      36.250  52.926  40.794  1.00  0.00     0.060 A 
HETATM   16  N   UNL     1      35.244  53.167  39.896  1.00  0.00    -0.264 NA
HETATM   17  C   UNL     1      35.351  54.304  39.162  1.00  0.00     0.117 A 
HETATM   18  C   UNL     1      36.420  55.178  39.244  1.00  0.00     0.019 A 
HETATM   19  C   UNL     1      37.439  54.894  40.146  1.00  0.00     0.003 A 
HETATM   20  C   UNL     1      37.354  53.759  40.945  1.00  0.00     0.029 A 
ENDBRANCH  14  15
ENDBRANCH   7  14
BRANCH   1  21
HETATM   21  C   UNL     1      29.204  49.885  40.454  1.00  0.00     0.278 C 
BRANCH  21  22
HETATM   22  C   UNL     1      28.339  49.996  39.259  1.00  0.00     0.025 A 
HETATM   23  C   UNL     1      27.603  48.958  38.617  1.00  0.00     0.068 A 
HETATM   24  C   UNL     1      27.540  47.510  38.937  1.00  0.00     0.073 C 
HETATM   25  N   UNL     1      26.875  49.438  37.609  1.00  0.00    -0.133 NA
HETATM   26  O   UNL     1      27.173  50.776  37.518  1.00  0.00    -0.217 OA
HETATM   27  C   UNL     1      28.061  51.111  38.489  1.00  0.00     0.085 A 
HETATM   28  C   UNL     1      28.485  52.525  38.498  1.00  0.00     0.079 C 
ENDBRANCH  21  22
ENDBRANCH   1  21
TORSDOF 4
ENDMDL
MODEL 9
REMARK VINA RESULT:      -7.5      5.208      8.275
REMARK  4 active torsions:
REMARK  status: ('A' for Active; 'I' for Inactive)
REMARK    1  A    between atoms: C_7  and  C_8 
REMARK    2  A    between atoms: C_8  and  N_9 
REMARK    3  A    between atoms: N_15  and  C_17 
REMARK    4  A    between atoms: C_17  and  C_18 
ROOT
HETATM    1  N   UNL     1      28.284  42.897  52.457  1.00  0.00    -0.067 N 
HETATM    2  H   UNL     1      29.300  42.932  52.617  1.00  0.00     0.280 HD
HETATM    3  C   UNL     1      28.033  41.567  51.796  1.00  0.00     0.236 C 
HETATM    4  C   UNL     1      26.600  41.479  51.275  1.00  0.00     0.039 C 
HETATM    5  C   UNL     1      26.205  42.635  50.314  1.00  0.00    -0.013 C 
HETATM    6  C   UNL     1      26.933  42.554  48.945  1.00  0.00     0.244 C 
HETATM    7  N   UNL     1      26.492  41.342  48.170  1.00  0.00    -0.065 N 
HETATM    8  H   UNL     1      26.719  40.493  48.715  1.00  0.00     0.280 HD
HETATM    9  C   UNL     1      25.021  41.337  47.866  1.00  0.00     0.235 C 
HETATM   10  C   UNL     1      24.244  41.417  49.172  1.00  0.00     0.029 C 
HETATM   11  C   UNL     1      24.679  42.602  50.036  1.00  0.00     0.013 C 
HETATM   12  C   UNL     1      26.548  43.978  51.019  1.00  0.00     0.039 C 
HETATM   13  C   UNL     1      27.974  44.064  51.561  1.00  0.00     0.236 C 
ENDROOT
BRANCH   7  14
HETATM   14  C   UNL     1      27.352  41.107  46.925  1.00  0.00     0.293 C 
BRANCH  14  15
HETATM   15  C   UNL     1      27.865  39.681  46.890  1.00  0.00     0.060 A 
HETATM   16  N   UNL     1      27.875  39.075  45.661  1.00  0.00    -0.264 NA
HETATM   17  C   UNL     1      28.403  37.826  45.609  1.00  0.00     0.117 A 
HETATM   18  C   UNL     1      28.874  37.140  46.715  1.00  0.00     0.019 A 
HETATM   19  C   UNL     1      28.827  37.770  47.953  1.00  0.00     0.003 A 
HETATM   20  C   UNL     1      28.327  39.065  48.048  1.00  0.00     0.029 A 
ENDBRANCH  14  15
ENDBRANCH   7  14
BRANCH   1  21
HETATM   21  C   UNL     1      27.714  43.046  53.867  1.00  0.00     0.278 C 
BRANCH  21  22
HETATM   22  C   UNL     1      28.254  44.208  54.608  1.00  0.00     0.025 A 
HETATM   23  C   UNL     1      27.620  45.463  54.841  1.00  0.00     0.068 A 
HETATM   24  C   UNL     1      26.297  45.952  54.379  1.00  0.00     0.073 C 
HETATM   25  N   UNL     1      28.375  46.247  55.611  1.00  0.00    -0.133 NA
HETATM   26  O   UNL     1      29.544  45.561  55.834  1.00  0.00    -0.217 OA
HETATM   27  C   UNL     1      29.485  44.350  55.222  1.00  0.00     0.085 A 
HETATM   28  C   UNL     1      30.690  43.509  55.366  1.00  0.00     0.079 C 
ENDBRANCH  21  22
ENDBRANCH   1  21
TORSDOF 4
ENDMDL
MODEL 10
REMARK VINA RESULT:      -7.5     16.960     18.809
REMARK  4 active torsions:
REMARK  status: ('A' for Active; 'I' for Inactive)
REMARK    1  A    between atoms: C_7  and  C_8 
REMARK    2  A    between atoms: C_8  and  N_9 
REMARK    3  A    between atoms: N_15  and  C_17 
REMARK    4  A    between atoms: C_17  and  C_18 
ROOT
HETATM    1  N   UNL     1      38.151  48.163  65.796  1.00  0.00    -0.067 N 
HETATM    2  H   UNL     1      38.918  48.809  65.562  1.00  0.00     0.280 HD
HETATM    3  C   UNL     1      38.822  46.858  66.135  1.00  0.00     0.236 C 
HETATM    4  C   UNL     1      37.795  45.735  66.264  1.00  0.00     0.039 C 
HETATM    5  C   UNL     1      36.891  45.560  65.013  1.00  0.00    -0.013 C 
HETATM    6  C   UNL     1      37.661  45.002  63.786  1.00  0.00     0.244 C 
HETATM    7  N   UNL     1      38.123  43.592  64.034  1.00  0.00    -0.065 N 
HETATM    8  H   UNL     1      38.755  43.583  64.853  1.00  0.00     0.280 HD
HETATM    9  C   UNL     1      36.993  42.636  64.292  1.00  0.00     0.235 C 
HETATM   10  C   UNL     1      36.190  43.127  65.489  1.00  0.00     0.029 C 
HETATM   11  C   UNL     1      35.731  44.577  65.325  1.00  0.00     0.013 C 
HETATM   12  C   UNL     1      36.279  46.948  64.669  1.00  0.00     0.039 C 
HETATM   13  C   UNL     1      37.300  48.081  64.560  1.00  0.00     0.236 C 
ENDROOT
BRANCH   7  14
HETATM   14  C   UNL     1      39.078  43.095  62.945  1.00  0.00     0.293 C 
BRANCH  14  15
HETATM   15  C   UNL     1      39.567  41.695  63.259  1.00  0.00     0.060 A 
HETATM   16  N   UNL     1      40.361  41.568  64.368  1.00  0.00    -0.264 NA
HETATM   17  C   UNL     1      40.739  40.307  64.698  1.00  0.00     0.117 A 
HETATM   18  C   UNL     1      40.408  39.184  63.960  1.00  0.00     0.019 A 
HETATM   19  C   UNL     1      39.623  39.347  62.824  1.00  0.00     0.003 A 
HETATM   20  C   UNL     1      39.182  40.617  62.469  1.00  0.00     0.029 A 
ENDBRANCH  14  15
ENDBRANCH   7  14
BRANCH   1  21
HETATM   21  C   UNL     1      37.460  48.868  66.963  1.00  0.00     0.278 C 
BRANCH  21  22
HETATM   22  C   UNL     1      38.312  49.866  67.646  1.00  0.00     0.025 A 
HETATM   23  C   UNL     1      38.389  51.266  67.389  1.00  0.00     0.068 A 
HETATM   24  C   UNL     1      37.687  52.077  66.364  1.00  0.00     0.073 C 
HETATM   25  N   UNL     1      39.213  51.868  68.248  1.00  0.00    -0.133 NA
HETATM   26  O   UNL     1      39.750  50.873  69.031  1.00  0.00    -0.217 OA
HETATM   27  C   UNL     1      39.229  49.674  68.663  1.00  0.00     0.085 A 
HETATM   28  C   UNL     1      39.734  48.508  69.414  1.00  0.00     0.079 C 
ENDBRANCH  21  22
ENDBRANCH   1  21
TORSDOF 4
ENDMDL
