MODEL 1
REMARK VINA RESULT:      -8.4      0.000      0.000
REMARK  8 active torsions:
REMARK  status: ('A' for Active; 'I' for Inactive)
REMARK    1  A    between atoms: C_2  and  N_3 
REMARK    2  A    between atoms: C_2  and  C_17 
REMARK    3  A    between atoms: N_3  and  C_6 
REMARK    4  A    between atoms: C_6  and  C_7 
REMARK    5  A    between atoms: C_7  and  O_8 
REMARK    6  A    between atoms: C_7  and  C_9 
REMARK    7  A    between atoms: C_11  and  O_12 
REMARK    8  A    between atoms: C_17  and  C_18 
ROOT
HETATM    1  N   UNL     1      26.139  44.810  52.139  1.00  0.00    -0.068 N 
HETATM    2  H   UNL     1      27.129  44.568  52.360  1.00  0.00     0.277 HD
HETATM    3  H   UNL     1      25.662  43.897  52.043  1.00  0.00     0.277 HD
ENDROOT
BRANCH   1   4
HETATM    4  C   UNL     1      25.612  45.626  53.288  1.00  0.00     0.188 C 
HETATM    5  C   UNL     1      25.262  44.703  54.450  1.00  0.00     0.040 C 
BRANCH   4   6
HETATM    6  C   UNL     1      26.669  46.663  53.729  1.00  0.00     0.099 C 
BRANCH   6   7
HETATM    7  C   UNL     1      27.766  46.029  54.529  1.00  0.00     0.078 A 
HETATM    8  S   UNL     1      28.223  46.672  56.047  1.00  0.00    -0.073 SA
HETATM    9  C   UNL     1      29.399  45.427  56.220  1.00  0.00     0.035 A 
HETATM   10  C   UNL     1      29.354  44.599  55.096  1.00  0.00     0.074 A 
HETATM   11  C   UNL     1      30.297  45.200  57.275  1.00  0.00     0.021 A 
HETATM   12  N   UNL     1      28.402  44.942  54.141  1.00  0.00    -0.245 NA
HETATM   13  C   UNL     1      30.250  43.513  55.019  1.00  0.00     0.033 A 
HETATM   14  C   UNL     1      31.148  43.278  56.065  1.00  0.00     0.002 A 
HETATM   15  C   UNL     1      31.168  44.111  57.179  1.00  0.00     0.002 A 
ENDBRANCH   6   7
ENDBRANCH   4   6
ENDBRANCH   1   4
BRANCH   1  16
HETATM   16  C   UNL     1      26.142  45.435  50.771  1.00  0.00     0.269 C 
BRANCH  16  17
HETATM   17  C   UNL     1      25.122  46.595  50.759  1.00  0.00     0.177 C 
BRANCH  17  18
HETATM   18  O   UNL     1      23.870  46.047  50.312  1.00  0.00    -0.389 OA
HETATM   19  H   UNL     1      23.199  46.747  50.454  1.00  0.00     0.210 HD
ENDBRANCH  17  18
BRANCH  17  20
HETATM   20  C   UNL     1      25.557  47.743  49.873  1.00  0.00    -0.025 A 
HETATM   21  C   UNL     1      24.589  48.415  49.100  1.00  0.00     0.046 A 
HETATM   22  C   UNL     1      24.947  49.485  48.276  1.00  0.00     0.068 A 
HETATM   23  C   UNL     1      26.281  49.886  48.221  1.00  0.00     0.037 A 
HETATM   24  C   UNL     1      27.252  49.233  48.977  1.00  0.00     0.003 A 
HETATM   25  C   UNL     1      26.892  48.170  49.804  1.00  0.00     0.010 A 
BRANCH  22  26
HETATM   26  O   UNL     1      24.100  50.216  47.493  1.00  0.00    -0.356 OA
HETATM   27  C   UNL     1      23.084  50.967  48.145  1.00  0.00     0.210 C 
ENDBRANCH  22  26
ENDBRANCH  17  20
ENDBRANCH  16  17
ENDBRANCH   1  16
TORSDOF 8
ENDMDL
MODEL 2
REMARK VINA RESULT:      -8.4      1.482      1.923
REMARK  8 active torsions:
REMARK  status: ('A' for Active; 'I' for Inactive)
REMARK    1  A    between atoms: C_2  and  N_3 
REMARK    2  A    between atoms: C_2  and  C_17 
REMARK    3  A    between atoms: N_3  and  C_6 
REMARK    4  A    between atoms: C_6  and  C_7 
REMARK    5  A    between atoms: C_7  and  O_8 
REMARK    6  A    between atoms: C_7  and  C_9 
REMARK    7  A    between atoms: C_11  and  O_12 
REMARK    8  A    between atoms: C_17  and  C_18 
ROOT
HETATM    1  N   UNL     1      26.693  45.347  52.093  1.00  0.00    -0.068 N 
HETATM    2  H   UNL     1      25.957  45.710  52.735  1.00  0.00     0.277 HD
HETATM    3  H   UNL     1      27.500  45.978  52.237  1.00  0.00     0.277 HD
ENDROOT
BRANCH   1   4
HETATM    4  C   UNL     1      26.981  43.928  52.500  1.00  0.00     0.188 C 
HETATM    5  C   UNL     1      26.314  42.971  51.518  1.00  0.00     0.040 C 
BRANCH   4   6
HETATM    6  C   UNL     1      28.506  43.686  52.530  1.00  0.00     0.099 C 
BRANCH   6   7
HETATM    7  C   UNL     1      29.090  44.005  53.873  1.00  0.00     0.078 A 
HETATM    8  S   UNL     1      30.374  43.073  54.511  1.00  0.00    -0.073 SA
HETATM    9  C   UNL     1      30.402  44.071  55.913  1.00  0.00     0.035 A 
HETATM   10  C   UNL     1      29.421  45.058  55.790  1.00  0.00     0.074 A 
HETATM   11  C   UNL     1      31.234  43.987  57.041  1.00  0.00     0.021 A 
HETATM   12  N   UNL     1      28.686  45.022  54.608  1.00  0.00    -0.245 NA
HETATM   13  C   UNL     1      29.257  45.984  56.839  1.00  0.00     0.033 A 
HETATM   14  C   UNL     1      30.079  45.909  57.968  1.00  0.00     0.002 A 
HETATM   15  C   UNL     1      31.056  44.923  58.064  1.00  0.00     0.002 A 
ENDBRANCH   6   7
ENDBRANCH   4   6
ENDBRANCH   1   4
BRANCH   1  16
HETATM   16  C   UNL     1      26.204  45.595  50.692  1.00  0.00     0.269 C 
BRANCH  16  17
HETATM   17  C   UNL     1      25.192  46.762  50.724  1.00  0.00     0.177 C 
BRANCH  17  18
HETATM   18  O   UNL     1      23.917  46.221  50.340  1.00  0.00    -0.389 OA
HETATM   19  H   UNL     1      23.930  45.277  50.600  1.00  0.00     0.210 HD
ENDBRANCH  17  18
BRANCH  17  20
HETATM   20  C   UNL     1      25.592  47.903  49.814  1.00  0.00    -0.025 A 
HETATM   21  C   UNL     1      24.600  48.542  49.042  1.00  0.00     0.046 A 
HETATM   22  C   UNL     1      24.925  49.605  48.196  1.00  0.00     0.068 A 
HETATM   23  C   UNL     1      26.250  50.034  48.117  1.00  0.00     0.037 A 
HETATM   24  C   UNL     1      27.244  49.413  48.872  1.00  0.00     0.003 A 
HETATM   25  C   UNL     1      26.917  48.356  49.721  1.00  0.00     0.010 A 
BRANCH  22  26
HETATM   26  O   UNL     1      24.055  50.305  47.412  1.00  0.00    -0.356 OA
HETATM   27  C   UNL     1      23.047  51.067  48.066  1.00  0.00     0.210 C 
ENDBRANCH  22  26
ENDBRANCH  17  20
ENDBRANCH  16  17
ENDBRANCH   1  16
TORSDOF 8
ENDMDL
MODEL 3
REMARK VINA RESULT:      -8.2      2.713      3.867
REMARK  8 active torsions:
REMARK  status: ('A' for Active; 'I' for Inactive)
REMARK    1  A    between atoms: C_2  and  N_3 
REMARK    2  A    between atoms: C_2  and  C_17 
REMARK    3  A    between atoms: N_3  and  C_6 
REMARK    4  A    between atoms: C_6  and  C_7 
REMARK    5  A    between atoms: C_7  and  O_8 
REMARK    6  A    between atoms: C_7  and  C_9 
REMARK    7  A    between atoms: C_11  and  O_12 
REMARK    8  A    between atoms: C_17  and  C_18 
ROOT
HETATM    1  N   UNL     1      28.219  41.744  51.198  1.00  0.00    -0.068 N 
HETATM    2  H   UNL     1      29.073  42.023  50.669  1.00  0.00     0.277 HD
HETATM    3  H   UNL     1      28.181  40.714  51.108  1.00  0.00     0.277 HD
ENDROOT
BRANCH   1   4
HETATM    4  C   UNL     1      28.406  42.199  52.620  1.00  0.00     0.188 C 
HETATM    5  C   UNL     1      28.298  41.001  53.557  1.00  0.00     0.040 C 
BRANCH   4   6
HETATM    6  C   UNL     1      29.783  42.880  52.780  1.00  0.00     0.099 C 
BRANCH   6   7
HETATM    7  C   UNL     1      29.906  43.575  54.102  1.00  0.00     0.078 A 
HETATM    8  S   UNL     1      28.852  44.855  54.518  1.00  0.00    -0.073 SA
HETATM    9  C   UNL     1      29.631  45.002  56.046  1.00  0.00     0.035 A 
HETATM   10  C   UNL     1      30.649  44.049  56.130  1.00  0.00     0.074 A 
HETATM   11  C   UNL     1      29.360  45.896  57.093  1.00  0.00     0.021 A 
HETATM   12  N   UNL     1      30.786  43.223  55.018  1.00  0.00    -0.245 NA
HETATM   13  C   UNL     1      31.433  43.999  57.301  1.00  0.00     0.033 A 
HETATM   14  C   UNL     1      31.172  44.885  58.351  1.00  0.00     0.002 A 
HETATM   15  C   UNL     1      30.147  45.820  58.247  1.00  0.00     0.002 A 
ENDBRANCH   6   7
ENDBRANCH   4   6
ENDBRANCH   1   4
BRANCH   1  16
HETATM   16  C   UNL     1      27.041  42.282  50.434  1.00  0.00     0.269 C 
BRANCH  16  17
HETATM   17  C   UNL     1      26.124  43.044  51.416  1.00  0.00     0.177 C 
BRANCH  17  18
HETATM   18  O   UNL     1      24.803  42.499  51.264  1.00  0.00    -0.389 OA
HETATM   19  H   UNL     1      24.182  43.241  51.422  1.00  0.00     0.210 HD
ENDBRANCH  17  18
BRANCH  17  20
HETATM   20  C   UNL     1      26.124  44.538  51.171  1.00  0.00    -0.025 A 
HETATM   21  C   UNL     1      25.843  45.407  52.244  1.00  0.00     0.046 A 
HETATM   22  C   UNL     1      25.842  46.793  52.063  1.00  0.00     0.068 A 
HETATM   23  C   UNL     1      26.121  47.315  50.800  1.00  0.00     0.037 A 
HETATM   24  C   UNL     1      26.400  46.471  49.727  1.00  0.00     0.003 A 
HETATM   25  C   UNL     1      26.408  45.089  49.911  1.00  0.00     0.010 A 
BRANCH  22  26
HETATM   26  O   UNL     1      25.595  47.730  53.024  1.00  0.00    -0.356 OA
HETATM   27  C   UNL     1      25.949  47.408  54.363  1.00  0.00     0.210 C 
ENDBRANCH  22  26
ENDBRANCH  17  20
ENDBRANCH  16  17
ENDBRANCH   1  16
TORSDOF 8
ENDMDL
MODEL 4
REMARK VINA RESULT:      -8.1      3.405      7.892
REMARK  8 active torsions:
REMARK  status: ('A' for Active; 'I' for Inactive)
REMARK    1  A    between atoms: C_2  and  N_3 
REMARK    2  A    between atoms: C_2  and  C_17 
REMARK    3  A    between atoms: N_3  and  C_6 
REMARK    4  A    between atoms: C_6  and  C_7 
REMARK    5  A    between atoms: C_7  and  O_8 
REMARK    6  A    between atoms: C_7  and  C_9 
REMARK    7  A    between atoms: C_11  and  O_12 
REMARK    8  A    between atoms: C_17  and  C_18 
ROOT
HETATM    1  N   UNL     1      25.595  42.971  51.612  1.00  0.00    -0.068 N 
HETATM    2  H   UNL     1      24.823  42.494  52.124  1.00  0.00     0.277 HD
HETATM    3  H   UNL     1      26.167  42.200  51.224  1.00  0.00     0.277 HD
ENDROOT
BRANCH   1   4
HETATM    4  C   UNL     1      24.963  43.822  50.544  1.00  0.00     0.188 C 
HETATM    5  C   UNL     1      23.855  43.034  49.854  1.00  0.00     0.040 C 
BRANCH   4   6
HETATM    6  C   UNL     1      24.392  45.114  51.167  1.00  0.00     0.099 C 
BRANCH   6   7
HETATM    7  C   UNL     1      24.904  46.338  50.469  1.00  0.00     0.078 A 
HETATM    8  S   UNL     1      23.826  47.415  49.691  1.00  0.00    -0.073 SA
HETATM    9  C   UNL     1      25.151  48.418  49.244  1.00  0.00     0.035 A 
HETATM   10  C   UNL     1      26.333  47.854  49.730  1.00  0.00     0.074 A 
HETATM   11  C   UNL     1      25.144  49.618  48.515  1.00  0.00     0.021 A 
HETATM   12  N   UNL     1      26.179  46.671  50.447  1.00  0.00    -0.245 NA
HETATM   13  C   UNL     1      27.554  48.508  49.465  1.00  0.00     0.033 A 
HETATM   14  C   UNL     1      27.558  49.704  48.739  1.00  0.00     0.002 A 
HETATM   15  C   UNL     1      26.367  50.251  48.274  1.00  0.00     0.002 A 
ENDBRANCH   6   7
ENDBRANCH   4   6
ENDBRANCH   1   4
BRANCH   1  16
HETATM   16  C   UNL     1      26.445  43.653  52.648  1.00  0.00     0.269 C 
BRANCH  16  17
HETATM   17  C   UNL     1      27.727  42.817  52.860  1.00  0.00     0.177 C 
BRANCH  17  18
HETATM   18  O   UNL     1      27.308  41.495  53.234  1.00  0.00    -0.389 OA
HETATM   19  H   UNL     1      27.749  40.881  52.611  1.00  0.00     0.210 HD
ENDBRANCH  17  18
BRANCH  17  20
HETATM   20  C   UNL     1      28.642  43.412  53.908  1.00  0.00    -0.025 A 
HETATM   21  C   UNL     1      28.223  44.560  54.610  1.00  0.00     0.046 A 
HETATM   22  C   UNL     1      29.033  45.135  55.592  1.00  0.00     0.068 A 
HETATM   23  C   UNL     1      30.272  44.562  55.876  1.00  0.00     0.037 A 
HETATM   24  C   UNL     1      30.704  43.428  55.191  1.00  0.00     0.003 A 
HETATM   25  C   UNL     1      29.891  42.851  54.216  1.00  0.00     0.010 A 
BRANCH  22  26
HETATM   26  O   UNL     1      28.731  46.236  56.341  1.00  0.00    -0.356 OA
HETATM   27  C   UNL     1      29.045  46.195  57.728  1.00  0.00     0.210 C 
ENDBRANCH  22  26
ENDBRANCH  17  20
ENDBRANCH  16  17
ENDBRANCH   1  16
TORSDOF 8
ENDMDL
MODEL 5
REMARK VINA RESULT:      -8.1      3.353      9.000
REMARK  8 active torsions:
REMARK  status: ('A' for Active; 'I' for Inactive)
REMARK    1  A    between atoms: C_2  and  N_3 
REMARK    2  A    between atoms: C_2  and  C_17 
REMARK    3  A    between atoms: N_3  and  C_6 
REMARK    4  A    between atoms: C_6  and  C_7 
REMARK    5  A    between atoms: C_7  and  O_8 
REMARK    6  A    between atoms: C_7  and  C_9 
REMARK    7  A    between atoms: C_11  and  O_12 
REMARK    8  A    between atoms: C_17  and  C_18 
ROOT
HETATM    1  N   UNL     1      25.398  44.813  52.076  1.00  0.00    -0.068 N 
HETATM    2  H   UNL     1      24.996  44.614  53.017  1.00  0.00     0.277 HD
HETATM    3  H   UNL     1      24.907  44.161  51.439  1.00  0.00     0.277 HD
ENDROOT
BRANCH   1   4
HETATM    4  C   UNL     1      25.112  46.257  51.764  1.00  0.00     0.188 C 
HETATM    5  C   UNL     1      26.017  47.148  52.608  1.00  0.00     0.040 C 
BRANCH   4   6
HETATM    6  C   UNL     1      25.342  46.529  50.262  1.00  0.00     0.099 C 
BRANCH   6   7
HETATM    7  C   UNL     1      24.289  47.432  49.695  1.00  0.00     0.078 A 
HETATM    8  S   UNL     1      22.982  46.793  48.797  1.00  0.00    -0.073 SA
HETATM    9  C   UNL     1      22.343  48.379  48.597  1.00  0.00     0.035 A 
HETATM   10  C   UNL     1      23.181  49.292  49.242  1.00  0.00     0.074 A 
HETATM   11  C   UNL     1      21.183  48.785  47.919  1.00  0.00     0.021 A 
HETATM   12  N   UNL     1      24.284  48.737  49.884  1.00  0.00    -0.245 NA
HETATM   13  C   UNL     1      22.854  50.662  49.194  1.00  0.00     0.033 A 
HETATM   14  C   UNL     1      21.701  51.078  48.520  1.00  0.00     0.002 A 
HETATM   15  C   UNL     1      20.876  50.149  47.893  1.00  0.00     0.002 A 
ENDBRANCH   6   7
ENDBRANCH   4   6
ENDBRANCH   1   4
BRANCH   1  16
HETATM   16  C   UNL     1      26.834  44.370  52.116  1.00  0.00     0.269 C 
BRANCH  16  17
HETATM   17  C   UNL     1      27.012  43.385  53.293  1.00  0.00     0.177 C 
BRANCH  17  18
HETATM   18  O   UNL     1      25.816  43.460  54.086  1.00  0.00    -0.389 OA
HETATM   19  H   UNL     1      26.056  43.126  54.975  1.00  0.00     0.210 HD
ENDBRANCH  17  18
BRANCH  17  20
HETATM   20  C   UNL     1      28.236  43.693  54.128  1.00  0.00    -0.025 A 
HETATM   21  C   UNL     1      28.224  44.826  54.966  1.00  0.00     0.046 A 
HETATM   22  C   UNL     1      29.330  45.141  55.760  1.00  0.00     0.068 A 
HETATM   23  C   UNL     1      30.456  44.321  55.717  1.00  0.00     0.037 A 
HETATM   24  C   UNL     1      30.486  43.197  54.894  1.00  0.00     0.003 A 
HETATM   25  C   UNL     1      29.379  42.879  54.108  1.00  0.00     0.010 A 
BRANCH  22  26
HETATM   26  O   UNL     1      29.431  46.202  56.614  1.00  0.00    -0.356 OA
HETATM   27  C   UNL     1      30.142  46.002  57.829  1.00  0.00     0.210 C 
ENDBRANCH  22  26
ENDBRANCH  17  20
ENDBRANCH  16  17
ENDBRANCH   1  16
TORSDOF 8
ENDMDL
MODEL 6
REMARK VINA RESULT:      -8.0     11.973     14.404
REMARK  8 active torsions:
REMARK  status: ('A' for Active; 'I' for Inactive)
REMARK    1  A    between atoms: C_2  and  N_3 
REMARK    2  A    between atoms: C_2  and  C_17 
REMARK    3  A    between atoms: N_3  and  C_6 
REMARK    4  A    between atoms: C_6  and  C_7 
REMARK    5  A    between atoms: C_7  and  O_8 
REMARK    6  A    between atoms: C_7  and  C_9 
REMARK    7  A    between atoms: C_11  and  O_12 
REMARK    8  A    between atoms: C_17  and  C_18 
ROOT
HETATM    1  N   UNL     1      26.823  48.226  39.246  1.00  0.00    -0.068 N 
HETATM    2  H   UNL     1      26.607  48.913  40.000  1.00  0.00     0.277 HD
HETATM    3  H   UNL     1      26.029  47.562  39.262  1.00  0.00     0.277 HD
ENDROOT
BRANCH   1   4
HETATM    4  C   UNL     1      26.916  48.993  37.955  1.00  0.00     0.188 C 
HETATM    5  C   UNL     1      25.726  48.643  37.068  1.00  0.00     0.040 C 
BRANCH   4   6
HETATM    6  C   UNL     1      26.941  50.510  38.243  1.00  0.00     0.099 C 
BRANCH   6   7
HETATM    7  C   UNL     1      28.315  50.979  38.614  1.00  0.00     0.078 A 
HETATM    8  S   UNL     1      28.557  51.977  39.982  1.00  0.00    -0.073 SA
HETATM    9  C   UNL     1      30.251  51.988  39.675  1.00  0.00     0.035 A 
HETATM   10  C   UNL     1      30.512  51.218  38.539  1.00  0.00     0.074 A 
HETATM   11  C   UNL     1      31.274  52.634  40.388  1.00  0.00     0.021 A 
HETATM   12  N   UNL     1      29.398  50.629  37.949  1.00  0.00    -0.245 NA
HETATM   13  C   UNL     1      31.844  51.101  38.093  1.00  0.00     0.033 A 
HETATM   14  C   UNL     1      32.871  51.739  38.796  1.00  0.00     0.002 A 
HETATM   15  C   UNL     1      32.588  52.494  39.930  1.00  0.00     0.002 A 
ENDBRANCH   6   7
ENDBRANCH   4   6
ENDBRANCH   1   4
BRANCH   1  16
HETATM   16  C   UNL     1      28.032  47.454  39.698  1.00  0.00     0.269 C 
BRANCH  16  17
HETATM   17  C   UNL     1      28.366  47.868  41.148  1.00  0.00     0.177 C 
BRANCH  17  18
HETATM   18  O   UNL     1      27.449  48.915  41.506  1.00  0.00    -0.389 OA
HETATM   19  H   UNL     1      27.999  49.686  41.758  1.00  0.00     0.210 HD
ENDBRANCH  17  18
BRANCH  17  20
HETATM   20  C   UNL     1      29.799  48.328  41.305  1.00  0.00    -0.025 A 
HETATM   21  C   UNL     1      30.143  49.127  42.414  1.00  0.00     0.046 A 
HETATM   22  C   UNL     1      31.457  49.566  42.601  1.00  0.00     0.068 A 
HETATM   23  C   UNL     1      32.435  49.206  41.674  1.00  0.00     0.037 A 
HETATM   24  C   UNL     1      32.112  48.417  40.571  1.00  0.00     0.003 A 
HETATM   25  C   UNL     1      30.803  47.975  40.390  1.00  0.00     0.010 A 
BRANCH  22  26
HETATM   26  O   UNL     1      31.910  50.331  43.636  1.00  0.00    -0.356 OA
HETATM   27  C   UNL     1      33.012  51.194  43.384  1.00  0.00     0.210 C 
ENDBRANCH  22  26
ENDBRANCH  17  20
ENDBRANCH  16  17
ENDBRANCH   1  16
TORSDOF 8
ENDMDL
MODEL 7
REMARK VINA RESULT:      -8.0      3.601      7.459
REMARK  8 active torsions:
REMARK  status: ('A' for Active; 'I' for Inactive)
REMARK    1  A    between atoms: C_2  and  N_3 
REMARK    2  A    between atoms: C_2  and  C_17 
REMARK    3  A    between atoms: N_3  and  C_6 
REMARK    4  A    between atoms: C_6  and  C_7 
REMARK    5  A    between atoms: C_7  and  O_8 
REMARK    6  A    between atoms: C_7  and  C_9 
REMARK    7  A    between atoms: C_11  and  O_12 
REMARK    8  A    between atoms: C_17  and  C_18 
ROOT
HETATM    1  N   UNL     1      28.501  40.405  52.525  1.00  0.00    -0.068 N 
HETATM    2  H   UNL     1      27.858  39.635  52.805  1.00  0.00     0.277 HD
HETATM    3  H   UNL     1      29.443  39.977  52.539  1.00  0.00     0.277 HD
ENDROOT
BRANCH   1   4
HETATM    4  C   UNL     1      28.086  40.856  51.151  1.00  0.00     0.188 C 
HETATM    5  C   UNL     1      28.375  39.749  50.143  1.00  0.00     0.040 C 
BRANCH   4   6
HETATM    6  C   UNL     1      26.583  41.209  51.142  1.00  0.00     0.099 C 
BRANCH   6   7
HETATM    7  C   UNL     1      26.362  42.688  51.054  1.00  0.00     0.078 A 
HETATM    8  S   UNL     1      26.526  43.509  49.563  1.00  0.00    -0.073 SA
HETATM    9  C   UNL     1      26.110  44.992  50.332  1.00  0.00     0.035 A 
HETATM   10  C   UNL     1      25.870  44.750  51.686  1.00  0.00     0.074 A 
HETATM   11  C   UNL     1      26.005  46.276  49.776  1.00  0.00     0.021 A 
HETATM   12  N   UNL     1      25.999  43.423  52.087  1.00  0.00    -0.245 NA
HETATM   13  C   UNL     1      25.525  45.835  52.517  1.00  0.00     0.033 A 
HETATM   14  C   UNL     1      25.417  47.119  51.973  1.00  0.00     0.002 A 
HETATM   15  C   UNL     1      25.653  47.334  50.619  1.00  0.00     0.002 A 
ENDBRANCH   6   7
ENDBRANCH   4   6
ENDBRANCH   1   4
BRANCH   1  16
HETATM   16  C   UNL     1      28.477  41.416  53.638  1.00  0.00     0.269 C 
BRANCH  16  17
HETATM   17  C   UNL     1      29.349  42.622  53.225  1.00  0.00     0.177 C 
BRANCH  17  18
HETATM   18  O   UNL     1      30.598  42.093  52.749  1.00  0.00    -0.389 OA
HETATM   19  H   UNL     1      31.025  42.814  52.241  1.00  0.00     0.210 HD
ENDBRANCH  17  18
BRANCH  17  20
HETATM   20  C   UNL     1      29.573  43.594  54.364  1.00  0.00    -0.025 A 
HETATM   21  C   UNL     1      28.672  44.664  54.537  1.00  0.00     0.046 A 
HETATM   22  C   UNL     1      28.837  45.578  55.581  1.00  0.00     0.068 A 
HETATM   23  C   UNL     1      29.911  45.426  56.457  1.00  0.00     0.037 A 
HETATM   24  C   UNL     1      30.813  44.375  56.300  1.00  0.00     0.003 A 
HETATM   25  C   UNL     1      30.643  43.460  55.263  1.00  0.00     0.010 A 
BRANCH  22  26
HETATM   26  O   UNL     1      28.027  46.643  55.854  1.00  0.00    -0.356 OA
HETATM   27  C   UNL     1      27.857  47.619  54.834  1.00  0.00     0.210 C 
ENDBRANCH  22  26
ENDBRANCH  17  20
ENDBRANCH  16  17
ENDBRANCH   1  16
TORSDOF 8
ENDMDL
MODEL 8
REMARK VINA RESULT:      -7.8      3.468      8.676
REMARK  8 active torsions:
REMARK  status: ('A' for Active; 'I' for Inactive)
REMARK    1  A    between atoms: C_2  and  N_3 
REMARK    2  A    between atoms: C_2  and  C_17 
REMARK    3  A    between atoms: N_3  and  C_6 
REMARK    4  A    between atoms: C_6  and  C_7 
REMARK    5  A    between atoms: C_7  and  O_8 
REMARK    6  A    between atoms: C_7  and  C_9 
REMARK    7  A    between atoms: C_11  and  O_12 
REMARK    8  A    between atoms: C_17  and  C_18 
ROOT
HETATM    1  N   UNL     1      27.018  43.482  50.706  1.00  0.00    -0.068 N 
HETATM    2  H   UNL     1      26.801  42.766  49.980  1.00  0.00     0.277 HD
HETATM    3  H   UNL     1      27.904  43.914  50.391  1.00  0.00     0.277 HD
ENDROOT
BRANCH   1   4
HETATM    4  C   UNL     1      25.871  44.455  50.728  1.00  0.00     0.188 C 
HETATM    5  C   UNL     1      24.786  43.943  51.669  1.00  0.00     0.040 C 
BRANCH   4   6
HETATM    6  C   UNL     1      26.365  45.845  51.188  1.00  0.00     0.099 C 
BRANCH   6   7
HETATM    7  C   UNL     1      25.726  46.948  50.399  1.00  0.00     0.078 A 
HETATM    8  S   UNL     1      26.683  48.065  49.527  1.00  0.00    -0.073 SA
HETATM    9  C   UNL     1      25.257  48.856  48.976  1.00  0.00     0.035 A 
HETATM   10  C   UNL     1      24.141  48.200  49.501  1.00  0.00     0.074 A 
HETATM   11  C   UNL     1      25.136  49.977  48.139  1.00  0.00     0.021 A 
HETATM   12  N   UNL     1      24.420  47.096  50.301  1.00  0.00    -0.245 NA
HETATM   13  C   UNL     1      22.858  48.693  49.188  1.00  0.00     0.033 A 
HETATM   14  C   UNL     1      22.725  49.809  48.356  1.00  0.00     0.002 A 
HETATM   15  C   UNL     1      23.852  50.440  47.837  1.00  0.00     0.002 A 
ENDBRANCH   6   7
ENDBRANCH   4   6
ENDBRANCH   1   4
BRANCH   1  16
HETATM   16  C   UNL     1      27.335  42.735  51.972  1.00  0.00     0.269 C 
BRANCH  16  17
HETATM   17  C   UNL     1      28.853  42.840  52.237  1.00  0.00     0.177 C 
BRANCH  17  18
HETATM   18  O   UNL     1      29.367  41.498  52.269  1.00  0.00    -0.389 OA
HETATM   19  H   UNL     1      29.985  41.460  53.028  1.00  0.00     0.210 HD
ENDBRANCH  17  18
BRANCH  17  20
HETATM   20  C   UNL     1      29.169  43.570  53.525  1.00  0.00    -0.025 A 
HETATM   21  C   UNL     1      30.227  43.107  54.332  1.00  0.00     0.046 A 
HETATM   22  C   UNL     1      30.557  43.757  55.524  1.00  0.00     0.068 A 
HETATM   23  C   UNL     1      29.824  44.877  55.915  1.00  0.00     0.037 A 
HETATM   24  C   UNL     1      28.773  45.349  55.130  1.00  0.00     0.003 A 
HETATM   25  C   UNL     1      28.450  44.703  53.937  1.00  0.00     0.010 A 
BRANCH  22  26
HETATM   26  O   UNL     1      31.562  43.409  56.379  1.00  0.00    -0.356 OA
HETATM   27  C   UNL     1      31.544  43.977  57.683  1.00  0.00     0.210 C 
ENDBRANCH  22  26
ENDBRANCH  17  20
ENDBRANCH  16  17
ENDBRANCH   1  16
TORSDOF 8
ENDMDL
MODEL 9
REMARK VINA RESULT:      -7.8      3.113      8.678
REMARK  8 active torsions:
REMARK  status: ('A' for Active; 'I' for Inactive)
REMARK    1  A    between atoms: C_2  and  N_3 
REMARK    2  A    between atoms: C_2  and  C_17 
REMARK    3  A    between atoms: N_3  and  C_6 
REMARK    4  A    between atoms: C_6  and  C_7 
REMARK    5  A    between atoms: C_7  and  O_8 
REMARK    6  A    between atoms: C_7  and  C_9 
REMARK    7  A    between atoms: C_11  and  O_12 
REMARK    8  A    between atoms: C_17  and  C_18 
ROOT
HETATM    1  N   UNL     1      25.346  46.660  52.226  1.00  0.00    -0.068 N 
HETATM    2  H   UNL     1      25.008  47.384  51.555  1.00  0.00     0.277 HD
HETATM    3  H   UNL     1      24.531  46.468  52.835  1.00  0.00     0.277 HD
ENDROOT
BRANCH   1   4
HETATM    4  C   UNL     1      25.765  45.463  51.417  1.00  0.00     0.188 C 
HETATM    5  C   UNL     1      24.717  44.364  51.553  1.00  0.00     0.040 C 
BRANCH   4   6
HETATM    6  C   UNL     1      25.936  45.860  49.934  1.00  0.00     0.099 C 
BRANCH   6   7
HETATM    7  C   UNL     1      25.101  47.054  49.582  1.00  0.00     0.078 A 
HETATM    8  S   UNL     1      25.836  48.541  49.164  1.00  0.00    -0.073 SA
HETATM    9  C   UNL     1      24.282  49.240  48.919  1.00  0.00     0.035 A 
HETATM   10  C   UNL     1      23.304  48.276  49.174  1.00  0.00     0.074 A 
HETATM   11  C   UNL     1      23.954  50.549  48.531  1.00  0.00     0.021 A 
HETATM   12  N   UNL     1      23.784  47.020  49.535  1.00  0.00    -0.245 NA
HETATM   13  C   UNL     1      21.948  48.639  49.048  1.00  0.00     0.033 A 
HETATM   14  C   UNL     1      21.609  49.939  48.661  1.00  0.00     0.002 A 
HETATM   15  C   UNL     1      22.601  50.880  48.404  1.00  0.00     0.002 A 
ENDBRANCH   6   7
ENDBRANCH   4   6
ENDBRANCH   1   4
BRANCH   1  16
HETATM   16  C   UNL     1      26.379  47.324  53.094  1.00  0.00     0.269 C 
BRANCH  16  17
HETATM   17  C   UNL     1      26.288  46.721  54.514  1.00  0.00     0.177 C 
BRANCH  17  18
HETATM   18  O   UNL     1      26.011  47.808  55.413  1.00  0.00    -0.389 OA
HETATM   19  H   UNL     1      25.044  47.957  55.373  1.00  0.00     0.210 HD
ENDBRANCH  17  18
BRANCH  17  20
HETATM   20  C   UNL     1      27.552  45.993  54.918  1.00  0.00    -0.025 A 
HETATM   21  C   UNL     1      28.270  46.444  56.044  1.00  0.00     0.046 A 
HETATM   22  C   UNL     1      29.436  45.794  56.457  1.00  0.00     0.068 A 
HETATM   23  C   UNL     1      29.892  44.689  55.739  1.00  0.00     0.037 A 
HETATM   24  C   UNL     1      29.196  44.231  54.622  1.00  0.00     0.003 A 
HETATM   25  C   UNL     1      28.028  44.875  54.216  1.00  0.00     0.010 A 
BRANCH  22  26
HETATM   26  O   UNL     1      30.207  46.130  57.532  1.00  0.00    -0.356 OA
HETATM   27  C   UNL     1      30.885  45.080  58.210  1.00  0.00     0.210 C 
ENDBRANCH  22  26
ENDBRANCH  17  20
ENDBRANCH  16  17
ENDBRANCH   1  16
TORSDOF 8
ENDMDL
MODEL 10
REMARK VINA RESULT:      -7.7     11.912     14.029
REMARK  8 active torsions:
REMARK  status: ('A' for Active; 'I' for Inactive)
REMARK    1  A    between atoms: C_2  and  N_3 
REMARK    2  A    between atoms: C_2  and  C_17 
REMARK    3  A    between atoms: N_3  and  C_6 
REMARK    4  A    between atoms: C_6  and  C_7 
REMARK    5  A    between atoms: C_7  and  O_8 
REMARK    6  A    between atoms: C_7  and  C_9 
REMARK    7  A    between atoms: C_11  and  O_12 
REMARK    8  A    between atoms: C_17  and  C_18 
ROOT
HETATM    1  N   UNL     1      27.296  47.338  41.111  1.00  0.00    -0.068 N 
HETATM    2  H   UNL     1      27.043  48.228  41.593  1.00  0.00     0.277 HD
HETATM    3  H   UNL     1      27.141  46.603  41.823  1.00  0.00     0.277 HD
ENDROOT
BRANCH   1   4
HETATM    4  C   UNL     1      26.385  47.201  39.922  1.00  0.00     0.188 C 
HETATM    5  C   UNL     1      25.434  46.029  40.142  1.00  0.00     0.040 C 
BRANCH   4   6
HETATM    6  C   UNL     1      25.585  48.506  39.715  1.00  0.00     0.099 C 
BRANCH   6   7
HETATM    7  C   UNL     1      26.490  49.695  39.597  1.00  0.00     0.078 A 
HETATM    8  S   UNL     1      27.049  50.219  38.068  1.00  0.00    -0.073 SA
HETATM    9  C   UNL     1      27.903  51.509  38.822  1.00  0.00     0.035 A 
HETATM   10  C   UNL     1      27.694  51.449  40.201  1.00  0.00     0.074 A 
HETATM   11  C   UNL     1      28.701  52.503  38.233  1.00  0.00     0.021 A 
HETATM   12  N   UNL     1      26.867  50.416  40.634  1.00  0.00    -0.245 NA
HETATM   13  C   UNL     1      28.317  52.410  41.023  1.00  0.00     0.033 A 
HETATM   14  C   UNL     1      29.114  53.404  40.448  1.00  0.00     0.002 A 
HETATM   15  C   UNL     1      29.301  53.450  39.070  1.00  0.00     0.002 A 
ENDBRANCH   6   7
ENDBRANCH   4   6
ENDBRANCH   1   4
BRANCH   1  16
HETATM   16  C   UNL     1      28.778  47.386  40.864  1.00  0.00     0.269 C 
BRANCH  16  17
HETATM   17  C   UNL     1      29.424  48.303  41.926  1.00  0.00     0.177 C 
BRANCH  17  18
HETATM   18  O   UNL     1      28.352  48.961  42.620  1.00  0.00    -0.389 OA
HETATM   19  H   UNL     1      28.376  49.899  42.336  1.00  0.00     0.210 HD
ENDBRANCH  17  18
BRANCH  17  20
HETATM   20  C   UNL     1      30.376  49.313  41.320  1.00  0.00    -0.025 A 
HETATM   21  C   UNL     1      31.038  50.223  42.169  1.00  0.00     0.046 A 
HETATM   22  C   UNL     1      31.931  51.165  41.652  1.00  0.00     0.068 A 
HETATM   23  C   UNL     1      32.164  51.201  40.277  1.00  0.00     0.037 A 
HETATM   24  C   UNL     1      31.518  50.309  39.423  1.00  0.00     0.003 A 
HETATM   25  C   UNL     1      30.633  49.365  39.941  1.00  0.00     0.010 A 
BRANCH  22  26
HETATM   26  O   UNL     1      32.635  52.087  42.372  1.00  0.00    -0.356 OA
HETATM   27  C   UNL     1      33.303  51.636  43.543  1.00  0.00     0.210 C 
ENDBRANCH  22  26
ENDBRANCH  17  20
ENDBRANCH  16  17
ENDBRANCH   1  16
TORSDOF 8
ENDMDL
