MODEL 1
REMARK VINA RESULT:      -8.8      0.000      0.000
REMARK  6 active torsions:
REMARK  status: ('A' for Active; 'I' for Inactive)
REMARK    1  A    between atoms: C_7  and  S_8 
REMARK    2  A    between atoms: S_8  and  C_9 
REMARK    3  A    between atoms: C_9  and  C_10 
REMARK    4  A    between atoms: C_18  and  C_19 
REMARK    5  A    between atoms: C_26  and  C_27 
REMARK    6  A    between atoms: C_27  and  O_28 
ROOT
HETATM    1  C   UNL     1      26.639  50.085  48.175  1.00  0.00     0.070 C 
HETATM    2  C   UNL     1      25.883  48.972  48.857  1.00  0.00     0.037 C 
HETATM    3  N   UNL     1      26.668  47.973  49.426  1.00  0.00    -0.192 N 
HETATM    4  C   UNL     1      26.179  47.057  50.283  1.00  0.00     0.726 A 
HETATM    5  N   UNL     1      24.827  46.960  50.463  1.00  0.00    -0.082 N 
HETATM    6  N   UNL     1      24.522  46.065  51.426  1.00  0.00    -0.128 NA
HETATM    7  C   UNL     1      25.745  45.634  51.763  1.00  0.00     0.226 A 
HETATM    8  N   UNL     1      26.784  46.211  51.072  1.00  0.00    -0.035 NA
HETATM    9  C   UNL     1      23.848  47.801  49.764  1.00  0.00     0.203 C 
HETATM   10  C   UNL     1      24.534  48.929  49.000  1.00  0.00     0.070 C 
HETATM   11  H   UNL     1      27.679  48.089  49.381  1.00  0.00     0.184 HD
ENDROOT
BRANCH   7  12
HETATM   12  S   UNL     1      26.040  44.477  53.028  1.00  0.00    -0.083 SA
BRANCH  12  13
HETATM   13  C   UNL     1      27.748  43.984  52.673  1.00  0.00     0.123 C 
BRANCH  13  14
HETATM   14  C   UNL     1      28.649  44.268  53.854  1.00  0.00    -0.027 A 
HETATM   15  C   UNL     1      29.790  43.504  54.147  1.00  0.00     0.041 A 
HETATM   16 CL   UNL     1      30.291  42.183  53.152  1.00  0.00    -0.084 Cl
HETATM   17  C   UNL     1      30.568  43.790  55.274  1.00  0.00     0.024 A 
HETATM   18  C   UNL     1      30.214  44.833  56.129  1.00  0.00     0.002 A 
HETATM   19  C   UNL     1      29.081  45.595  55.858  1.00  0.00     0.001 A 
HETATM   20  C   UNL     1      28.305  45.315  54.731  1.00  0.00     0.009 A 
ENDBRANCH  13  14
ENDBRANCH  12  13
ENDBRANCH   7  12
BRANCH   9  21
HETATM   21  C   UNL     1      22.972  46.943  48.850  1.00  0.00    -0.028 A 
HETATM   22  C   UNL     1      23.479  45.740  48.328  1.00  0.00     0.011 A 
HETATM   23  C   UNL     1      22.687  44.927  47.513  1.00  0.00     0.024 A 
HETATM   24  C   UNL     1      21.380  45.306  47.216  1.00  0.00     0.034 A 
HETATM   25 CL   UNL     1      20.405  44.302  46.216  1.00  0.00    -0.084 Cl
HETATM   26  C   UNL     1      20.858  46.490  47.728  1.00  0.00     0.024 A 
HETATM   27  C   UNL     1      21.646  47.303  48.545  1.00  0.00     0.011 A 
ENDBRANCH   9  21
BRANCH  10  28
HETATM   28  C   UNL     1      23.596  49.961  48.511  1.00  0.00     0.293 C 
HETATM   29  O   UNL     1      23.406  50.167  47.322  1.00  0.00    -0.259 OA
BRANCH  28  30
HETATM   30  O   UNL     1      23.054  50.659  49.537  1.00  0.00    -0.323 OA
HETATM   31  C   UNL     1      21.657  50.919  49.388  1.00  0.00     0.213 C 
ENDBRANCH  28  30
ENDBRANCH  10  28
TORSDOF 6
ENDMDL
MODEL 2
REMARK VINA RESULT:      -8.4      4.370      8.020
REMARK  6 active torsions:
REMARK  status: ('A' for Active; 'I' for Inactive)
REMARK    1  A    between atoms: C_7  and  S_8 
REMARK    2  A    between atoms: S_8  and  C_9 
REMARK    3  A    between atoms: C_9  and  C_10 
REMARK    4  A    between atoms: C_18  and  C_19 
REMARK    5  A    between atoms: C_26  and  C_27 
REMARK    6  A    between atoms: C_27  and  O_28 
ROOT
HETATM    1  C   UNL     1      26.853  43.259  54.866  1.00  0.00     0.070 C 
HETATM    2  C   UNL     1      26.611  43.306  53.379  1.00  0.00     0.037 C 
HETATM    3  N   UNL     1      25.401  43.870  52.983  1.00  0.00    -0.192 N 
HETATM    4  C   UNL     1      25.139  44.222  51.710  1.00  0.00     0.726 A 
HETATM    5  N   UNL     1      25.999  43.840  50.717  1.00  0.00    -0.082 N 
HETATM    6  N   UNL     1      25.637  44.364  49.526  1.00  0.00    -0.128 NA
HETATM    7  C   UNL     1      24.525  45.026  49.872  1.00  0.00     0.226 A 
HETATM    8  N   UNL     1      24.183  44.950  51.201  1.00  0.00    -0.035 NA
HETATM    9  C   UNL     1      27.212  43.049  50.948  1.00  0.00     0.203 C 
HETATM   10  C   UNL     1      27.504  42.906  52.438  1.00  0.00     0.070 C 
HETATM   11  H   UNL     1      24.799  44.245  53.713  1.00  0.00     0.184 HD
ENDROOT
BRANCH   7  12
HETATM   12  S   UNL     1      23.594  45.984  48.758  1.00  0.00    -0.083 SA
BRANCH  12  13
HETATM   13  C   UNL     1      23.576  47.592  49.594  1.00  0.00     0.123 C 
BRANCH  13  14
HETATM   14  C   UNL     1      24.805  48.399  49.238  1.00  0.00    -0.027 A 
HETATM   15  C   UNL     1      24.765  49.522  48.395  1.00  0.00     0.041 A 
HETATM   16 CL   UNL     1      23.289  50.108  47.714  1.00  0.00    -0.084 Cl
HETATM   17  C   UNL     1      25.940  50.210  48.071  1.00  0.00     0.024 A 
HETATM   18  C   UNL     1      27.168  49.784  48.573  1.00  0.00     0.002 A 
HETATM   19  C   UNL     1      27.226  48.668  49.403  1.00  0.00     0.001 A 
HETATM   20  C   UNL     1      26.056  47.981  49.732  1.00  0.00     0.009 A 
ENDBRANCH  13  14
ENDBRANCH  12  13
ENDBRANCH   7  12
BRANCH   9  21
HETATM   21  C   UNL     1      27.094  41.689  50.257  1.00  0.00    -0.028 A 
HETATM   22  C   UNL     1      27.939  41.381  49.176  1.00  0.00     0.011 A 
HETATM   23  C   UNL     1      27.867  40.135  48.548  1.00  0.00     0.024 A 
HETATM   24  C   UNL     1      26.953  39.184  48.995  1.00  0.00     0.034 A 
HETATM   25 CL   UNL     1      26.867  37.649  48.224  1.00  0.00    -0.084 Cl
HETATM   26  C   UNL     1      26.112  39.467  50.067  1.00  0.00     0.024 A 
HETATM   27  C   UNL     1      26.183  40.711  50.699  1.00  0.00     0.011 A 
ENDBRANCH   9  21
BRANCH  10  28
HETATM   28  C   UNL     1      28.850  42.363  52.722  1.00  0.00     0.293 C 
HETATM   29  O   UNL     1      29.071  41.164  52.801  1.00  0.00    -0.259 OA
BRANCH  28  30
HETATM   30  O   UNL     1      29.745  43.355  52.938  1.00  0.00    -0.323 OA
HETATM   31  C   UNL     1      30.464  43.230  54.167  1.00  0.00     0.213 C 
ENDBRANCH  28  30
ENDBRANCH  10  28
TORSDOF 6
ENDMDL
MODEL 3
REMARK VINA RESULT:      -8.3      3.183      4.309
REMARK  6 active torsions:
REMARK  status: ('A' for Active; 'I' for Inactive)
REMARK    1  A    between atoms: C_7  and  S_8 
REMARK    2  A    between atoms: S_8  and  C_9 
REMARK    3  A    between atoms: C_9  and  C_10 
REMARK    4  A    between atoms: C_18  and  C_19 
REMARK    5  A    between atoms: C_26  and  C_27 
REMARK    6  A    between atoms: C_27  and  O_28 
ROOT
HETATM    1  C   UNL     1      19.942  52.078  48.537  1.00  0.00     0.070 C 
HETATM    2  C   UNL     1      20.681  50.771  48.670  1.00  0.00     0.037 C 
HETATM    3  N   UNL     1      22.051  50.826  48.424  1.00  0.00    -0.192 N 
HETATM    4  C   UNL     1      22.893  49.825  48.743  1.00  0.00     0.726 A 
HETATM    5  N   UNL     1      22.384  48.621  49.144  1.00  0.00    -0.082 N 
HETATM    6  N   UNL     1      23.365  47.774  49.521  1.00  0.00    -0.128 NA
HETATM    7  C   UNL     1      24.448  48.527  49.288  1.00  0.00     0.226 A 
HETATM    8  N   UNL     1      24.197  49.786  48.799  1.00  0.00    -0.035 NA
HETATM    9  C   UNL     1      20.948  48.335  49.245  1.00  0.00     0.203 C 
HETATM   10  C   UNL     1      20.118  49.601  49.069  1.00  0.00     0.070 C 
HETATM   11  H   UNL     1      22.453  51.738  48.221  1.00  0.00     0.184 HD
ENDROOT
BRANCH   7  12
HETATM   12  S   UNL     1      26.072  48.005  49.635  1.00  0.00    -0.083 SA
BRANCH  12  13
HETATM   13  C   UNL     1      25.809  46.258  50.039  1.00  0.00     0.123 C 
BRANCH  13  14
HETATM   14  C   UNL     1      25.820  46.043  51.536  1.00  0.00    -0.027 A 
HETATM   15  C   UNL     1      25.519  44.808  52.134  1.00  0.00     0.041 A 
HETATM   16 CL   UNL     1      25.142  43.403  51.200  1.00  0.00    -0.084 Cl
HETATM   17  C   UNL     1      25.510  44.675  53.527  1.00  0.00     0.024 A 
HETATM   18  C   UNL     1      25.790  45.770  54.342  1.00  0.00     0.002 A 
HETATM   19  C   UNL     1      26.083  47.003  53.766  1.00  0.00     0.001 A 
HETATM   20  C   UNL     1      26.097  47.139  52.376  1.00  0.00     0.009 A 
ENDBRANCH  13  14
ENDBRANCH  12  13
ENDBRANCH   7  12
BRANCH   9  21
HETATM   21  C   UNL     1      20.555  47.251  48.240  1.00  0.00    -0.028 A 
HETATM   22  C   UNL     1      19.988  46.048  48.698  1.00  0.00     0.011 A 
HETATM   23  C   UNL     1      19.596  45.056  47.796  1.00  0.00     0.024 A 
HETATM   24  C   UNL     1      19.765  45.256  46.428  1.00  0.00     0.034 A 
HETATM   25 CL   UNL     1      19.279  44.036  45.318  1.00  0.00    -0.084 Cl
HETATM   26  C   UNL     1      20.319  46.442  45.954  1.00  0.00     0.024 A 
HETATM   27  C   UNL     1      20.709  47.437  46.853  1.00  0.00     0.011 A 
ENDBRANCH   9  21
BRANCH  10  28
HETATM   28  C   UNL     1      18.697  49.426  49.433  1.00  0.00     0.293 C 
HETATM   29  O   UNL     1      17.834  49.167  48.608  1.00  0.00    -0.259 OA
BRANCH  28  30
HETATM   30  O   UNL     1      18.495  49.654  50.752  1.00  0.00    -0.323 OA
HETATM   31  C   UNL     1      18.458  48.468  51.548  1.00  0.00     0.213 C 
ENDBRANCH  28  30
ENDBRANCH  10  28
TORSDOF 6
ENDMDL
MODEL 4
REMARK VINA RESULT:      -8.2      3.005      4.556
REMARK  6 active torsions:
REMARK  status: ('A' for Active; 'I' for Inactive)
REMARK    1  A    between atoms: C_7  and  S_8 
REMARK    2  A    between atoms: S_8  and  C_9 
REMARK    3  A    between atoms: C_9  and  C_10 
REMARK    4  A    between atoms: C_18  and  C_19 
REMARK    5  A    between atoms: C_26  and  C_27 
REMARK    6  A    between atoms: C_27  and  O_28 
ROOT
HETATM    1  C   UNL     1      21.127  43.776  47.512  1.00  0.00     0.070 C 
HETATM    2  C   UNL     1      21.817  44.997  48.066  1.00  0.00     0.037 C 
HETATM    3  N   UNL     1      22.514  44.806  49.256  1.00  0.00    -0.192 N 
HETATM    4  C   UNL     1      23.387  45.706  49.747  1.00  0.00     0.726 A 
HETATM    5  N   UNL     1      23.461  46.947  49.177  1.00  0.00    -0.082 N 
HETATM    6  N   UNL     1      24.454  47.680  49.725  1.00  0.00    -0.128 NA
HETATM    7  C   UNL     1      24.918  46.824  50.646  1.00  0.00     0.226 A 
HETATM    8  N   UNL     1      24.278  45.609  50.696  1.00  0.00    -0.035 NA
HETATM    9  C   UNL     1      22.631  47.379  48.048  1.00  0.00     0.203 C 
HETATM   10  C   UNL     1      21.852  46.209  47.456  1.00  0.00     0.070 C 
HETATM   11  H   UNL     1      22.545  43.861  49.634  1.00  0.00     0.184 HD
ENDROOT
BRANCH   7  12
HETATM   12  S   UNL     1      26.277  47.167  51.676  1.00  0.00    -0.083 SA
BRANCH  12  13
HETATM   13  C   UNL     1      25.779  46.345  53.213  1.00  0.00     0.123 C 
BRANCH  13  14
HETATM   14  C   UNL     1      26.988  45.971  54.041  1.00  0.00    -0.027 A 
HETATM   15  C   UNL     1      27.508  46.796  55.051  1.00  0.00     0.041 A 
HETATM   16 CL   UNL     1      26.784  48.309  55.465  1.00  0.00    -0.084 Cl
HETATM   17  C   UNL     1      28.652  46.415  55.762  1.00  0.00     0.024 A 
HETATM   18  C   UNL     1      29.296  45.214  55.471  1.00  0.00     0.002 A 
HETATM   19  C   UNL     1      28.798  44.388  54.468  1.00  0.00     0.001 A 
HETATM   20  C   UNL     1      27.655  44.763  53.758  1.00  0.00     0.009 A 
ENDBRANCH  13  14
ENDBRANCH  12  13
ENDBRANCH   7  12
BRANCH   9  21
HETATM   21  C   UNL     1      21.707  48.520  48.477  1.00  0.00    -0.028 A 
HETATM   22  C   UNL     1      21.976  49.832  48.051  1.00  0.00     0.011 A 
HETATM   23  C   UNL     1      21.130  50.885  48.409  1.00  0.00     0.024 A 
HETATM   24  C   UNL     1      20.007  50.637  49.194  1.00  0.00     0.034 A 
HETATM   25 CL   UNL     1      18.964  51.933  49.631  1.00  0.00    -0.084 Cl
HETATM   26  C   UNL     1      19.720  49.344  49.621  1.00  0.00     0.024 A 
HETATM   27  C   UNL     1      20.562  48.289  49.263  1.00  0.00     0.011 A 
ENDBRANCH   9  21
BRANCH  10  28
HETATM   28  C   UNL     1      21.220  46.522  46.157  1.00  0.00     0.293 C 
HETATM   29  O   UNL     1      20.118  47.040  46.070  1.00  0.00    -0.259 OA
BRANCH  28  30
HETATM   30  O   UNL     1      21.987  46.104  45.123  1.00  0.00    -0.323 OA
HETATM   31  C   UNL     1      21.242  45.709  43.969  1.00  0.00     0.213 C 
ENDBRANCH  28  30
ENDBRANCH  10  28
TORSDOF 6
ENDMDL
MODEL 5
REMARK VINA RESULT:      -8.1      9.389     13.592
REMARK  6 active torsions:
REMARK  status: ('A' for Active; 'I' for Inactive)
REMARK    1  A    between atoms: C_7  and  S_8 
REMARK    2  A    between atoms: S_8  and  C_9 
REMARK    3  A    between atoms: C_9  and  C_10 
REMARK    4  A    between atoms: C_18  and  C_19 
REMARK    5  A    between atoms: C_26  and  C_27 
REMARK    6  A    between atoms: C_27  and  O_28 
ROOT
HETATM    1  C   UNL     1      14.795  52.128  45.073  1.00  0.00     0.070 C 
HETATM    2  C   UNL     1      15.192  52.243  46.523  1.00  0.00     0.037 C 
HETATM    3  N   UNL     1      14.917  53.468  47.126  1.00  0.00    -0.192 N 
HETATM    4  C   UNL     1      14.967  53.655  48.459  1.00  0.00     0.726 A 
HETATM    5  N   UNL     1      15.495  52.677  49.255  1.00  0.00    -0.082 N 
HETATM    6  N   UNL     1      15.371  52.988  50.563  1.00  0.00    -0.128 NA
HETATM    7  C   UNL     1      14.785  54.189  50.479  1.00  0.00     0.226 A 
HETATM    8  N   UNL     1      14.534  54.635  49.204  1.00  0.00    -0.035 NA
HETATM    9  C   UNL     1      16.033  51.410  48.744  1.00  0.00     0.203 C 
HETATM   10  C   UNL     1      15.720  51.235  47.262  1.00  0.00     0.070 C 
HETATM   11  H   UNL     1      14.434  54.167  46.566  1.00  0.00     0.184 HD
ENDROOT
BRANCH   7  12
HETATM   12  S   UNL     1      14.298  55.118  51.868  1.00  0.00    -0.083 SA
BRANCH  12  13
HETATM   13  C   UNL     1      14.823  56.785  51.388  1.00  0.00     0.123 C 
BRANCH  13  14
HETATM   14  C   UNL     1      15.121  57.629  52.607  1.00  0.00    -0.027 A 
HETATM   15  C   UNL     1      14.848  59.005  52.669  1.00  0.00     0.041 A 
HETATM   16 CL   UNL     1      14.107  59.855  51.360  1.00  0.00    -0.084 Cl
HETATM   17  C   UNL     1      15.178  59.744  53.811  1.00  0.00     0.024 A 
HETATM   18  C   UNL     1      15.791  59.126  54.899  1.00  0.00     0.002 A 
HETATM   19  C   UNL     1      16.076  57.764  54.850  1.00  0.00     0.001 A 
HETATM   20  C   UNL     1      15.744  57.022  53.714  1.00  0.00     0.009 A 
ENDBRANCH  13  14
ENDBRANCH  12  13
ENDBRANCH   7  12
BRANCH   9  21
HETATM   21  C   UNL     1      17.533  51.323  49.026  1.00  0.00    -0.028 A 
HETATM   22  C   UNL     1      18.016  50.377  49.946  1.00  0.00     0.011 A 
HETATM   23  C   UNL     1      19.386  50.261  50.198  1.00  0.00     0.024 A 
HETATM   24  C   UNL     1      20.286  51.087  49.530  1.00  0.00     0.034 A 
HETATM   25 CL   UNL     1      21.972  50.941  49.837  1.00  0.00    -0.084 Cl
HETATM   26  C   UNL     1      19.829  52.026  48.610  1.00  0.00     0.024 A 
HETATM   27  C   UNL     1      18.461  52.142  48.355  1.00  0.00     0.011 A 
ENDBRANCH   9  21
BRANCH  10  28
HETATM   28  C   UNL     1      15.989  49.869  46.765  1.00  0.00     0.293 C 
HETATM   29  O   UNL     1      16.937  49.608  46.040  1.00  0.00    -0.259 OA
BRANCH  28  30
HETATM   30  O   UNL     1      15.028  49.002  47.161  1.00  0.00    -0.323 OA
HETATM   31  C   UNL     1      14.204  48.521  46.098  1.00  0.00     0.213 C 
ENDBRANCH  28  30
ENDBRANCH  10  28
TORSDOF 6
ENDMDL
MODEL 6
REMARK VINA RESULT:      -8.1      5.501      8.059
REMARK  6 active torsions:
REMARK  status: ('A' for Active; 'I' for Inactive)
REMARK    1  A    between atoms: C_7  and  S_8 
REMARK    2  A    between atoms: S_8  and  C_9 
REMARK    3  A    between atoms: C_9  and  C_10 
REMARK    4  A    between atoms: C_18  and  C_19 
REMARK    5  A    between atoms: C_26  and  C_27 
REMARK    6  A    between atoms: C_27  and  O_28 
ROOT
HETATM    1  C   UNL     1      30.218  43.066  54.281  1.00  0.00     0.070 C 
HETATM    2  C   UNL     1      29.083  42.926  53.299  1.00  0.00     0.037 C 
HETATM    3  N   UNL     1      29.293  42.023  52.261  1.00  0.00    -0.192 N 
HETATM    4  C   UNL     1      28.304  41.589  51.456  1.00  0.00     0.726 A 
HETATM    5  N   UNL     1      27.078  42.193  51.514  1.00  0.00    -0.082 N 
HETATM    6  N   UNL     1      26.185  41.567  50.718  1.00  0.00    -0.128 NA
HETATM    7  C   UNL     1      26.954  40.609  50.183  1.00  0.00     0.226 A 
HETATM    8  N   UNL     1      28.263  40.601  50.604  1.00  0.00    -0.035 NA
HETATM    9  C   UNL     1      26.761  43.313  52.406  1.00  0.00     0.203 C 
HETATM   10  C   UNL     1      27.886  43.559  53.405  1.00  0.00     0.070 C 
HETATM   11  H   UNL     1      30.164  41.496  52.268  1.00  0.00     0.184 HD
ENDROOT
BRANCH   7  12
HETATM   12  S   UNL     1      26.357  39.401  49.084  1.00  0.00    -0.083 SA
BRANCH  12  13
HETATM   13  C   UNL     1      27.900  38.751  48.389  1.00  0.00     0.123 C 
BRANCH  13  14
HETATM   14  C   UNL     1      28.047  39.147  46.937  1.00  0.00    -0.027 A 
HETATM   15  C   UNL     1      28.278  38.217  45.911  1.00  0.00     0.041 A 
HETATM   16 CL   UNL     1      28.379  36.519  46.215  1.00  0.00    -0.084 Cl
HETATM   17  C   UNL     1      28.442  38.644  44.588  1.00  0.00     0.024 A 
HETATM   18  C   UNL     1      28.387  40.000  44.272  1.00  0.00     0.002 A 
HETATM   19  C   UNL     1      28.166  40.936  45.279  1.00  0.00     0.001 A 
HETATM   20  C   UNL     1      27.998  40.514  46.600  1.00  0.00     0.009 A 
ENDBRANCH  13  14
ENDBRANCH  12  13
ENDBRANCH   7  12
BRANCH   9  21
HETATM   21  C   UNL     1      26.440  44.565  51.588  1.00  0.00    -0.028 A 
HETATM   22  C   UNL     1      25.401  45.418  51.999  1.00  0.00     0.011 A 
HETATM   23  C   UNL     1      25.109  46.581  51.282  1.00  0.00     0.024 A 
HETATM   24  C   UNL     1      25.854  46.904  50.150  1.00  0.00     0.034 A 
HETATM   25 CL   UNL     1      25.496  48.339  49.271  1.00  0.00    -0.084 Cl
HETATM   26  C   UNL     1      26.890  46.076  49.731  1.00  0.00     0.024 A 
HETATM   27  C   UNL     1      27.187  44.914  50.447  1.00  0.00     0.011 A 
ENDBRANCH   9  21
BRANCH  10  28
HETATM   28  C   UNL     1      27.509  44.481  54.497  1.00  0.00     0.293 C 
HETATM   29  O   UNL     1      26.637  44.216  55.310  1.00  0.00    -0.259 OA
BRANCH  28  30
HETATM   30  O   UNL     1      28.200  45.643  54.421  1.00  0.00    -0.323 OA
HETATM   31  C   UNL     1      28.630  46.147  55.687  1.00  0.00     0.213 C 
ENDBRANCH  28  30
ENDBRANCH  10  28
TORSDOF 6
ENDMDL
MODEL 7
REMARK VINA RESULT:      -8.0      4.908      6.345
REMARK  6 active torsions:
REMARK  status: ('A' for Active; 'I' for Inactive)
REMARK    1  A    between atoms: C_7  and  S_8 
REMARK    2  A    between atoms: S_8  and  C_9 
REMARK    3  A    between atoms: C_9  and  C_10 
REMARK    4  A    between atoms: C_18  and  C_19 
REMARK    5  A    between atoms: C_26  and  C_27 
REMARK    6  A    between atoms: C_27  and  O_28 
ROOT
HETATM    1  C   UNL     1      23.459  44.506  47.896  1.00  0.00     0.070 C 
HETATM    2  C   UNL     1      24.493  43.555  48.444  1.00  0.00     0.037 C 
HETATM    3  N   UNL     1      25.568  44.147  49.101  1.00  0.00    -0.192 N 
HETATM    4  C   UNL     1      26.433  43.451  49.863  1.00  0.00     0.726 A 
HETATM    5  N   UNL     1      26.394  42.085  49.846  1.00  0.00    -0.082 N 
HETATM    6  N   UNL     1      27.258  41.558  50.741  1.00  0.00    -0.128 NA
HETATM    7  C   UNL     1      27.810  42.671  51.240  1.00  0.00     0.226 A 
HETATM    8  N   UNL     1      27.338  43.850  50.716  1.00  0.00    -0.035 NA
HETATM    9  C   UNL     1      25.457  41.305  49.030  1.00  0.00     0.203 C 
HETATM   10  C   UNL     1      24.402  42.201  48.392  1.00  0.00     0.070 C 
HETATM   11  H   UNL     1      25.553  45.159  49.204  1.00  0.00     0.184 HD
ENDROOT
BRANCH   7  12
HETATM   12  S   UNL     1      28.996  42.666  52.514  1.00  0.00    -0.083 SA
BRANCH  12  13
HETATM   13  C   UNL     1      28.350  43.956  53.611  1.00  0.00     0.123 C 
BRANCH  13  14
HETATM   14  C   UNL     1      29.271  44.171  54.791  1.00  0.00    -0.027 A 
HETATM   15  C   UNL     1      29.306  45.367  55.527  1.00  0.00     0.041 A 
HETATM   16 CL   UNL     1      28.264  46.698  55.166  1.00  0.00    -0.084 Cl
HETATM   17  C   UNL     1      30.204  45.524  56.588  1.00  0.00     0.024 A 
HETATM   18  C   UNL     1      31.084  44.497  56.925  1.00  0.00     0.002 A 
HETATM   19  C   UNL     1      31.068  43.308  56.202  1.00  0.00     0.001 A 
HETATM   20  C   UNL     1      30.170  43.146  55.144  1.00  0.00     0.009 A 
ENDBRANCH  13  14
ENDBRANCH  12  13
ENDBRANCH   7  12
BRANCH   9  21
HETATM   21  C   UNL     1      26.220  40.489  47.986  1.00  0.00    -0.028 A 
HETATM   22  C   UNL     1      26.045  39.095  47.925  1.00  0.00     0.011 A 
HETATM   23  C   UNL     1      26.711  38.334  46.961  1.00  0.00     0.024 A 
HETATM   24  C   UNL     1      27.556  38.958  46.047  1.00  0.00     0.034 A 
HETATM   25 CL   UNL     1      28.372  38.021  44.858  1.00  0.00    -0.084 Cl
HETATM   26  C   UNL     1      27.739  40.337  46.086  1.00  0.00     0.024 A 
HETATM   27  C   UNL     1      27.073  41.101  47.047  1.00  0.00     0.011 A 
ENDBRANCH   9  21
BRANCH  10  28
HETATM   28  C   UNL     1      23.279  41.449  47.793  1.00  0.00     0.293 C 
HETATM   29  O   UNL     1      22.361  40.997  48.460  1.00  0.00    -0.259 OA
BRANCH  28  30
HETATM   30  O   UNL     1      23.450  41.287  46.460  1.00  0.00    -0.323 OA
HETATM   31  C   UNL     1      22.250  41.425  45.698  1.00  0.00     0.213 C 
ENDBRANCH  28  30
ENDBRANCH  10  28
TORSDOF 6
ENDMDL
MODEL 8
REMARK VINA RESULT:      -8.0      3.150      4.458
REMARK  6 active torsions:
REMARK  status: ('A' for Active; 'I' for Inactive)
REMARK    1  A    between atoms: C_7  and  S_8 
REMARK    2  A    between atoms: S_8  and  C_9 
REMARK    3  A    between atoms: C_9  and  C_10 
REMARK    4  A    between atoms: C_18  and  C_19 
REMARK    5  A    between atoms: C_26  and  C_27 
REMARK    6  A    between atoms: C_27  and  O_28 
ROOT
HETATM    1  C   UNL     1      19.946  52.081  48.557  1.00  0.00     0.070 C 
HETATM    2  C   UNL     1      20.698  50.780  48.683  1.00  0.00     0.037 C 
HETATM    3  N   UNL     1      22.067  50.850  48.439  1.00  0.00    -0.192 N 
HETATM    4  C   UNL     1      22.919  49.856  48.755  1.00  0.00     0.726 A 
HETATM    5  N   UNL     1      22.421  48.645  49.148  1.00  0.00    -0.082 N 
HETATM    6  N   UNL     1      23.410  47.805  49.521  1.00  0.00    -0.128 NA
HETATM    7  C   UNL     1      24.487  48.570  49.294  1.00  0.00     0.226 A 
HETATM    8  N   UNL     1      24.223  49.830  48.812  1.00  0.00    -0.035 NA
HETATM    9  C   UNL     1      20.989  48.344  49.244  1.00  0.00     0.203 C 
HETATM   10  C   UNL     1      20.146  49.603  49.074  1.00  0.00     0.070 C 
HETATM   11  H   UNL     1      22.461  51.768  48.242  1.00  0.00     0.184 HD
ENDROOT
BRANCH   7  12
HETATM   12  S   UNL     1      26.114  48.063  49.641  1.00  0.00    -0.083 SA
BRANCH  12  13
HETATM   13  C   UNL     1      25.908  47.275  51.260  1.00  0.00     0.123 C 
BRANCH  13  14
HETATM   14  C   UNL     1      26.254  45.804  51.192  1.00  0.00    -0.027 A 
HETATM   15  C   UNL     1      26.399  44.999  52.333  1.00  0.00     0.041 A 
HETATM   16 CL   UNL     1      26.158  45.615  53.929  1.00  0.00    -0.084 Cl
HETATM   17  C   UNL     1      26.755  43.651  52.212  1.00  0.00     0.024 A 
HETATM   18  C   UNL     1      26.980  43.091  50.956  1.00  0.00     0.002 A 
HETATM   19  C   UNL     1      26.847  43.877  49.815  1.00  0.00     0.001 A 
HETATM   20  C   UNL     1      26.488  45.221  49.931  1.00  0.00     0.009 A 
ENDBRANCH  13  14
ENDBRANCH  12  13
ENDBRANCH   7  12
BRANCH   9  21
HETATM   21  C   UNL     1      20.608  47.261  48.233  1.00  0.00    -0.028 A 
HETATM   22  C   UNL     1      20.087  46.036  48.685  1.00  0.00     0.011 A 
HETATM   23  C   UNL     1      19.708  45.044  47.778  1.00  0.00     0.024 A 
HETATM   24  C   UNL     1      19.841  45.268  46.409  1.00  0.00     0.034 A 
HETATM   25 CL   UNL     1      19.369  44.048  45.293  1.00  0.00    -0.084 Cl
HETATM   26  C   UNL     1      20.348  46.476  45.941  1.00  0.00     0.024 A 
HETATM   27  C   UNL     1      20.727  47.471  46.846  1.00  0.00     0.011 A 
ENDBRANCH   9  21
BRANCH  10  28
HETATM   28  C   UNL     1      18.726  49.411  49.436  1.00  0.00     0.293 C 
HETATM   29  O   UNL     1      17.871  49.123  48.612  1.00  0.00    -0.259 OA
BRANCH  28  30
HETATM   30  O   UNL     1      18.514  49.660  50.749  1.00  0.00    -0.323 OA
HETATM   31  C   UNL     1      18.505  48.490  51.569  1.00  0.00     0.213 C 
ENDBRANCH  28  30
ENDBRANCH  10  28
TORSDOF 6
ENDMDL
MODEL 9
REMARK VINA RESULT:      -8.0      4.228      9.103
REMARK  6 active torsions:
REMARK  status: ('A' for Active; 'I' for Inactive)
REMARK    1  A    between atoms: C_7  and  S_8 
REMARK    2  A    between atoms: S_8  and  C_9 
REMARK    3  A    between atoms: C_9  and  C_10 
REMARK    4  A    between atoms: C_18  and  C_19 
REMARK    5  A    between atoms: C_26  and  C_27 
REMARK    6  A    between atoms: C_27  and  O_28 
ROOT
HETATM    1  C   UNL     1      27.545  41.023  47.957  1.00  0.00     0.070 C 
HETATM    2  C   UNL     1      27.192  41.968  49.078  1.00  0.00     0.037 C 
HETATM    3  N   UNL     1      26.978  43.292  48.704  1.00  0.00    -0.192 N 
HETATM    4  C   UNL     1      26.411  44.201  49.520  1.00  0.00     0.726 A 
HETATM    5  N   UNL     1      26.210  43.888  50.836  1.00  0.00    -0.082 N 
HETATM    6  N   UNL     1      25.542  44.871  51.477  1.00  0.00    -0.128 NA
HETATM    7  C   UNL     1      25.402  45.764  50.489  1.00  0.00     0.226 A 
HETATM    8  N   UNL     1      25.934  45.391  49.278  1.00  0.00    -0.035 NA
HETATM    9  C   UNL     1      26.585  42.603  51.437  1.00  0.00     0.203 C 
HETATM   10  C   UNL     1      27.010  41.598  50.372  1.00  0.00     0.070 C 
HETATM   11  H   UNL     1      27.029  43.512  47.711  1.00  0.00     0.184 HD
ENDROOT
BRANCH   7  12
HETATM   12  S   UNL     1      24.550  47.270  50.670  1.00  0.00    -0.083 SA
BRANCH  12  13
HETATM   13  C   UNL     1      23.620  47.347  49.116  1.00  0.00     0.123 C 
BRANCH  13  14
HETATM   14  C   UNL     1      22.973  48.702  48.941  1.00  0.00    -0.027 A 
HETATM   15  C   UNL     1      23.693  49.854  48.584  1.00  0.00     0.041 A 
HETATM   16 CL   UNL     1      25.393  49.815  48.276  1.00  0.00    -0.084 Cl
HETATM   17  C   UNL     1      23.048  51.090  48.471  1.00  0.00     0.024 A 
HETATM   18  C   UNL     1      21.681  51.198  48.720  1.00  0.00     0.002 A 
HETATM   19  C   UNL     1      20.953  50.068  49.082  1.00  0.00     0.001 A 
HETATM   20  C   UNL     1      21.593  48.831  49.192  1.00  0.00     0.009 A 
ENDBRANCH  13  14
ENDBRANCH  12  13
ENDBRANCH   7  12
BRANCH   9  21
HETATM   21  C   UNL     1      27.674  42.812  52.490  1.00  0.00    -0.028 A 
HETATM   22  C   UNL     1      29.024  42.848  52.100  1.00  0.00     0.011 A 
HETATM   23  C   UNL     1      30.033  43.065  53.042  1.00  0.00     0.024 A 
HETATM   24  C   UNL     1      29.702  43.252  54.382  1.00  0.00     0.034 A 
HETATM   25 CL   UNL     1      30.945  43.523  55.540  1.00  0.00    -0.084 Cl
HETATM   26  C   UNL     1      28.372  43.226  54.788  1.00  0.00     0.024 A 
HETATM   27  C   UNL     1      27.361  43.012  53.848  1.00  0.00     0.011 A 
ENDBRANCH   9  21
BRANCH  10  28
HETATM   28  C   UNL     1      27.130  40.217  50.884  1.00  0.00     0.293 C 
HETATM   29  O   UNL     1      26.157  39.522  51.135  1.00  0.00    -0.259 OA
BRANCH  28  30
HETATM   30  O   UNL     1      28.425  39.879  51.089  1.00  0.00    -0.323 OA
HETATM   31  C   UNL     1      28.863  38.761  50.314  1.00  0.00     0.213 C 
ENDBRANCH  28  30
ENDBRANCH  10  28
TORSDOF 6
ENDMDL
MODEL 10
REMARK VINA RESULT:      -7.9      5.766      7.392
REMARK  6 active torsions:
REMARK  status: ('A' for Active; 'I' for Inactive)
REMARK    1  A    between atoms: C_7  and  S_8 
REMARK    2  A    between atoms: S_8  and  C_9 
REMARK    3  A    between atoms: C_9  and  C_10 
REMARK    4  A    between atoms: C_18  and  C_19 
REMARK    5  A    between atoms: C_26  and  C_27 
REMARK    6  A    between atoms: C_27  and  O_28 
ROOT
HETATM    1  C   UNL     1      26.911  36.983  49.577  1.00  0.00     0.070 C 
HETATM    2  C   UNL     1      26.734  38.464  49.360  1.00  0.00     0.037 C 
HETATM    3  N   UNL     1      26.783  39.250  50.508  1.00  0.00    -0.192 N 
HETATM    4  C   UNL     1      26.901  40.591  50.474  1.00  0.00     0.726 A 
HETATM    5  N   UNL     1      26.771  41.245  49.280  1.00  0.00    -0.082 N 
HETATM    6  N   UNL     1      27.019  42.566  49.414  1.00  0.00    -0.128 NA
HETATM    7  C   UNL     1      27.262  42.642  50.730  1.00  0.00     0.226 A 
HETATM    8  N   UNL     1      27.185  41.452  51.413  1.00  0.00    -0.035 NA
HETATM    9  C   UNL     1      26.497  40.572  48.006  1.00  0.00     0.203 C 
HETATM   10  C   UNL     1      26.603  39.058  48.146  1.00  0.00     0.070 C 
HETATM   11  H   UNL     1      26.979  38.779  51.390  1.00  0.00     0.184 HD
ENDROOT
BRANCH   7  12
HETATM   12  S   UNL     1      27.713  44.115  51.538  1.00  0.00    -0.083 SA
BRANCH  12  13
HETATM   13  C   UNL     1      27.246  43.743  53.250  1.00  0.00     0.123 C 
BRANCH  13  14
HETATM   14  C   UNL     1      28.395  44.015  54.194  1.00  0.00    -0.027 A 
HETATM   15  C   UNL     1      28.538  45.223  54.897  1.00  0.00     0.041 A 
HETATM   16 CL   UNL     1      27.383  46.502  54.770  1.00  0.00    -0.084 Cl
HETATM   17  C   UNL     1      29.642  45.435  55.730  1.00  0.00     0.024 A 
HETATM   18  C   UNL     1      30.620  44.452  55.869  1.00  0.00     0.002 A 
HETATM   19  C   UNL     1      30.498  43.252  55.174  1.00  0.00     0.001 A 
HETATM   20  C   UNL     1      29.396  43.035  54.343  1.00  0.00     0.009 A 
ENDBRANCH  13  14
ENDBRANCH  12  13
ENDBRANCH   7  12
BRANCH   9  21
HETATM   21  C   UNL     1      25.131  41.001  47.466  1.00  0.00    -0.028 A 
HETATM   22  C   UNL     1      24.028  41.069  48.335  1.00  0.00     0.011 A 
HETATM   23  C   UNL     1      22.778  41.484  47.870  1.00  0.00     0.024 A 
HETATM   24  C   UNL     1      22.619  41.839  46.532  1.00  0.00     0.034 A 
HETATM   25 CL   UNL     1      21.081  42.354  45.961  1.00  0.00    -0.084 Cl
HETATM   26  C   UNL     1      23.699  41.784  45.657  1.00  0.00     0.024 A 
HETATM   27  C   UNL     1      24.951  41.372  46.120  1.00  0.00     0.011 A 
ENDBRANCH   9  21
BRANCH  10  28
HETATM   28  C   UNL     1      26.612  38.348  46.850  1.00  0.00     0.293 C 
HETATM   29  O   UNL     1      25.663  37.689  46.455  1.00  0.00    -0.259 OA
BRANCH  28  30
HETATM   30  O   UNL     1      27.807  38.477  46.226  1.00  0.00    -0.323 OA
HETATM   31  C   UNL     1      28.616  37.300  46.270  1.00  0.00     0.213 C 
ENDBRANCH  28  30
ENDBRANCH  10  28
TORSDOF 6
ENDMDL
