MODEL 1
REMARK VINA RESULT:     -10.5      0.000      0.000
REMARK  2 active torsions:
REMARK  status: ('A' for Active; 'I' for Inactive)
REMARK    1  A    between atoms: C_15  and  C_16 
REMARK    2  A    between atoms: C_19  and  O_20 
ROOT
HETATM    1  C   UNL     1      31.510  45.102  58.436  1.00  0.00     0.048 C 
HETATM    2  C   UNL     1      30.802  44.749  57.160  1.00  0.00    -0.061 A 
HETATM    3  C   UNL     1      29.704  45.512  56.722  1.00  0.00     0.021 A 
HETATM    4  C   UNL     1      29.051  45.177  55.518  1.00  0.00    -0.000 A 
HETATM    5  C   UNL     1      29.527  44.080  54.788  1.00  0.00     0.043 A 
HETATM    6  N   UNL     1      28.713  43.933  53.687  1.00  0.00    -0.353 N 
HETATM    7  H   UNL     1      28.805  43.217  52.979  1.00  0.00     0.166 HD
HETATM    8  C   UNL     1      27.793  44.932  53.668  1.00  0.00     0.066 A 
HETATM    9  C   UNL     1      27.951  45.717  54.793  1.00  0.00    -0.017 A 
HETATM   10  C   UNL     1      27.062  46.900  55.063  1.00  0.00     0.043 C 
HETATM   11  C   UNL     1      25.812  46.909  54.130  1.00  0.00     0.018 C 
HETATM   12  C   UNL     1      26.192  46.562  52.674  1.00  0.00     0.065 C 
HETATM   13  C   UNL     1      26.787  45.182  52.696  1.00  0.00     0.082 C 
HETATM   14  N   UNL     1      26.285  44.298  51.899  1.00  0.00    -0.203 NA
HETATM   15  C   UNL     1      25.054  46.315  51.677  1.00  0.00     0.121 C 
HETATM   16  N   UNL     1      25.333  44.951  51.198  1.00  0.00    -0.207 NA
HETATM   17  C   UNL     1      30.638  43.331  55.184  1.00  0.00     0.031 A 
HETATM   18  C   UNL     1      31.269  43.687  56.377  1.00  0.00     0.009 A 
HETATM   19  H   UNL     1      24.493  44.401  51.023  1.00  0.00     0.149 HD
ENDROOT
BRANCH  15  20
HETATM   20  C   UNL     1      25.018  47.232  50.465  1.00  0.00    -0.038 A 
HETATM   21  C   UNL     1      23.815  47.520  49.797  1.00  0.00     0.011 A 
HETATM   22  C   UNL     1      23.765  48.478  48.782  1.00  0.00     0.037 A 
HETATM   23  C   UNL     1      24.908  49.196  48.450  1.00  0.00     0.068 A 
HETATM   24  C   UNL     1      26.119  48.907  49.075  1.00  0.00     0.037 A 
HETATM   25  C   UNL     1      26.174  47.932  50.080  1.00  0.00     0.011 A 
BRANCH  23  26
HETATM   26  O   UNL     1      24.768  50.156  47.487  1.00  0.00    -0.356 OA
HETATM   27  C   UNL     1      23.496  50.802  47.539  1.00  0.00     0.210 C 
ENDBRANCH  23  26
ENDBRANCH  15  20
TORSDOF 2
ENDMDL
MODEL 2
REMARK VINA RESULT:      -8.7      2.694      3.663
REMARK  2 active torsions:
REMARK  status: ('A' for Active; 'I' for Inactive)
REMARK    1  A    between atoms: C_15  and  C_16 
REMARK    2  A    between atoms: C_19  and  O_20 
ROOT
HETATM    1  C   UNL     1      31.150  43.187  56.726  1.00  0.00     0.048 C 
HETATM    2  C   UNL     1      30.134  44.117  56.130  1.00  0.00    -0.061 A 
HETATM    3  C   UNL     1      29.636  43.888  54.833  1.00  0.00     0.021 A 
HETATM    4  C   UNL     1      28.676  44.762  54.286  1.00  0.00    -0.000 A 
HETATM    5  C   UNL     1      28.243  45.844  55.063  1.00  0.00     0.043 A 
HETATM    6  N   UNL     1      27.346  46.564  54.306  1.00  0.00    -0.353 N 
HETATM    7  H   UNL     1      26.871  47.408  54.599  1.00  0.00     0.166 HD
HETATM    8  C   UNL     1      27.153  45.937  53.116  1.00  0.00     0.066 A 
HETATM    9  C   UNL     1      27.970  44.825  53.050  1.00  0.00    -0.017 A 
HETATM   10  C   UNL     1      27.994  43.932  51.840  1.00  0.00     0.043 C 
HETATM   11  C   UNL     1      27.266  44.586  50.625  1.00  0.00     0.018 C 
HETATM   12  C   UNL     1      25.939  45.249  51.053  1.00  0.00     0.065 C 
HETATM   13  C   UNL     1      26.287  46.314  52.055  1.00  0.00     0.082 C 
HETATM   14  N   UNL     1      25.853  47.510  51.836  1.00  0.00    -0.203 NA
HETATM   15  C   UNL     1      25.210  46.120  50.022  1.00  0.00     0.121 C 
HETATM   16  N   UNL     1      25.119  47.421  50.705  1.00  0.00    -0.207 NA
HETATM   17  C   UNL     1      28.695  46.071  56.365  1.00  0.00     0.031 A 
HETATM   18  C   UNL     1      29.642  45.186  56.886  1.00  0.00     0.009 A 
HETATM   19  H   UNL     1      25.221  48.219  50.078  1.00  0.00     0.149 HD
ENDROOT
BRANCH  15  20
HETATM   20  C   UNL     1      23.798  45.687  49.662  1.00  0.00    -0.038 A 
HETATM   21  C   UNL     1      22.942  46.520  48.919  1.00  0.00     0.011 A 
HETATM   22  C   UNL     1      21.706  46.058  48.463  1.00  0.00     0.037 A 
HETATM   23  C   UNL     1      21.325  44.743  48.703  1.00  0.00     0.068 A 
HETATM   24  C   UNL     1      22.141  43.909  49.463  1.00  0.00     0.037 A 
HETATM   25  C   UNL     1      23.374  44.377  49.938  1.00  0.00     0.011 A 
BRANCH  23  26
HETATM   26  O   UNL     1      20.126  44.348  48.176  1.00  0.00    -0.356 OA
HETATM   27  C   UNL     1      19.163  45.401  48.158  1.00  0.00     0.210 C 
ENDBRANCH  23  26
ENDBRANCH  15  20
TORSDOF 2
ENDMDL
MODEL 3
REMARK VINA RESULT:      -8.7      3.245      9.292
REMARK  2 active torsions:
REMARK  status: ('A' for Active; 'I' for Inactive)
REMARK    1  A    between atoms: C_15  and  C_16 
REMARK    2  A    between atoms: C_19  and  O_20 
ROOT
HETATM    1  C   UNL     1      19.246  52.397  48.402  1.00  0.00     0.048 C 
HETATM    2  C   UNL     1      19.755  50.989  48.505  1.00  0.00    -0.061 A 
HETATM    3  C   UNL     1      21.121  50.742  48.736  1.00  0.00     0.021 A 
HETATM    4  C   UNL     1      21.588  49.417  48.841  1.00  0.00    -0.000 A 
HETATM    5  C   UNL     1      20.661  48.374  48.710  1.00  0.00     0.043 A 
HETATM    6  N   UNL     1      21.355  47.189  48.809  1.00  0.00    -0.353 N 
HETATM    7  H   UNL     1      20.953  46.264  48.744  1.00  0.00     0.166 HD
HETATM    8  C   UNL     1      22.664  47.452  49.063  1.00  0.00     0.066 A 
HETATM    9  C   UNL     1      22.859  48.819  49.073  1.00  0.00    -0.017 A 
HETATM   10  C   UNL     1      24.216  49.422  49.312  1.00  0.00     0.043 C 
HETATM   11  C   UNL     1      25.349  48.353  49.217  1.00  0.00     0.018 C 
HETATM   12  C   UNL     1      24.957  47.050  49.949  1.00  0.00     0.065 C 
HETATM   13  C   UNL     1      23.721  46.526  49.274  1.00  0.00     0.082 C 
HETATM   14  N   UNL     1      23.737  45.305  48.854  1.00  0.00    -0.203 NA
HETATM   15  C   UNL     1      25.864  45.828  49.768  1.00  0.00     0.121 C 
HETATM   16  N   UNL     1      24.942  44.818  49.221  1.00  0.00    -0.207 NA
HETATM   17  C   UNL     1      19.295  48.595  48.517  1.00  0.00     0.031 A 
HETATM   18  C   UNL     1      18.858  49.918  48.423  1.00  0.00     0.009 A 
HETATM   19  H   UNL     1      25.373  44.204  48.530  1.00  0.00     0.149 HD
ENDROOT
BRANCH  15  20
HETATM   20  C   UNL     1      26.476  45.256  51.037  1.00  0.00    -0.038 A 
HETATM   21  C   UNL     1      27.433  44.227  50.992  1.00  0.00     0.011 A 
HETATM   22  C   UNL     1      28.100  43.812  52.146  1.00  0.00     0.037 A 
HETATM   23  C   UNL     1      27.855  44.451  53.356  1.00  0.00     0.068 A 
HETATM   24  C   UNL     1      26.889  45.452  53.432  1.00  0.00     0.037 A 
HETATM   25  C   UNL     1      26.205  45.856  52.278  1.00  0.00     0.011 A 
BRANCH  23  26
HETATM   26  O   UNL     1      28.588  44.028  54.430  1.00  0.00    -0.356 OA
HETATM   27  C   UNL     1      29.049  45.110  55.238  1.00  0.00     0.210 C 
ENDBRANCH  23  26
ENDBRANCH  15  20
TORSDOF 2
ENDMDL
MODEL 4
REMARK VINA RESULT:      -8.7      4.409      7.113
REMARK  2 active torsions:
REMARK  status: ('A' for Active; 'I' for Inactive)
REMARK    1  A    between atoms: C_15  and  C_16 
REMARK    2  A    between atoms: C_19  and  O_20 
ROOT
HETATM    1  C   UNL     1      25.918  41.727  50.493  1.00  0.00     0.048 C 
HETATM    2  C   UNL     1      25.749  43.218  50.552  1.00  0.00    -0.061 A 
HETATM    3  C   UNL     1      24.733  43.848  49.810  1.00  0.00     0.021 A 
HETATM    4  C   UNL     1      24.577  45.247  49.878  1.00  0.00    -0.000 A 
HETATM    5  C   UNL     1      25.452  45.973  50.697  1.00  0.00     0.043 A 
HETATM    6  N   UNL     1      25.129  47.305  50.568  1.00  0.00    -0.353 N 
HETATM    7  H   UNL     1      25.596  48.072  51.034  1.00  0.00     0.166 HD
HETATM    8  C   UNL     1      24.047  47.431  49.756  1.00  0.00     0.066 A 
HETATM    9  C   UNL     1      23.681  46.184  49.290  1.00  0.00    -0.017 A 
HETATM   10  C   UNL     1      22.522  46.001  48.349  1.00  0.00     0.043 C 
HETATM   11  C   UNL     1      22.038  47.360  47.755  1.00  0.00     0.018 C 
HETATM   12  C   UNL     1      21.970  48.457  48.840  1.00  0.00     0.065 C 
HETATM   13  C   UNL     1      23.362  48.619  49.384  1.00  0.00     0.082 C 
HETATM   14  N   UNL     1      23.870  49.806  49.391  1.00  0.00    -0.203 NA
HETATM   15  C   UNL     1      21.723  49.900  48.383  1.00  0.00     0.121 C 
HETATM   16  N   UNL     1      22.898  50.612  48.912  1.00  0.00    -0.207 NA
HETATM   17  C   UNL     1      26.445  45.366  51.471  1.00  0.00     0.031 A 
HETATM   18  C   UNL     1      26.573  43.978  51.389  1.00  0.00     0.009 A 
HETATM   19  H   UNL     1      23.235  51.354  48.299  1.00  0.00     0.149 HD
ENDROOT
BRANCH  15  20
HETATM   20  C   UNL     1      20.481  50.574  48.944  1.00  0.00    -0.038 A 
HETATM   21  C   UNL     1      20.046  51.824  48.469  1.00  0.00     0.011 A 
HETATM   22  C   UNL     1      18.827  52.366  48.879  1.00  0.00     0.037 A 
HETATM   23  C   UNL     1      18.001  51.647  49.735  1.00  0.00     0.068 A 
HETATM   24  C   UNL     1      18.425  50.422  50.245  1.00  0.00     0.037 A 
HETATM   25  C   UNL     1      19.657  49.885  49.849  1.00  0.00     0.011 A 
BRANCH  23  26
HETATM   26  O   UNL     1      16.798  52.217  50.047  1.00  0.00    -0.356 OA
HETATM   27  C   UNL     1      15.782  51.906  49.095  1.00  0.00     0.210 C 
ENDBRANCH  23  26
ENDBRANCH  15  20
TORSDOF 2
ENDMDL
MODEL 5
REMARK VINA RESULT:      -8.6      6.226      7.119
REMARK  2 active torsions:
REMARK  status: ('A' for Active; 'I' for Inactive)
REMARK    1  A    between atoms: C_15  and  C_16 
REMARK    2  A    between atoms: C_19  and  O_20 
ROOT
HETATM    1  C   UNL     1      28.292  46.041  55.605  1.00  0.00     0.048 C 
HETATM    2  C   UNL     1      28.675  44.822  54.818  1.00  0.00    -0.061 A 
HETATM    3  C   UNL     1      27.838  44.349  53.789  1.00  0.00     0.021 A 
HETATM    4  C   UNL     1      28.211  43.208  53.050  1.00  0.00    -0.000 A 
HETATM    5  C   UNL     1      29.419  42.575  53.369  1.00  0.00     0.043 A 
HETATM    6  N   UNL     1      29.541  41.479  52.546  1.00  0.00    -0.353 N 
HETATM    7  H   UNL     1      30.310  40.821  52.551  1.00  0.00     0.166 HD
HETATM    8  C   UNL     1      28.491  41.441  51.684  1.00  0.00     0.066 A 
HETATM    9  C   UNL     1      27.631  42.482  51.970  1.00  0.00    -0.017 A 
HETATM   10  C   UNL     1      26.361  42.695  51.194  1.00  0.00     0.043 C 
HETATM   11  C   UNL     1      26.014  41.461  50.304  1.00  0.00     0.018 C 
HETATM   12  C   UNL     1      27.265  40.919  49.580  1.00  0.00     0.065 C 
HETATM   13  C   UNL     1      28.240  40.504  50.645  1.00  0.00     0.082 C 
HETATM   14  N   UNL     1      28.710  39.303  50.596  1.00  0.00    -0.203 NA
HETATM   15  C   UNL     1      27.139  39.582  48.839  1.00  0.00     0.121 C 
HETATM   16  N   UNL     1      28.174  38.756  49.484  1.00  0.00    -0.207 NA
HETATM   17  C   UNL     1      30.283  43.047  54.360  1.00  0.00     0.031 A 
HETATM   18  C   UNL     1      29.893  44.183  55.074  1.00  0.00     0.009 A 
HETATM   19  H   UNL     1      27.909  37.777  49.586  1.00  0.00     0.149 HD
ENDROOT
BRANCH  15  20
HETATM   20  C   UNL     1      27.435  39.614  47.348  1.00  0.00    -0.038 A 
HETATM   21  C   UNL     1      27.743  40.816  46.686  1.00  0.00     0.011 A 
HETATM   22  C   UNL     1      28.161  40.819  45.354  1.00  0.00     0.037 A 
HETATM   23  C   UNL     1      28.322  39.617  44.676  1.00  0.00     0.068 A 
HETATM   24  C   UNL     1      27.993  38.415  45.299  1.00  0.00     0.037 A 
HETATM   25  C   UNL     1      27.555  38.413  46.631  1.00  0.00     0.011 A 
BRANCH  23  26
HETATM   26  O   UNL     1      28.788  39.696  43.393  1.00  0.00    -0.356 OA
HETATM   27  C   UNL     1      29.143  41.028  43.021  1.00  0.00     0.210 C 
ENDBRANCH  23  26
ENDBRANCH  15  20
TORSDOF 2
ENDMDL
MODEL 6
REMARK VINA RESULT:      -8.6      6.823     13.006
REMARK  2 active torsions:
REMARK  status: ('A' for Active; 'I' for Inactive)
REMARK    1  A    between atoms: C_15  and  C_16 
REMARK    2  A    between atoms: C_19  and  O_20 
ROOT
HETATM    1  C   UNL     1      12.800  54.929  47.027  1.00  0.00     0.048 C 
HETATM    2  C   UNL     1      13.806  54.281  47.933  1.00  0.00    -0.061 A 
HETATM    3  C   UNL     1      14.745  53.369  47.416  1.00  0.00     0.021 A 
HETATM    4  C   UNL     1      15.690  52.771  48.274  1.00  0.00    -0.000 A 
HETATM    5  C   UNL     1      15.664  53.113  49.632  1.00  0.00     0.043 A 
HETATM    6  N   UNL     1      16.645  52.381  50.262  1.00  0.00    -0.353 N 
HETATM    7  H   UNL     1      16.858  52.408  51.250  1.00  0.00     0.166 HD
HETATM    8  C   UNL     1      17.324  51.649  49.340  1.00  0.00     0.066 A 
HETATM    9  C   UNL     1      16.757  51.844  48.097  1.00  0.00    -0.017 A 
HETATM   10  C   UNL     1      17.281  51.149  46.870  1.00  0.00     0.043 C 
HETATM   11  C   UNL     1      18.272  50.001  47.235  1.00  0.00     0.018 C 
HETATM   12  C   UNL     1      19.258  50.437  48.341  1.00  0.00     0.065 C 
HETATM   13  C   UNL     1      18.433  50.784  49.548  1.00  0.00     0.082 C 
HETATM   14  N   UNL     1      18.729  50.208  50.665  1.00  0.00    -0.203 NA
HETATM   15  C   UNL     1      20.154  49.361  48.966  1.00  0.00     0.121 C 
HETATM   16  N   UNL     1      19.808  49.442  50.395  1.00  0.00    -0.207 NA
HETATM   17  C   UNL     1      14.766  54.043  50.162  1.00  0.00     0.031 A 
HETATM   18  C   UNL     1      13.844  54.624  49.290  1.00  0.00     0.009 A 
HETATM   19  H   UNL     1      19.807  48.538  50.866  1.00  0.00     0.149 HD
ENDROOT
BRANCH  15  20
HETATM   20  C   UNL     1      21.652  49.583  48.838  1.00  0.00    -0.038 A 
HETATM   21  C   UNL     1      22.568  48.533  49.027  1.00  0.00     0.011 A 
HETATM   22  C   UNL     1      23.928  48.707  48.761  1.00  0.00     0.037 A 
HETATM   23  C   UNL     1      24.387  49.919  48.258  1.00  0.00     0.068 A 
HETATM   24  C   UNL     1      23.504  50.984  48.094  1.00  0.00     0.037 A 
HETATM   25  C   UNL     1      22.142  50.816  48.378  1.00  0.00     0.011 A 
BRANCH  23  26
HETATM   26  O   UNL     1      25.721  49.995  47.968  1.00  0.00    -0.356 OA
HETATM   27  C   UNL     1      26.511  49.151  48.805  1.00  0.00     0.210 C 
ENDBRANCH  23  26
ENDBRANCH  15  20
TORSDOF 2
ENDMDL
MODEL 7
REMARK VINA RESULT:      -8.4      6.433      9.698
REMARK  2 active torsions:
REMARK  status: ('A' for Active; 'I' for Inactive)
REMARK    1  A    between atoms: C_15  and  C_16 
REMARK    2  A    between atoms: C_19  and  O_20 
ROOT
HETATM    1  C   UNL     1      27.254  49.941  48.571  1.00  0.00     0.048 C 
HETATM    2  C   UNL     1      25.904  49.356  48.869  1.00  0.00    -0.061 A 
HETATM    3  C   UNL     1      24.737  50.109  48.642  1.00  0.00     0.021 A 
HETATM    4  C   UNL     1      23.474  49.547  48.917  1.00  0.00    -0.000 A 
HETATM    5  C   UNL     1      23.423  48.238  49.413  1.00  0.00     0.043 A 
HETATM    6  N   UNL     1      22.100  47.932  49.636  1.00  0.00    -0.353 N 
HETATM    7  H   UNL     1      21.751  47.056  50.003  1.00  0.00     0.166 HD
HETATM    8  C   UNL     1      21.321  48.972  49.236  1.00  0.00     0.066 A 
HETATM    9  C   UNL     1      22.129  50.003  48.800  1.00  0.00    -0.017 A 
HETATM   10  C   UNL     1      21.556  51.304  48.310  1.00  0.00     0.043 C 
HETATM   11  C   UNL     1      20.040  51.435  48.656  1.00  0.00     0.018 C 
HETATM   12  C   UNL     1      19.283  50.118  48.378  1.00  0.00     0.065 C 
HETATM   13  C   UNL     1      19.904  49.065  49.253  1.00  0.00     0.082 C 
HETATM   14  N   UNL     1      19.121  48.385  50.022  1.00  0.00    -0.203 NA
HETATM   15  C   UNL     1      17.833  50.010  48.867  1.00  0.00     0.121 C 
HETATM   16  N   UNL     1      17.876  48.831  49.748  1.00  0.00    -0.207 NA
HETATM   17  C   UNL     1      24.565  47.458  49.611  1.00  0.00     0.031 A 
HETATM   18  C   UNL     1      25.803  48.037  49.325  1.00  0.00     0.009 A 
HETATM   19  H   UNL     1      17.272  48.911  50.565  1.00  0.00     0.149 HD
ENDROOT
BRANCH  15  20
HETATM   20  C   UNL     1      16.786  49.750  47.797  1.00  0.00    -0.038 A 
HETATM   21  C   UNL     1      16.146  48.503  47.682  1.00  0.00     0.011 A 
HETATM   22  C   UNL     1      15.081  48.318  46.799  1.00  0.00     0.037 A 
HETATM   23  C   UNL     1      14.608  49.388  46.049  1.00  0.00     0.068 A 
HETATM   24  C   UNL     1      15.245  50.625  46.121  1.00  0.00     0.037 A 
HETATM   25  C   UNL     1      16.327  50.807  46.993  1.00  0.00     0.011 A 
BRANCH  23  26
HETATM   26  O   UNL     1      13.527  49.144  45.249  1.00  0.00    -0.356 OA
HETATM   27  C   UNL     1      13.235  47.751  45.133  1.00  0.00     0.210 C 
ENDBRANCH  23  26
ENDBRANCH  15  20
TORSDOF 2
ENDMDL
MODEL 8
REMARK VINA RESULT:      -8.4      5.536      8.751
REMARK  2 active torsions:
REMARK  status: ('A' for Active; 'I' for Inactive)
REMARK    1  A    between atoms: C_15  and  C_16 
REMARK    2  A    between atoms: C_19  and  O_20 
ROOT
HETATM    1  C   UNL     1      28.755  37.806  45.600  1.00  0.00     0.048 C 
HETATM    2  C   UNL     1      28.216  38.918  46.453  1.00  0.00    -0.061 A 
HETATM    3  C   UNL     1      28.490  38.952  47.833  1.00  0.00     0.021 A 
HETATM    4  C   UNL     1      27.987  40.005  48.623  1.00  0.00    -0.000 A 
HETATM    5  C   UNL     1      27.221  40.998  47.998  1.00  0.00     0.043 A 
HETATM    6  N   UNL     1      26.817  41.883  48.971  1.00  0.00    -0.353 N 
HETATM    7  H   UNL     1      26.242  42.701  48.822  1.00  0.00     0.166 HD
HETATM    8  C   UNL     1      27.356  41.519  50.165  1.00  0.00     0.066 A 
HETATM    9  C   UNL     1      28.073  40.350  50.002  1.00  0.00    -0.017 A 
HETATM   10  C   UNL     1      28.774  39.686  51.155  1.00  0.00     0.043 C 
HETATM   11  C   UNL     1      28.326  40.282  52.526  1.00  0.00     0.018 C 
HETATM   12  C   UNL     1      28.246  41.823  52.471  1.00  0.00     0.065 C 
HETATM   13  C   UNL     1      27.228  42.170  51.421  1.00  0.00     0.082 C 
HETATM   14  N   UNL     1      26.264  42.960  51.757  1.00  0.00    -0.203 NA
HETATM   15  C   UNL     1      27.614  42.549  53.665  1.00  0.00     0.121 C 
HETATM   16  N   UNL     1      26.510  43.298  53.041  1.00  0.00    -0.207 NA
HETATM   17  C   UNL     1      26.967  41.006  46.624  1.00  0.00     0.031 A 
HETATM   18  C   UNL     1      27.482  39.954  45.863  1.00  0.00     0.009 A 
HETATM   19  H   UNL     1      25.677  43.357  53.625  1.00  0.00     0.149 HD
ENDROOT
BRANCH  15  20
HETATM   20  C   UNL     1      28.504  43.550  54.385  1.00  0.00    -0.038 A 
HETATM   21  C   UNL     1      28.024  44.814  54.771  1.00  0.00     0.011 A 
HETATM   22  C   UNL     1      28.796  45.667  55.562  1.00  0.00     0.037 A 
HETATM   23  C   UNL     1      30.042  45.251  56.017  1.00  0.00     0.068 A 
HETATM   24  C   UNL     1      30.553  44.017  55.622  1.00  0.00     0.037 A 
HETATM   25  C   UNL     1      29.786  43.168  54.813  1.00  0.00     0.011 A 
BRANCH  23  26
HETATM   26  O   UNL     1      30.715  46.118  56.834  1.00  0.00    -0.356 OA
HETATM   27  C   UNL     1      30.569  45.793  58.216  1.00  0.00     0.210 C 
ENDBRANCH  23  26
ENDBRANCH  15  20
TORSDOF 2
ENDMDL
MODEL 9
REMARK VINA RESULT:      -8.4      1.532      1.789
REMARK  2 active torsions:
REMARK  status: ('A' for Active; 'I' for Inactive)
REMARK    1  A    between atoms: C_15  and  C_16 
REMARK    2  A    between atoms: C_19  and  O_20 
ROOT
HETATM    1  C   UNL     1      31.045  45.491  58.086  1.00  0.00     0.048 C 
HETATM    2  C   UNL     1      30.471  44.951  56.809  1.00  0.00    -0.061 A 
HETATM    3  C   UNL     1      29.164  45.295  56.416  1.00  0.00     0.021 A 
HETATM    4  C   UNL     1      28.637  44.789  55.211  1.00  0.00    -0.000 A 
HETATM    5  C   UNL     1      29.445  43.950  54.433  1.00  0.00     0.043 A 
HETATM    6  N   UNL     1      28.705  43.560  53.340  1.00  0.00    -0.353 N 
HETATM    7  H   UNL     1      29.021  42.942  52.604  1.00  0.00     0.166 HD
HETATM    8  C   UNL     1      27.493  44.175  53.372  1.00  0.00     0.066 A 
HETATM    9  C   UNL     1      27.399  44.933  54.522  1.00  0.00    -0.017 A 
HETATM   10  C   UNL     1      26.161  45.722  54.850  1.00  0.00     0.043 C 
HETATM   11  C   UNL     1      24.961  45.321  53.936  1.00  0.00     0.018 C 
HETATM   12  C   UNL     1      25.399  45.172  52.463  1.00  0.00     0.065 C 
HETATM   13  C   UNL     1      26.438  44.087  52.425  1.00  0.00     0.082 C 
HETATM   14  N   UNL     1      26.254  43.108  51.603  1.00  0.00    -0.203 NA
HETATM   15  C   UNL     1      24.392  44.574  51.474  1.00  0.00     0.121 C 
HETATM   16  N   UNL     1      25.116  43.407  50.941  1.00  0.00    -0.207 NA
HETATM   17  C   UNL     1      30.758  43.624  54.784  1.00  0.00     0.031 A 
HETATM   18  C   UNL     1      31.257  44.143  55.980  1.00  0.00     0.009 A 
HETATM   19  H   UNL     1      24.515  42.604  50.759  1.00  0.00     0.149 HD
ENDROOT
BRANCH  15  20
HETATM   20  C   UNL     1      24.006  45.456  50.298  1.00  0.00    -0.038 A 
HETATM   21  C   UNL     1      23.110  45.011  49.309  1.00  0.00     0.011 A 
HETATM   22  C   UNL     1      22.644  45.876  48.318  1.00  0.00     0.037 A 
HETATM   23  C   UNL     1      23.031  47.212  48.325  1.00  0.00     0.068 A 
HETATM   24  C   UNL     1      23.942  47.668  49.274  1.00  0.00     0.037 A 
HETATM   25  C   UNL     1      24.425  46.796  50.259  1.00  0.00     0.011 A 
BRANCH  23  26
HETATM   26  O   UNL     1      22.489  48.010  47.356  1.00  0.00    -0.356 OA
HETATM   27  C   UNL     1      21.157  48.420  47.666  1.00  0.00     0.210 C 
ENDBRANCH  23  26
ENDBRANCH  15  20
TORSDOF 2
ENDMDL
MODEL 10
REMARK VINA RESULT:      -8.2     12.460     13.835
REMARK  2 active torsions:
REMARK  status: ('A' for Active; 'I' for Inactive)
REMARK    1  A    between atoms: C_15  and  C_16 
REMARK    2  A    between atoms: C_19  and  O_20 
ROOT
HETATM    1  C   UNL     1      38.176  54.454  45.096  1.00  0.00     0.048 C 
HETATM    2  C   UNL     1      37.641  53.384  44.190  1.00  0.00    -0.061 A 
HETATM    3  C   UNL     1      36.277  53.039  44.225  1.00  0.00     0.021 A 
HETATM    4  C   UNL     1      35.783  52.039  43.364  1.00  0.00    -0.000 A 
HETATM    5  C   UNL     1      36.681  51.412  42.489  1.00  0.00     0.043 A 
HETATM    6  N   UNL     1      35.978  50.458  41.789  1.00  0.00    -0.353 N 
HETATM    7  H   UNL     1      36.363  49.838  41.090  1.00  0.00     0.166 HD
HETATM    8  C   UNL     1      34.667  50.511  42.144  1.00  0.00     0.066 A 
HETATM    9  C   UNL     1      34.502  51.463  43.130  1.00  0.00    -0.017 A 
HETATM   10  C   UNL     1      33.157  51.741  43.743  1.00  0.00     0.043 C 
HETATM   11  C   UNL     1      32.112  50.643  43.369  1.00  0.00     0.018 C 
HETATM   12  C   UNL     1      32.203  50.265  41.874  1.00  0.00     0.065 C 
HETATM   13  C   UNL     1      33.589  49.733  41.643  1.00  0.00     0.082 C 
HETATM   14  N   UNL     1      33.702  48.572  41.090  1.00  0.00    -0.203 NA
HETATM   15  C   UNL     1      31.398  49.052  41.393  1.00  0.00     0.121 C 
HETATM   16  N   UNL     1      32.438  48.179  40.823  1.00  0.00    -0.207 NA
HETATM   17  C   UNL     1      38.031  51.762  42.411  1.00  0.00     0.031 A 
HETATM   18  C   UNL     1      38.493  52.761  43.271  1.00  0.00     0.009 A 
HETATM   19  H   UNL     1      32.267  47.186  40.981  1.00  0.00     0.149 HD
ENDROOT
BRANCH  15  20
HETATM   20  C   UNL     1      30.372  49.321  40.305  1.00  0.00    -0.038 A 
HETATM   21  C   UNL     1      29.358  48.393  40.007  1.00  0.00     0.011 A 
HETATM   22  C   UNL     1      28.332  48.710  39.114  1.00  0.00     0.037 A 
HETATM   23  C   UNL     1      28.278  49.975  38.540  1.00  0.00     0.068 A 
HETATM   24  C   UNL     1      29.288  50.899  38.795  1.00  0.00     0.037 A 
HETATM   25  C   UNL     1      30.329  50.576  39.676  1.00  0.00     0.011 A 
BRANCH  23  26
HETATM   26  O   UNL     1      27.213  50.230  37.721  1.00  0.00    -0.356 OA
HETATM   27  C   UNL     1      26.353  49.100  37.575  1.00  0.00     0.210 C 
ENDBRANCH  23  26
ENDBRANCH  15  20
TORSDOF 2
ENDMDL
