MODEL 1
REMARK VINA RESULT:      -7.8      0.000      0.000
REMARK  3 active torsions:
REMARK  status: ('A' for Active; 'I' for Inactive)
REMARK    1  A    between atoms: C_4  and  C_5 
REMARK    2  A    between atoms: C_5  and  N_6 
REMARK    3  A    between atoms: N_10  and  S_11 
ROOT
HETATM    1  N   UNL     1      27.602  43.631  52.896  1.00  0.00    -0.063 N 
HETATM    2  H   UNL     1      27.323  42.671  52.653  1.00  0.00     0.280 HD
HETATM    3  C   UNL     1      27.244  44.544  51.730  1.00  0.00     0.267 C 
HETATM    4  C   UNL     1      25.704  44.543  51.438  1.00  0.00     0.067 C 
HETATM    5  N   UNL     1      25.328  45.477  50.274  1.00  0.00    -0.300 N 
HETATM    6  C   UNL     1      23.864  45.436  49.954  1.00  0.00     0.136 C 
HETATM    7  C   UNL     1      23.469  44.029  49.525  1.00  0.00     0.021 C 
HETATM    8  C   UNL     1      23.825  42.996  50.582  1.00  0.00     0.004 C 
HETATM    9  C   UNL     1      25.296  43.110  50.976  1.00  0.00     0.033 C 
HETATM   10  C   UNL     1      24.998  44.953  52.756  1.00  0.00     0.035 C 
HETATM   11  C   UNL     1      25.416  44.095  53.956  1.00  0.00     0.030 C 
HETATM   12  C   UNL     1      26.923  44.059  54.163  1.00  0.00     0.235 C 
ENDROOT
BRANCH   5  13
HETATM   13  S   UNL     1      26.038  47.031  50.218  1.00  0.00     0.225 S 
HETATM   14  C   UNL     1      24.816  48.056  49.414  1.00  0.00     0.186 C 
HETATM   15  O   UNL     1      26.213  47.460  51.585  1.00  0.00    -0.206 OA
HETATM   16  O   UNL     1      27.174  46.933  49.324  1.00  0.00    -0.206 OA
ENDBRANCH   5  13
BRANCH   1  17
HETATM   17  C   UNL     1      29.107  43.515  53.061  1.00  0.00     0.299 C 
BRANCH  17  18
HETATM   18  C   UNL     1      29.563  44.057  54.366  1.00  0.00     0.079 A 
HETATM   19  O   UNL     1      30.444  43.277  55.062  1.00  0.00    -0.318 OA
HETATM   20  C   UNL     1      30.753  43.952  56.206  1.00  0.00     0.049 A 
HETATM   21  C   UNL     1      31.712  43.306  57.126  1.00  0.00     0.076 C 
HETATM   22  C   UNL     1      30.074  45.150  56.246  1.00  0.00     0.035 A 
HETATM   23  C   UNL     1      29.305  45.218  55.059  1.00  0.00     0.037 A 
ENDBRANCH  17  18
ENDBRANCH   1  17
TORSDOF 3
ENDMDL
MODEL 2
REMARK VINA RESULT:      -7.6     12.661     13.941
REMARK  3 active torsions:
REMARK  status: ('A' for Active; 'I' for Inactive)
REMARK    1  A    between atoms: C_4  and  C_5 
REMARK    2  A    between atoms: C_5  and  N_6 
REMARK    3  A    between atoms: N_10  and  S_11 
ROOT
HETATM    1  N   UNL     1      31.902  50.205  40.831  1.00  0.00    -0.063 N 
HETATM    2  H   UNL     1      32.491  49.389  40.618  1.00  0.00     0.280 HD
HETATM    3  C   UNL     1      30.769  50.257  39.814  1.00  0.00     0.267 C 
HETATM    4  C   UNL     1      29.868  48.975  39.876  1.00  0.00     0.067 C 
HETATM    5  N   UNL     1      28.709  49.025  38.865  1.00  0.00    -0.300 N 
HETATM    6  C   UNL     1      27.878  47.778  38.881  1.00  0.00     0.136 C 
HETATM    7  C   UNL     1      28.738  46.581  38.495  1.00  0.00     0.021 C 
HETATM    8  C   UNL     1      29.950  46.441  39.402  1.00  0.00     0.004 C 
HETATM    9  C   UNL     1      30.737  47.748  39.459  1.00  0.00     0.033 C 
HETATM   10  C   UNL     1      29.357  48.858  41.335  1.00  0.00     0.035 C 
HETATM   11  C   UNL     1      30.483  48.891  42.374  1.00  0.00     0.030 C 
HETATM   12  C   UNL     1      31.383  50.111  42.235  1.00  0.00     0.235 C 
ENDROOT
BRANCH   5  13
HETATM   13  S   UNL     1      27.825  50.481  38.715  1.00  0.00     0.225 S 
HETATM   14  C   UNL     1      26.282  49.995  37.958  1.00  0.00     0.186 C 
HETATM   15  O   UNL     1      27.583  50.963  40.054  1.00  0.00    -0.206 OA
HETATM   16  O   UNL     1      28.538  51.298  37.754  1.00  0.00    -0.206 OA
ENDBRANCH   5  13
BRANCH   1  17
HETATM   17  C   UNL     1      32.859  51.371  40.649  1.00  0.00     0.299 C 
BRANCH  17  18
HETATM   18  C   UNL     1      34.128  51.163  41.389  1.00  0.00     0.079 A 
HETATM   19  O   UNL     1      34.407  52.078  42.366  1.00  0.00    -0.318 OA
HETATM   20  C   UNL     1      35.588  51.704  42.934  1.00  0.00     0.049 A 
HETATM   21  C   UNL     1      36.095  52.544  44.040  1.00  0.00     0.076 C 
HETATM   22  C   UNL     1      36.065  50.564  42.326  1.00  0.00     0.035 A 
HETATM   23  C   UNL     1      35.124  50.215  41.328  1.00  0.00     0.037 A 
ENDBRANCH  17  18
ENDBRANCH   1  17
TORSDOF 3
ENDMDL
MODEL 3
REMARK VINA RESULT:      -7.4     12.145     14.441
REMARK  3 active torsions:
REMARK  status: ('A' for Active; 'I' for Inactive)
REMARK    1  A    between atoms: C_4  and  C_5 
REMARK    2  A    between atoms: C_5  and  N_6 
REMARK    3  A    between atoms: N_10  and  S_11 
ROOT
HETATM    1  N   UNL     1      28.439  49.941  40.234  1.00  0.00    -0.063 N 
HETATM    2  H   UNL     1      28.639  49.600  39.284  1.00  0.00     0.280 HD
HETATM    3  C   UNL     1      29.751  50.009  41.005  1.00  0.00     0.267 C 
HETATM    4  C   UNL     1      30.771  50.995  40.338  1.00  0.00     0.067 C 
HETATM    5  N   UNL     1      32.093  51.087  41.120  1.00  0.00    -0.300 N 
HETATM    6  C   UNL     1      33.092  51.985  40.455  1.00  0.00     0.136 C 
HETATM    7  C   UNL     1      33.441  51.438  39.077  1.00  0.00     0.021 C 
HETATM    8  C   UNL     1      32.204  51.263  38.210  1.00  0.00     0.004 C 
HETATM    9  C   UNL     1      31.150  50.430  38.935  1.00  0.00     0.033 C 
HETATM   10  C   UNL     1      30.063  52.371  40.240  1.00  0.00     0.035 C 
HETATM   11  C   UNL     1      28.700  52.301  39.540  1.00  0.00     0.030 C 
HETATM   12  C   UNL     1      27.764  51.278  40.169  1.00  0.00     0.235 C 
ENDROOT
BRANCH   5  13
HETATM   13  S   UNL     1      32.023  51.218  42.823  1.00  0.00     0.225 S 
HETATM   14  C   UNL     1      33.700  51.579  43.317  1.00  0.00     0.186 C 
HETATM   15  O   UNL     1      31.171  52.346  43.120  1.00  0.00    -0.206 OA
HETATM   16  O   UNL     1      31.700  49.898  43.325  1.00  0.00    -0.206 OA
ENDBRANCH   5  13
BRANCH   1  17
HETATM   17  C   UNL     1      27.527  48.864  40.795  1.00  0.00     0.299 C 
BRANCH  17  18
HETATM   18  C   UNL     1      27.940  47.507  40.357  1.00  0.00     0.079 A 
HETATM   19  O   UNL     1      27.312  46.462  40.977  1.00  0.00    -0.318 OA
HETATM   20  C   UNL     1      27.809  45.318  40.426  1.00  0.00     0.049 A 
HETATM   21  C   UNL     1      27.266  44.040  40.931  1.00  0.00     0.076 C 
HETATM   22  C   UNL     1      28.748  45.625  39.465  1.00  0.00     0.035 A 
HETATM   23  C   UNL     1      28.833  47.038  39.421  1.00  0.00     0.037 A 
ENDBRANCH  17  18
ENDBRANCH   1  17
TORSDOF 3
ENDMDL
MODEL 4
REMARK VINA RESULT:      -7.4     11.402     13.904
REMARK  3 active torsions:
REMARK  status: ('A' for Active; 'I' for Inactive)
REMARK    1  A    between atoms: C_4  and  C_5 
REMARK    2  A    between atoms: C_5  and  N_6 
REMARK    3  A    between atoms: N_10  and  S_11 
ROOT
HETATM    1  N   UNL     1      28.139  48.348  39.700  1.00  0.00    -0.063 N 
HETATM    2  H   UNL     1      28.190  47.693  40.492  1.00  0.00     0.280 HD
HETATM    3  C   UNL     1      28.516  49.736  40.198  1.00  0.00     0.267 C 
HETATM    4  C   UNL     1      29.976  49.776  40.771  1.00  0.00     0.067 C 
HETATM    5  N   UNL     1      30.375  51.179  41.260  1.00  0.00    -0.300 N 
HETATM    6  C   UNL     1      31.748  51.209  41.860  1.00  0.00     0.136 C 
HETATM    7  C   UNL     1      31.800  50.295  43.078  1.00  0.00     0.021 C 
HETATM    8  C   UNL     1      31.386  48.873  42.733  1.00  0.00     0.004 C 
HETATM    9  C   UNL     1      30.030  48.859  42.031  1.00  0.00     0.033 C 
HETATM   10  C   UNL     1      30.912  49.271  39.642  1.00  0.00     0.035 C 
HETATM   11  C   UNL     1      30.491  47.911  39.072  1.00  0.00     0.030 C 
HETATM   12  C   UNL     1      29.046  47.889  38.597  1.00  0.00     0.235 C 
ENDROOT
BRANCH   5  13
HETATM   13  S   UNL     1      29.984  52.523  40.279  1.00  0.00     0.225 S 
HETATM   14  C   UNL     1      31.058  53.829  40.854  1.00  0.00     0.186 C 
HETATM   15  O   UNL     1      30.331  52.166  38.923  1.00  0.00    -0.206 OA
HETATM   16  O   UNL     1      28.627  52.900  40.618  1.00  0.00    -0.206 OA
ENDBRANCH   5  13
BRANCH   1  17
HETATM   17  C   UNL     1      26.674  48.286  39.302  1.00  0.00     0.299 C 
BRANCH  17  18
HETATM   18  C   UNL     1      25.890  47.421  40.218  1.00  0.00     0.079 A 
HETATM   19  O   UNL     1      26.584  46.414  40.831  1.00  0.00    -0.318 OA
HETATM   20  C   UNL     1      25.702  45.758  41.637  1.00  0.00     0.049 A 
HETATM   21  C   UNL     1      26.230  44.623  42.423  1.00  0.00     0.076 C 
HETATM   22  C   UNL     1      24.454  46.333  41.540  1.00  0.00     0.035 A 
HETATM   23  C   UNL     1      24.574  47.406  40.624  1.00  0.00     0.037 A 
ENDBRANCH  17  18
ENDBRANCH   1  17
TORSDOF 3
ENDMDL
MODEL 5
REMARK VINA RESULT:      -7.4     13.004     14.312
REMARK  3 active torsions:
REMARK  status: ('A' for Active; 'I' for Inactive)
REMARK    1  A    between atoms: C_4  and  C_5 
REMARK    2  A    between atoms: C_5  and  N_6 
REMARK    3  A    between atoms: N_10  and  S_11 
ROOT
HETATM    1  N   UNL     1      29.363  52.254  41.046  1.00  0.00    -0.063 N 
HETATM    2  H   UNL     1      28.407  52.450  41.371  1.00  0.00     0.280 HD
HETATM    3  C   UNL     1      29.490  50.758  40.796  1.00  0.00     0.267 C 
HETATM    4  C   UNL     1      28.490  50.262  39.694  1.00  0.00     0.067 C 
HETATM    5  N   UNL     1      28.622  48.754  39.419  1.00  0.00    -0.300 N 
HETATM    6  C   UNL     1      27.630  48.265  38.408  1.00  0.00     0.136 C 
HETATM    7  C   UNL     1      26.214  48.488  38.925  1.00  0.00     0.021 C 
HETATM    8  C   UNL     1      25.965  49.947  39.272  1.00  0.00     0.004 C 
HETATM    9  C   UNL     1      27.038  50.467  40.225  1.00  0.00     0.033 C 
HETATM   10  C   UNL     1      28.770  51.106  38.424  1.00  0.00     0.035 C 
HETATM   11  C   UNL     1      28.730  52.617  38.682  1.00  0.00     0.030 C 
HETATM   12  C   UNL     1      29.657  53.050  39.809  1.00  0.00     0.235 C 
ENDROOT
BRANCH   5  13
HETATM   13  S   UNL     1      30.191  48.089  39.274  1.00  0.00     0.225 S 
HETATM   14  C   UNL     1      29.950  46.554  38.394  1.00  0.00     0.186 C 
HETATM   15  O   UNL     1      30.959  49.003  38.463  1.00  0.00    -0.206 OA
HETATM   16  O   UNL     1      30.622  47.754  40.616  1.00  0.00    -0.206 OA
ENDBRANCH   5  13
BRANCH   1  17
HETATM   17  C   UNL     1      30.217  52.689  42.225  1.00  0.00     0.299 C 
BRANCH  17  18
HETATM   18  C   UNL     1      31.488  51.926  42.297  1.00  0.00     0.079 A 
HETATM   19  O   UNL     1      32.451  52.281  41.393  1.00  0.00    -0.318 OA
HETATM   20  C   UNL     1      33.533  51.489  41.634  1.00  0.00     0.049 A 
HETATM   21  C   UNL     1      34.721  51.699  40.781  1.00  0.00     0.076 C 
HETATM   22  C   UNL     1      33.268  50.632  42.680  1.00  0.00     0.035 A 
HETATM   23  C   UNL     1      31.948  50.913  43.108  1.00  0.00     0.037 A 
ENDBRANCH  17  18
ENDBRANCH   1  17
TORSDOF 3
ENDMDL
MODEL 6
REMARK VINA RESULT:      -7.3     13.137     15.770
REMARK  3 active torsions:
REMARK  status: ('A' for Active; 'I' for Inactive)
REMARK    1  A    between atoms: C_4  and  C_5 
REMARK    2  A    between atoms: C_5  and  N_6 
REMARK    3  A    between atoms: N_10  and  S_11 
ROOT
HETATM    1  N   UNL     1      29.767  52.605  39.061  1.00  0.00    -0.063 N 
HETATM    2  H   UNL     1      30.356  53.082  38.365  1.00  0.00     0.280 HD
HETATM    3  C   UNL     1      30.462  51.316  39.476  1.00  0.00     0.267 C 
HETATM    4  C   UNL     1      31.862  51.589  40.128  1.00  0.00     0.067 C 
HETATM    5  N   UNL     1      32.565  50.294  40.569  1.00  0.00    -0.300 N 
HETATM    6  C   UNL     1      33.927  50.546  41.141  1.00  0.00     0.136 C 
HETATM    7  C   UNL     1      34.820  51.185  40.085  1.00  0.00     0.021 C 
HETATM    8  C   UNL     1      34.214  52.467  39.535  1.00  0.00     0.004 C 
HETATM    9  C   UNL     1      32.788  52.224  39.045  1.00  0.00     0.033 C 
HETATM   10  C   UNL     1      31.619  52.549  41.321  1.00  0.00     0.035 C 
HETATM   11  C   UNL     1      30.843  53.812  40.932  1.00  0.00     0.030 C 
HETATM   12  C   UNL     1      29.526  53.508  40.234  1.00  0.00     0.235 C 
ENDROOT
BRANCH   5  13
HETATM   13  S   UNL     1      31.645  49.108  41.388  1.00  0.00     0.225 S 
HETATM   14  C   UNL     1      32.682  47.654  41.389  1.00  0.00     0.186 C 
HETATM   15  O   UNL     1      31.463  49.580  42.740  1.00  0.00    -0.206 OA
HETATM   16  O   UNL     1      30.501  48.821  40.547  1.00  0.00    -0.206 OA
ENDBRANCH   5  13
BRANCH   1  17
HETATM   17  C   UNL     1      28.492  52.318  38.286  1.00  0.00     0.299 C 
BRANCH  17  18
HETATM   18  C   UNL     1      27.813  51.092  38.775  1.00  0.00     0.079 A 
HETATM   19  O   UNL     1      27.756  50.048  37.893  1.00  0.00    -0.318 OA
HETATM   20  C   UNL     1      27.122  49.024  38.532  1.00  0.00     0.049 A 
HETATM   21  C   UNL     1      26.952  47.766  37.775  1.00  0.00     0.076 C 
HETATM   22  C   UNL     1      26.772  49.407  39.808  1.00  0.00     0.035 A 
HETATM   23  C   UNL     1      27.217  50.742  39.965  1.00  0.00     0.037 A 
ENDBRANCH  17  18
ENDBRANCH   1  17
TORSDOF 3
ENDMDL
MODEL 7
REMARK VINA RESULT:      -7.2     12.333     14.694
REMARK  3 active torsions:
REMARK  status: ('A' for Active; 'I' for Inactive)
REMARK    1  A    between atoms: C_4  and  C_5 
REMARK    2  A    between atoms: C_5  and  N_6 
REMARK    3  A    between atoms: N_10  and  S_11 
ROOT
HETATM    1  N   UNL     1      34.079  51.376  41.470  1.00  0.00    -0.063 N 
HETATM    2  H   UNL     1      34.004  52.377  41.693  1.00  0.00     0.280 HD
HETATM    3  C   UNL     1      32.764  50.702  41.839  1.00  0.00     0.267 C 
HETATM    4  C   UNL     1      31.557  51.293  41.031  1.00  0.00     0.067 C 
HETATM    5  N   UNL     1      30.225  50.607  41.382  1.00  0.00    -0.300 N 
HETATM    6  C   UNL     1      29.060  51.207  40.655  1.00  0.00     0.136 C 
HETATM    7  C   UNL     1      28.908  52.672  41.044  1.00  0.00     0.021 C 
HETATM    8  C   UNL     1      30.181  53.461  40.780  1.00  0.00     0.004 C 
HETATM    9  C   UNL     1      31.381  52.788  41.441  1.00  0.00     0.033 C 
HETATM   10  C   UNL     1      31.907  51.139  39.529  1.00  0.00     0.035 C 
HETATM   11  C   UNL     1      33.269  51.738  39.161  1.00  0.00     0.030 C 
HETATM   12  C   UNL     1      34.405  51.197  40.017  1.00  0.00     0.235 C 
ENDROOT
BRANCH   5  13
HETATM   13  S   UNL     1      30.199  48.902  41.510  1.00  0.00     0.225 S 
HETATM   14  C   UNL     1      28.465  48.476  41.490  1.00  0.00     0.186 C 
HETATM   15  O   UNL     1      30.844  48.385  40.326  1.00  0.00    -0.206 OA
HETATM   16  O   UNL     1      30.707  48.580  42.827  1.00  0.00    -0.206 OA
ENDBRANCH   5  13
BRANCH   1  17
HETATM   17  C   UNL     1      35.208  50.910  42.373  1.00  0.00     0.299 C 
BRANCH  17  18
HETATM   18  C   UNL     1      35.979  52.052  42.926  1.00  0.00     0.079 A 
HETATM   19  O   UNL     1      36.503  52.920  42.008  1.00  0.00    -0.318 OA
HETATM   20  C   UNL     1      37.147  53.896  42.709  1.00  0.00     0.049 A 
HETATM   21  C   UNL     1      37.790  54.970  41.923  1.00  0.00     0.076 C 
HETATM   22  C   UNL     1      37.040  53.657  44.061  1.00  0.00     0.035 A 
HETATM   23  C   UNL     1      36.288  52.466  44.202  1.00  0.00     0.037 A 
ENDBRANCH  17  18
ENDBRANCH   1  17
TORSDOF 3
ENDMDL
MODEL 8
REMARK VINA RESULT:      -7.2     12.487     14.369
REMARK  3 active torsions:
REMARK  status: ('A' for Active; 'I' for Inactive)
REMARK    1  A    between atoms: C_4  and  C_5 
REMARK    2  A    between atoms: C_5  and  N_6 
REMARK    3  A    between atoms: N_10  and  S_11 
ROOT
HETATM    1  N   UNL     1      29.964  48.445  39.534  1.00  0.00    -0.063 N 
HETATM    2  H   UNL     1      29.661  49.007  38.728  1.00  0.00     0.280 HD
HETATM    3  C   UNL     1      31.022  49.230  40.298  1.00  0.00     0.267 C 
HETATM    4  C   UNL     1      30.464  50.593  40.836  1.00  0.00     0.067 C 
HETATM    5  N   UNL     1      31.519  51.387  41.625  1.00  0.00    -0.300 N 
HETATM    6  C   UNL     1      31.006  52.716  42.093  1.00  0.00     0.136 C 
HETATM    7  C   UNL     1      30.628  53.574  40.893  1.00  0.00     0.021 C 
HETATM    8  C   UNL     1      29.609  52.880  40.002  1.00  0.00     0.004 C 
HETATM    9  C   UNL     1      30.094  51.486  39.611  1.00  0.00     0.033 C 
HETATM   10  C   UNL     1      29.225  50.256  41.706  1.00  0.00     0.035 C 
HETATM   11  C   UNL     1      28.191  49.392  40.975  1.00  0.00     0.030 C 
HETATM   12  C   UNL     1      28.786  48.114  40.401  1.00  0.00     0.235 C 
ENDROOT
BRANCH   5  13
HETATM   13  S   UNL     1      32.490  50.548  42.755  1.00  0.00     0.225 S 
HETATM   14  C   UNL     1      32.993  51.794  43.931  1.00  0.00     0.186 C 
HETATM   15  O   UNL     1      31.636  49.580  43.402  1.00  0.00    -0.206 OA
HETATM   16  O   UNL     1      33.677  50.123  42.042  1.00  0.00    -0.206 OA
ENDBRANCH   5  13
BRANCH   1  17
HETATM   17  C   UNL     1      30.561  47.209  38.881  1.00  0.00     0.299 C 
BRANCH  17  18
HETATM   18  C   UNL     1      29.522  46.200  38.557  1.00  0.00     0.079 A 
HETATM   19  O   UNL     1      29.446  45.127  39.401  1.00  0.00    -0.318 OA
HETATM   20  C   UNL     1      28.429  44.339  38.950  1.00  0.00     0.049 A 
HETATM   21  C   UNL     1      28.143  43.110  39.719  1.00  0.00     0.076 C 
HETATM   22  C   UNL     1      27.861  44.897  37.826  1.00  0.00     0.035 A 
HETATM   23  C   UNL     1      28.566  46.098  37.571  1.00  0.00     0.037 A 
ENDBRANCH  17  18
ENDBRANCH   1  17
TORSDOF 3
ENDMDL
MODEL 9
REMARK VINA RESULT:      -7.1     15.839     17.371
REMARK  3 active torsions:
REMARK  status: ('A' for Active; 'I' for Inactive)
REMARK    1  A    between atoms: C_4  and  C_5 
REMARK    2  A    between atoms: C_5  and  N_6 
REMARK    3  A    between atoms: N_10  and  S_11 
ROOT
HETATM    1  N   UNL     1      38.160  47.147  64.336  1.00  0.00    -0.063 N 
HETATM    2  H   UNL     1      38.617  47.114  63.415  1.00  0.00     0.280 HD
HETATM    3  C   UNL     1      37.231  45.946  64.455  1.00  0.00     0.267 C 
HETATM    4  C   UNL     1      38.011  44.590  64.345  1.00  0.00     0.067 C 
HETATM    5  N   UNL     1      37.084  43.369  64.483  1.00  0.00    -0.300 N 
HETATM    6  C   UNL     1      37.816  42.071  64.322  1.00  0.00     0.136 C 
HETATM    7  C   UNL     1      38.429  41.994  62.929  1.00  0.00     0.021 C 
HETATM    8  C   UNL     1      39.345  43.175  62.651  1.00  0.00     0.004 C 
HETATM    9  C   UNL     1      38.623  44.494  62.914  1.00  0.00     0.033 C 
HETATM   10  C   UNL     1      39.103  44.612  65.445  1.00  0.00     0.035 C 
HETATM   11  C   UNL     1      39.992  45.860  65.389  1.00  0.00     0.030 C 
HETATM   12  C   UNL     1      39.196  47.156  65.421  1.00  0.00     0.235 C 
ENDROOT
BRANCH   5  13
HETATM   13  S   UNL     1      35.900  43.384  65.716  1.00  0.00     0.225 S 
HETATM   14  C   UNL     1      35.061  41.815  65.554  1.00  0.00     0.186 C 
HETATM   15  O   UNL     1      36.607  43.433  66.974  1.00  0.00    -0.206 OA
HETATM   16  O   UNL     1      34.950  44.419  65.363  1.00  0.00    -0.206 OA
ENDBRANCH   5  13
BRANCH   1  17
HETATM   17  C   UNL     1      37.375  48.446  64.280  1.00  0.00     0.299 C 
BRANCH  17  18
HETATM   18  C   UNL     1      37.367  49.143  65.590  1.00  0.00     0.079 A 
HETATM   19  O   UNL     1      37.850  50.423  65.589  1.00  0.00    -0.318 OA
HETATM   20  C   UNL     1      37.738  50.890  66.865  1.00  0.00     0.049 A 
HETATM   21  C   UNL     1      38.188  52.275  67.113  1.00  0.00     0.076 C 
HETATM   22  C   UNL     1      37.192  49.920  67.677  1.00  0.00     0.035 A 
HETATM   23  C   UNL     1      36.954  48.792  66.855  1.00  0.00     0.037 A 
ENDBRANCH  17  18
ENDBRANCH   1  17
TORSDOF 3
ENDMDL
MODEL 10
REMARK VINA RESULT:      -7.0     11.028     14.090
REMARK  3 active torsions:
REMARK  status: ('A' for Active; 'I' for Inactive)
REMARK    1  A    between atoms: C_4  and  C_5 
REMARK    2  A    between atoms: C_5  and  N_6 
REMARK    3  A    between atoms: N_10  and  S_11 
ROOT
HETATM    1  N   UNL     1      16.650  52.088  48.999  1.00  0.00    -0.063 N 
HETATM    2  H   UNL     1      16.509  52.660  48.155  1.00  0.00     0.280 HD
HETATM    3  C   UNL     1      16.576  50.619  48.601  1.00  0.00     0.267 C 
HETATM    4  C   UNL     1      17.688  50.238  47.563  1.00  0.00     0.067 C 
HETATM    5  N   UNL     1      17.636  48.752  47.169  1.00  0.00    -0.300 N 
HETATM    6  C   UNL     1      18.660  48.395  46.135  1.00  0.00     0.136 C 
HETATM    7  C   UNL     1      18.405  49.190  44.860  1.00  0.00     0.021 C 
HETATM    8  C   UNL     1      18.393  50.688  45.123  1.00  0.00     0.004 C 
HETATM    9  C   UNL     1      17.420  51.032  46.248  1.00  0.00     0.033 C 
HETATM   10  C   UNL     1      19.048  50.617  48.205  1.00  0.00     0.035 C 
HETATM   11  C   UNL     1      19.103  52.070  48.688  1.00  0.00     0.030 C 
HETATM   12  C   UNL     1      17.966  52.425  49.634  1.00  0.00     0.235 C 
ENDROOT
BRANCH   5  13
HETATM   13  S   UNL     1      17.421  47.590  48.405  1.00  0.00     0.225 S 
HETATM   14  C   UNL     1      17.884  46.039  47.652  1.00  0.00     0.186 C 
HETATM   15  O   UNL     1      18.354  47.922  49.456  1.00  0.00    -0.206 OA
HETATM   16  O   UNL     1      15.999  47.532  48.674  1.00  0.00    -0.206 OA
ENDBRANCH   5  13
BRANCH   1  17
HETATM   17  C   UNL     1      15.472  52.480  49.874  1.00  0.00     0.299 C 
BRANCH  17  18
HETATM   18  C   UNL     1      14.998  53.855  49.578  1.00  0.00     0.079 A 
HETATM   19  O   UNL     1      15.444  54.836  50.421  1.00  0.00    -0.318 OA
HETATM   20  C   UNL     1      14.921  56.012  49.973  1.00  0.00     0.049 A 
HETATM   21  C   UNL     1      15.278  57.233  50.725  1.00  0.00     0.076 C 
HETATM   22  C   UNL     1      14.146  55.790  48.856  1.00  0.00     0.035 A 
HETATM   23  C   UNL     1      14.194  54.398  48.601  1.00  0.00     0.037 A 
ENDBRANCH  17  18
ENDBRANCH   1  17
TORSDOF 3
ENDMDL
