MODEL 1
REMARK VINA RESULT:      -8.6      0.000      0.000
REMARK  7 active torsions:
REMARK  status: ('A' for Active; 'I' for Inactive)
REMARK    1  A    between atoms: C_8  and  C_9 
REMARK    2  A    between atoms: C_9  and  N_10 
REMARK    3  A    between atoms: C_9  and  C_14 
REMARK       I    between atoms: C_14  and  N_15 
REMARK    4  A    between atoms: N_15  and  C_16 
REMARK    5  A    between atoms: C_16  and  C_17 
REMARK    6  A    between atoms: C_17  and  C_18 
REMARK    7  A    between atoms: C_17  and  C_24 
ROOT
HETATM    1  C   UNL     1      27.546  40.467  51.741  1.00  0.00     0.253 C 
HETATM    2  N   UNL     1      27.380  41.137  52.933  1.00  0.00    -0.358 N 
HETATM    3  O   UNL     1      28.645  40.233  51.243  1.00  0.00    -0.271 OA
HETATM    4  H   UNL     1      26.483  41.085  53.404  1.00  0.00     0.162 HD
ENDROOT
BRANCH   2   5
HETATM    5  C   UNL     1      28.501  41.563  53.783  1.00  0.00     0.141 C 
BRANCH   5   6
HETATM    6  C   UNL     1      28.842  43.110  53.713  1.00  0.00     0.026 C 
HETATM    7  C   UNL     1      29.763  43.277  52.462  1.00  0.00     0.027 C 
BRANCH   6   8
HETATM    8  C   UNL     1      27.492  43.858  53.548  1.00  0.00    -0.044 A 
HETATM    9  C   UNL     1      27.264  44.648  52.403  1.00  0.00     0.008 A 
HETATM   10  C   UNL     1      26.071  45.355  52.230  1.00  0.00     0.001 A 
HETATM   11  C   UNL     1      25.074  45.287  53.195  1.00  0.00     0.000 A 
HETATM   12  C   UNL     1      25.269  44.510  54.332  1.00  0.00     0.001 A 
HETATM   13  C   UNL     1      26.465  43.805  54.508  1.00  0.00     0.008 A 
ENDBRANCH   6   8
BRANCH   6  14
HETATM   14  C   UNL     1      29.601  43.661  54.952  1.00  0.00    -0.044 A 
HETATM   15  C   UNL     1      30.606  42.895  55.578  1.00  0.00     0.008 A 
HETATM   16  C   UNL     1      31.326  43.380  56.676  1.00  0.00     0.001 A 
HETATM   17  C   UNL     1      31.079  44.656  57.163  1.00  0.00     0.000 A 
HETATM   18  C   UNL     1      30.123  45.451  56.543  1.00  0.00     0.001 A 
HETATM   19  C   UNL     1      29.403  44.962  55.447  1.00  0.00     0.008 A 
ENDBRANCH   6  14
ENDBRANCH   5   6
ENDBRANCH   2   5
BRANCH   1  20
HETATM   20  C   UNL     1      26.278  40.220  50.891  1.00  0.00     0.311 C 
BRANCH  20  21
HETATM   21  C   UNL     1      26.060  41.214  49.795  1.00  0.00     0.031 A 
HETATM   22  C   UNL     1      26.679  41.367  48.558  1.00  0.00     0.035 A 
HETATM   23  C   UNL     1      27.767  40.651  47.849  1.00  0.00     0.070 C 
HETATM   24  N   UNL     1      26.065  42.441  47.961  1.00  0.00    -0.282 N 
HETATM   25  H   UNL     1      26.249  42.855  47.050  1.00  0.00     0.189 HD
HETATM   26  N   UNL     1      25.108  42.984  48.712  1.00  0.00    -0.179 NA
HETATM   27  C   UNL     1      25.084  42.256  49.827  1.00  0.00     0.061 A 
HETATM   28  C   UNL     1      24.100  42.584  50.894  1.00  0.00     0.073 C 
ENDBRANCH  20  21
BRANCH  20  29
HETATM   29  N   UNL     1      26.286  38.805  50.413  1.00  0.00    -0.062 N 
HETATM   30  H   UNL     1      27.231  38.518  50.141  1.00  0.00     0.275 HD
HETATM   31  H   UNL     1      26.000  38.190  51.188  1.00  0.00     0.275 HD
HETATM   32  H   UNL     1      25.645  38.676  49.624  1.00  0.00     0.275 HD
ENDBRANCH  20  29
ENDBRANCH   1  20
TORSDOF 7
ENDMDL
MODEL 2
REMARK VINA RESULT:      -8.5      1.018      3.834
REMARK  7 active torsions:
REMARK  status: ('A' for Active; 'I' for Inactive)
REMARK    1  A    between atoms: C_8  and  C_9 
REMARK    2  A    between atoms: C_9  and  N_10 
REMARK    3  A    between atoms: C_9  and  C_14 
REMARK       I    between atoms: C_14  and  N_15 
REMARK    4  A    between atoms: N_15  and  C_16 
REMARK    5  A    between atoms: C_16  and  C_17 
REMARK    6  A    between atoms: C_17  and  C_18 
REMARK    7  A    between atoms: C_17  and  C_24 
ROOT
HETATM    1  C   UNL     1      27.314  40.666  51.257  1.00  0.00     0.253 C 
HETATM    2  N   UNL     1      27.005  41.104  52.526  1.00  0.00    -0.358 N 
HETATM    3  O   UNL     1      28.380  40.913  50.697  1.00  0.00    -0.271 OA
HETATM    4  H   UNL     1      26.229  40.673  53.019  1.00  0.00     0.162 HD
ENDROOT
BRANCH   2   5
HETATM    5  C   UNL     1      27.951  41.835  53.382  1.00  0.00     0.141 C 
BRANCH   5   6
HETATM    6  C   UNL     1      27.477  43.283  53.819  1.00  0.00     0.026 C 
HETATM    7  C   UNL     1      26.224  43.055  54.725  1.00  0.00     0.027 C 
BRANCH   6   8
HETATM    8  C   UNL     1      28.655  43.923  54.601  1.00  0.00    -0.044 A 
HETATM    9  C   UNL     1      29.843  43.190  54.802  1.00  0.00     0.008 A 
HETATM   10  C   UNL     1      30.916  43.724  55.520  1.00  0.00     0.001 A 
HETATM   11  C   UNL     1      30.831  45.005  56.052  1.00  0.00     0.000 A 
HETATM   12  C   UNL     1      29.673  45.753  55.863  1.00  0.00     0.001 A 
HETATM   13  C   UNL     1      28.597  45.218  55.148  1.00  0.00     0.008 A 
ENDBRANCH   6   8
BRANCH   6  14
HETATM   14  C   UNL     1      27.062  44.209  52.641  1.00  0.00    -0.044 A 
HETATM   15  C   UNL     1      26.050  45.177  52.812  1.00  0.00     0.008 A 
HETATM   16  C   UNL     1      25.680  46.045  51.778  1.00  0.00     0.001 A 
HETATM   17  C   UNL     1      26.327  45.986  50.552  1.00  0.00     0.000 A 
HETATM   18  C   UNL     1      27.357  45.070  50.366  1.00  0.00     0.001 A 
HETATM   19  C   UNL     1      27.723  44.202  51.401  1.00  0.00     0.008 A 
ENDBRANCH   6  14
ENDBRANCH   5   6
ENDBRANCH   2   5
BRANCH   1  20
HETATM   20  C   UNL     1      26.165  40.047  50.428  1.00  0.00     0.311 C 
BRANCH  20  21
HETATM   21  C   UNL     1      25.701  40.887  49.281  1.00  0.00     0.031 A 
HETATM   22  C   UNL     1      25.923  40.775  47.912  1.00  0.00     0.035 A 
HETATM   23  C   UNL     1      26.684  39.828  47.061  1.00  0.00     0.070 C 
HETATM   24  N   UNL     1      25.242  41.818  47.334  1.00  0.00    -0.282 N 
HETATM   25  H   UNL     1      25.171  42.066  46.350  1.00  0.00     0.189 HD
HETATM   26  N   UNL     1      24.606  42.585  48.219  1.00  0.00    -0.179 NA
HETATM   27  C   UNL     1      24.867  42.040  49.405  1.00  0.00     0.061 A 
HETATM   28  C   UNL     1      24.283  42.645  50.633  1.00  0.00     0.073 C 
ENDBRANCH  20  21
BRANCH  20  29
HETATM   29  N   UNL     1      26.553  38.661  50.027  1.00  0.00    -0.062 N 
HETATM   30  H   UNL     1      26.552  38.564  49.007  1.00  0.00     0.275 HD
HETATM   31  H   UNL     1      27.517  38.481  50.341  1.00  0.00     0.275 HD
HETATM   32  H   UNL     1      25.926  37.965  50.442  1.00  0.00     0.275 HD
ENDBRANCH  20  29
ENDBRANCH   1  20
TORSDOF 7
ENDMDL
MODEL 3
REMARK VINA RESULT:      -8.3      1.862      3.201
REMARK  7 active torsions:
REMARK  status: ('A' for Active; 'I' for Inactive)
REMARK    1  A    between atoms: C_8  and  C_9 
REMARK    2  A    between atoms: C_9  and  N_10 
REMARK    3  A    between atoms: C_9  and  C_14 
REMARK       I    between atoms: C_14  and  N_15 
REMARK    4  A    between atoms: N_15  and  C_16 
REMARK    5  A    between atoms: C_16  and  C_17 
REMARK    6  A    between atoms: C_17  and  C_18 
REMARK    7  A    between atoms: C_17  and  C_24 
ROOT
HETATM    1  C   UNL     1      28.351  40.664  51.308  1.00  0.00     0.253 C 
HETATM    2  N   UNL     1      29.185  40.894  52.380  1.00  0.00    -0.358 N 
HETATM    3  O   UNL     1      27.150  40.926  51.316  1.00  0.00    -0.271 OA
HETATM    4  H   UNL     1      30.189  40.888  52.232  1.00  0.00     0.162 HD
ENDROOT
BRANCH   2   5
HETATM    5  C   UNL     1      28.748  41.561  53.616  1.00  0.00     0.141 C 
BRANCH   5   6
HETATM    6  C   UNL     1      28.993  43.126  53.654  1.00  0.00     0.026 C 
HETATM    7  C   UNL     1      29.871  43.440  52.400  1.00  0.00     0.027 C 
BRANCH   6   8
HETATM    8  C   UNL     1      27.597  43.800  53.573  1.00  0.00    -0.044 A 
HETATM    9  C   UNL     1      26.640  43.551  54.577  1.00  0.00     0.008 A 
HETATM   10  C   UNL     1      25.364  44.121  54.527  1.00  0.00     0.001 A 
HETATM   11  C   UNL     1      25.016  44.958  53.473  1.00  0.00     0.000 A 
HETATM   12  C   UNL     1      25.943  45.226  52.472  1.00  0.00     0.001 A 
HETATM   13  C   UNL     1      27.218  44.653  52.520  1.00  0.00     0.008 A 
ENDBRANCH   6   8
BRANCH   6  14
HETATM   14  C   UNL     1      29.749  43.632  54.915  1.00  0.00    -0.044 A 
HETATM   15  C   UNL     1      29.478  44.908  55.449  1.00  0.00     0.008 A 
HETATM   16  C   UNL     1      30.120  45.375  56.602  1.00  0.00     0.001 A 
HETATM   17  C   UNL     1      31.035  44.569  57.266  1.00  0.00     0.000 A 
HETATM   18  C   UNL     1      31.293  43.290  56.787  1.00  0.00     0.001 A 
HETATM   19  C   UNL     1      30.650  42.827  55.633  1.00  0.00     0.008 A 
ENDBRANCH   6  14
ENDBRANCH   5   6
ENDBRANCH   2   5
BRANCH   1  20
HETATM   20  C   UNL     1      28.920  39.821  50.144  1.00  0.00     0.311 C 
BRANCH  20  21
HETATM   21  C   UNL     1      28.346  38.445  50.034  1.00  0.00     0.031 A 
HETATM   22  C   UNL     1      28.752  37.233  50.584  1.00  0.00     0.035 A 
HETATM   23  C   UNL     1      29.875  36.820  51.460  1.00  0.00     0.070 C 
HETATM   24  N   UNL     1      27.841  36.300  50.154  1.00  0.00    -0.282 N 
HETATM   25  H   UNL     1      27.809  35.302  50.350  1.00  0.00     0.189 HD
HETATM   26  N   UNL     1      26.889  36.814  49.377  1.00  0.00    -0.179 NA
HETATM   27  C   UNL     1      27.171  38.112  49.291  1.00  0.00     0.061 A 
HETATM   28  C   UNL     1      26.281  39.005  48.499  1.00  0.00     0.073 C 
ENDBRANCH  20  21
BRANCH  20  29
HETATM   29  N   UNL     1      28.812  40.609  48.880  1.00  0.00    -0.062 N 
HETATM   30  H   UNL     1      29.263  40.116  48.103  1.00  0.00     0.275 HD
HETATM   31  H   UNL     1      27.818  40.708  48.632  1.00  0.00     0.275 HD
HETATM   32  H   UNL     1      29.229  41.540  48.986  1.00  0.00     0.275 HD
ENDBRANCH  20  29
ENDBRANCH   1  20
TORSDOF 7
ENDMDL
MODEL 4
REMARK VINA RESULT:      -7.9      1.376      2.317
REMARK  7 active torsions:
REMARK  status: ('A' for Active; 'I' for Inactive)
REMARK    1  A    between atoms: C_8  and  C_9 
REMARK    2  A    between atoms: C_9  and  N_10 
REMARK    3  A    between atoms: C_9  and  C_14 
REMARK       I    between atoms: C_14  and  N_15 
REMARK    4  A    between atoms: N_15  and  C_16 
REMARK    5  A    between atoms: C_16  and  C_17 
REMARK    6  A    between atoms: C_17  and  C_18 
REMARK    7  A    between atoms: C_17  and  C_24 
ROOT
HETATM    1  C   UNL     1      27.718  40.538  51.541  1.00  0.00     0.253 C 
HETATM    2  N   UNL     1      28.719  40.818  52.445  1.00  0.00    -0.358 N 
HETATM    3  O   UNL     1      26.533  40.799  51.742  1.00  0.00    -0.271 OA
HETATM    4  H   UNL     1      29.684  40.805  52.128  1.00  0.00     0.162 HD
ENDROOT
BRANCH   2   5
HETATM    5  C   UNL     1      28.492  41.541  53.705  1.00  0.00     0.141 C 
BRANCH   5   6
HETATM    6  C   UNL     1      28.840  43.087  53.661  1.00  0.00     0.026 C 
HETATM    7  C   UNL     1      29.765  43.270  52.415  1.00  0.00     0.027 C 
BRANCH   6   8
HETATM    8  C   UNL     1      27.494  43.844  53.506  1.00  0.00    -0.044 A 
HETATM    9  C   UNL     1      26.466  43.647  54.451  1.00  0.00     0.008 A 
HETATM   10  C   UNL     1      25.232  44.293  54.332  1.00  0.00     0.001 A 
HETATM   11  C   UNL     1      24.996  45.156  53.268  1.00  0.00     0.000 A 
HETATM   12  C   UNL     1      25.995  45.373  52.325  1.00  0.00     0.001 A 
HETATM   13  C   UNL     1      27.229  44.725  52.441  1.00  0.00     0.008 A 
ENDBRANCH   6   8
BRANCH   6  14
HETATM   14  C   UNL     1      29.599  43.615  54.911  1.00  0.00    -0.044 A 
HETATM   15  C   UNL     1      30.585  42.825  55.537  1.00  0.00     0.008 A 
HETATM   16  C   UNL     1      31.306  43.289  56.644  1.00  0.00     0.001 A 
HETATM   17  C   UNL     1      31.077  44.565  57.141  1.00  0.00     0.000 A 
HETATM   18  C   UNL     1      30.139  45.382  56.520  1.00  0.00     0.001 A 
HETATM   19  C   UNL     1      29.419  44.915  55.415  1.00  0.00     0.008 A 
ENDBRANCH   6  14
ENDBRANCH   5   6
ENDBRANCH   2   5
BRANCH   1  20
HETATM   20  C   UNL     1      28.088  39.642  50.338  1.00  0.00     0.311 C 
BRANCH  20  21
HETATM   21  C   UNL     1      27.746  40.220  49.002  1.00  0.00     0.031 A 
HETATM   22  C   UNL     1      27.295  41.485  48.636  1.00  0.00     0.035 A 
HETATM   23  C   UNL     1      26.973  42.724  49.384  1.00  0.00     0.070 C 
HETATM   24  N   UNL     1      27.159  41.455  47.270  1.00  0.00    -0.282 N 
HETATM   25  H   UNL     1      26.850  42.196  46.644  1.00  0.00     0.189 HD
HETATM   26  N   UNL     1      27.484  40.279  46.735  1.00  0.00    -0.179 NA
HETATM   27  C   UNL     1      27.845  39.515  47.763  1.00  0.00     0.061 A 
HETATM   28  C   UNL     1      28.294  38.118  47.514  1.00  0.00     0.073 C 
ENDBRANCH  20  21
BRANCH  20  29
HETATM   29  N   UNL     1      29.522  39.240  50.458  1.00  0.00    -0.062 N 
HETATM   30  H   UNL     1      29.605  38.309  50.878  1.00  0.00     0.275 HD
HETATM   31  H   UNL     1      29.931  39.179  49.515  1.00  0.00     0.275 HD
HETATM   32  H   UNL     1      30.051  39.918  51.015  1.00  0.00     0.275 HD
ENDBRANCH  20  29
ENDBRANCH   1  20
TORSDOF 7
ENDMDL
MODEL 5
REMARK VINA RESULT:      -7.7     13.141     15.179
REMARK  7 active torsions:
REMARK  status: ('A' for Active; 'I' for Inactive)
REMARK    1  A    between atoms: C_8  and  C_9 
REMARK    2  A    between atoms: C_9  and  N_10 
REMARK    3  A    between atoms: C_9  and  C_14 
REMARK       I    between atoms: C_14  and  N_15 
REMARK    4  A    between atoms: N_15  and  C_16 
REMARK    5  A    between atoms: C_16  and  C_17 
REMARK    6  A    between atoms: C_17  and  C_18 
REMARK    7  A    between atoms: C_17  and  C_24 
ROOT
HETATM    1  C   UNL     1      30.964  48.240  40.786  1.00  0.00     0.253 C 
HETATM    2  N   UNL     1      30.759  49.141  41.809  1.00  0.00    -0.358 N 
HETATM    3  O   UNL     1      32.037  47.675  40.588  1.00  0.00    -0.271 OA
HETATM    4  H   UNL     1      29.807  49.382  42.067  1.00  0.00     0.162 HD
ENDROOT
BRANCH   2   5
HETATM    5  C   UNL     1      31.773  49.454  42.826  1.00  0.00     0.141 C 
BRANCH   5   6
HETATM    6  C   UNL     1      32.280  50.956  42.825  1.00  0.00     0.026 C 
HETATM    7  C   UNL     1      32.167  51.435  44.308  1.00  0.00     0.027 C 
BRANCH   6   8
HETATM    8  C   UNL     1      33.751  50.931  42.329  1.00  0.00    -0.044 A 
HETATM    9  C   UNL     1      34.743  51.634  43.044  1.00  0.00     0.008 A 
HETATM   10  C   UNL     1      36.073  51.654  42.616  1.00  0.00     0.001 A 
HETATM   11  C   UNL     1      36.447  50.970  41.466  1.00  0.00     0.000 A 
HETATM   12  C   UNL     1      35.490  50.263  40.745  1.00  0.00     0.001 A 
HETATM   13  C   UNL     1      34.157  50.245  41.171  1.00  0.00     0.008 A 
ENDBRANCH   6   8
BRANCH   6  14
HETATM   14  C   UNL     1      31.443  51.920  41.938  1.00  0.00    -0.044 A 
HETATM   15  C   UNL     1      30.035  51.934  42.026  1.00  0.00     0.008 A 
HETATM   16  C   UNL     1      29.259  52.814  41.263  1.00  0.00     0.001 A 
HETATM   17  C   UNL     1      29.870  53.721  40.407  1.00  0.00     0.000 A 
HETATM   18  C   UNL     1      31.257  53.758  40.329  1.00  0.00     0.001 A 
HETATM   19  C   UNL     1      32.030  52.876  41.092  1.00  0.00     0.008 A 
ENDBRANCH   6  14
ENDBRANCH   5   6
ENDBRANCH   2   5
BRANCH   1  20
HETATM   20  C   UNL     1      29.858  48.133  39.712  1.00  0.00     0.311 C 
BRANCH  20  21
HETATM   21  C   UNL     1      29.531  49.419  39.024  1.00  0.00     0.031 A 
HETATM   22  C   UNL     1      30.350  50.404  38.479  1.00  0.00     0.035 A 
HETATM   23  C   UNL     1      31.818  50.583  38.368  1.00  0.00     0.070 C 
HETATM   24  N   UNL     1      29.503  51.355  37.965  1.00  0.00    -0.282 N 
HETATM   25  H   UNL     1      29.735  52.225  37.490  1.00  0.00     0.189 HD
HETATM   26  N   UNL     1      28.216  51.061  38.137  1.00  0.00    -0.179 NA
HETATM   27  C   UNL     1      28.206  49.892  38.773  1.00  0.00     0.061 A 
HETATM   28  C   UNL     1      26.905  49.252  39.110  1.00  0.00     0.073 C 
ENDBRANCH  20  21
BRANCH  20  29
HETATM   29  N   UNL     1      30.208  47.030  38.768  1.00  0.00    -0.062 N 
HETATM   30  H   UNL     1      31.212  47.032  38.563  1.00  0.00     0.275 HD
HETATM   31  H   UNL     1      29.999  46.127  39.218  1.00  0.00     0.275 HD
HETATM   32  H   UNL     1      29.677  47.105  37.895  1.00  0.00     0.275 HD
ENDBRANCH  20  29
ENDBRANCH   1  20
TORSDOF 7
ENDMDL
MODEL 6
REMARK VINA RESULT:      -7.7     12.207     14.302
REMARK  7 active torsions:
REMARK  status: ('A' for Active; 'I' for Inactive)
REMARK    1  A    between atoms: C_8  and  C_9 
REMARK    2  A    between atoms: C_9  and  N_10 
REMARK    3  A    between atoms: C_9  and  C_14 
REMARK       I    between atoms: C_14  and  N_15 
REMARK    4  A    between atoms: N_15  and  C_16 
REMARK    5  A    between atoms: C_16  and  C_17 
REMARK    6  A    between atoms: C_17  and  C_18 
REMARK    7  A    between atoms: C_17  and  C_24 
ROOT
HETATM    1  C   UNL     1      30.486  47.720  39.149  1.00  0.00     0.253 C 
HETATM    2  N   UNL     1      31.221  47.775  40.313  1.00  0.00    -0.358 N 
HETATM    3  O   UNL     1      30.434  48.642  38.337  1.00  0.00    -0.271 OA
HETATM    4  H   UNL     1      31.418  46.912  40.810  1.00  0.00     0.162 HD
ENDROOT
BRANCH   2   5
HETATM    5  C   UNL     1      32.094  48.905  40.665  1.00  0.00     0.141 C 
BRANCH   5   6
HETATM    6  C   UNL     1      31.486  49.913  41.727  1.00  0.00     0.026 C 
HETATM    7  C   UNL     1      30.654  49.030  42.711  1.00  0.00     0.027 C 
BRANCH   6   8
HETATM    8  C   UNL     1      32.687  50.600  42.430  1.00  0.00    -0.044 A 
HETATM    9  C   UNL     1      32.487  51.289  43.644  1.00  0.00     0.008 A 
HETATM   10  C   UNL     1      33.539  51.939  44.295  1.00  0.00     0.001 A 
HETATM   11  C   UNL     1      34.818  51.913  43.752  1.00  0.00     0.000 A 
HETATM   12  C   UNL     1      35.045  51.235  42.559  1.00  0.00     0.001 A 
HETATM   13  C   UNL     1      33.992  50.587  41.905  1.00  0.00     0.008 A 
ENDBRANCH   6   8
BRANCH   6  14
HETATM   14  C   UNL     1      30.541  50.992  41.126  1.00  0.00    -0.044 A 
HETATM   15  C   UNL     1      29.441  51.473  41.865  1.00  0.00     0.008 A 
HETATM   16  C   UNL     1      28.593  52.467  41.361  1.00  0.00     0.001 A 
HETATM   17  C   UNL     1      28.837  53.024  40.114  1.00  0.00     0.000 A 
HETATM   18  C   UNL     1      29.937  52.600  39.378  1.00  0.00     0.001 A 
HETATM   19  C   UNL     1      30.781  51.604  39.884  1.00  0.00     0.008 A 
ENDBRANCH   6  14
ENDBRANCH   5   6
ENDBRANCH   2   5
BRANCH   1  20
HETATM   20  C   UNL     1      29.503  46.538  38.994  1.00  0.00     0.311 C 
BRANCH  20  21
HETATM   21  C   UNL     1      28.282  46.626  39.852  1.00  0.00     0.031 A 
HETATM   22  C   UNL     1      27.507  47.715  40.239  1.00  0.00     0.035 A 
HETATM   23  C   UNL     1      27.572  49.174  39.981  1.00  0.00     0.070 C 
HETATM   24  N   UNL     1      26.501  47.203  41.020  1.00  0.00    -0.282 N 
HETATM   25  H   UNL     1      25.741  47.695  41.485  1.00  0.00     0.189 HD
HETATM   26  N   UNL     1      26.569  45.880  41.164  1.00  0.00    -0.179 NA
HETATM   27  C   UNL     1      27.637  45.507  40.464  1.00  0.00     0.061 A 
HETATM   28  C   UNL     1      28.000  44.065  40.393  1.00  0.00     0.073 C 
ENDBRANCH  20  21
BRANCH  20  29
HETATM   29  N   UNL     1      29.194  46.355  37.543  1.00  0.00    -0.062 N 
HETATM   30  H   UNL     1      29.069  47.261  37.081  1.00  0.00     0.275 HD
HETATM   31  H   UNL     1      29.995  45.897  37.087  1.00  0.00     0.275 HD
HETATM   32  H   UNL     1      28.355  45.781  37.412  1.00  0.00     0.275 HD
ENDBRANCH  20  29
ENDBRANCH   1  20
TORSDOF 7
ENDMDL
MODEL 7
REMARK VINA RESULT:      -7.7     12.615     15.180
REMARK  7 active torsions:
REMARK  status: ('A' for Active; 'I' for Inactive)
REMARK    1  A    between atoms: C_8  and  C_9 
REMARK    2  A    between atoms: C_9  and  N_10 
REMARK    3  A    between atoms: C_9  and  C_14 
REMARK       I    between atoms: C_14  and  N_15 
REMARK    4  A    between atoms: N_15  and  C_16 
REMARK    5  A    between atoms: C_16  and  C_17 
REMARK    6  A    between atoms: C_17  and  C_18 
REMARK    7  A    between atoms: C_17  and  C_24 
ROOT
HETATM    1  C   UNL     1      28.676  50.458  38.354  1.00  0.00     0.253 C 
HETATM    2  N   UNL     1      29.434  49.321  38.524  1.00  0.00    -0.358 N 
HETATM    3  O   UNL     1      27.523  50.445  37.928  1.00  0.00    -0.271 OA
HETATM    4  H   UNL     1      30.271  49.371  39.097  1.00  0.00     0.162 HD
ENDROOT
BRANCH   2   5
HETATM    5  C   UNL     1      28.917  47.963  38.302  1.00  0.00     0.141 C 
BRANCH   5   6
HETATM    6  C   UNL     1      28.975  47.011  39.568  1.00  0.00     0.026 C 
HETATM    7  C   UNL     1      29.476  45.632  39.029  1.00  0.00     0.027 C 
BRANCH   6   8
HETATM    8  C   UNL     1      29.982  47.649  40.562  1.00  0.00    -0.044 A 
HETATM    9  C   UNL     1      31.368  47.499  40.350  1.00  0.00     0.008 A 
HETATM   10  C   UNL     1      32.304  48.041  41.236  1.00  0.00     0.001 A 
HETATM   11  C   UNL     1      31.878  48.749  42.353  1.00  0.00     0.000 A 
HETATM   12  C   UNL     1      30.517  48.918  42.583  1.00  0.00     0.001 A 
HETATM   13  C   UNL     1      29.579  48.374  41.700  1.00  0.00     0.008 A 
ENDBRANCH   6   8
BRANCH   6  14
HETATM   14  C   UNL     1      27.608  46.788  40.274  1.00  0.00    -0.044 A 
HETATM   15  C   UNL     1      26.570  47.733  40.140  1.00  0.00     0.008 A 
HETATM   16  C   UNL     1      25.319  47.542  40.738  1.00  0.00     0.001 A 
HETATM   17  C   UNL     1      25.063  46.389  41.468  1.00  0.00     0.000 A 
HETATM   18  C   UNL     1      26.053  45.420  41.584  1.00  0.00     0.001 A 
HETATM   19  C   UNL     1      27.304  45.615  40.986  1.00  0.00     0.008 A 
ENDBRANCH   6  14
ENDBRANCH   5   6
ENDBRANCH   2   5
BRANCH   1  20
HETATM   20  C   UNL     1      29.405  51.815  38.480  1.00  0.00     0.311 C 
BRANCH  20  21
HETATM   21  C   UNL     1      30.145  52.008  39.765  1.00  0.00     0.031 A 
HETATM   22  C   UNL     1      31.498  51.895  40.071  1.00  0.00     0.035 A 
HETATM   23  C   UNL     1      32.709  51.544  39.291  1.00  0.00     0.070 C 
HETATM   24  N   UNL     1      31.607  52.198  41.406  1.00  0.00    -0.282 N 
HETATM   25  H   UNL     1      32.442  52.220  41.988  1.00  0.00     0.189 HD
HETATM   26  N   UNL     1      30.440  52.493  41.976  1.00  0.00    -0.179 NA
HETATM   27  C   UNL     1      29.539  52.388  41.001  1.00  0.00     0.061 A 
HETATM   28  C   UNL     1      28.108  52.675  41.293  1.00  0.00     0.073 C 
ENDBRANCH  20  21
BRANCH  20  29
HETATM   29  N   UNL     1      30.258  52.019  37.270  1.00  0.00    -0.062 N 
HETATM   30  H   UNL     1      29.679  52.148  36.434  1.00  0.00     0.275 HD
HETATM   31  H   UNL     1      30.804  52.884  37.389  1.00  0.00     0.275 HD
HETATM   32  H   UNL     1      30.897  51.230  37.130  1.00  0.00     0.275 HD
ENDBRANCH  20  29
ENDBRANCH   1  20
TORSDOF 7
ENDMDL
MODEL 8
REMARK VINA RESULT:      -7.5     12.334     13.973
REMARK  7 active torsions:
REMARK  status: ('A' for Active; 'I' for Inactive)
REMARK    1  A    between atoms: C_8  and  C_9 
REMARK    2  A    between atoms: C_9  and  N_10 
REMARK    3  A    between atoms: C_9  and  C_14 
REMARK       I    between atoms: C_14  and  N_15 
REMARK    4  A    between atoms: N_15  and  C_16 
REMARK    5  A    between atoms: C_16  and  C_17 
REMARK    6  A    between atoms: C_17  and  C_18 
REMARK    7  A    between atoms: C_17  and  C_24 
ROOT
HETATM    1  C   UNL     1      28.359  48.671  41.540  1.00  0.00     0.253 C 
HETATM    2  N   UNL     1      29.674  48.300  41.718  1.00  0.00    -0.358 N 
HETATM    3  O   UNL     1      27.847  49.637  42.101  1.00  0.00    -0.271 OA
HETATM    4  H   UNL     1      30.097  47.658  41.055  1.00  0.00     0.162 HD
ENDROOT
BRANCH   2   5
HETATM    5  C   UNL     1      30.630  49.073  42.525  1.00  0.00     0.141 C 
BRANCH   5   6
HETATM    6  C   UNL     1      31.889  49.617  41.730  1.00  0.00     0.026 C 
HETATM    7  C   UNL     1      32.661  48.346  41.251  1.00  0.00     0.027 C 
BRANCH   6   8
HETATM    8  C   UNL     1      31.341  50.450  40.540  1.00  0.00    -0.044 A 
HETATM    9  C   UNL     1      30.551  51.592  40.788  1.00  0.00     0.008 A 
HETATM   10  C   UNL     1      30.021  52.353  39.743  1.00  0.00     0.001 A 
HETATM   11  C   UNL     1      30.270  51.995  38.423  1.00  0.00     0.000 A 
HETATM   12  C   UNL     1      31.051  50.877  38.150  1.00  0.00     0.001 A 
HETATM   13  C   UNL     1      31.579  50.112  39.195  1.00  0.00     0.008 A 
ENDBRANCH   6   8
BRANCH   6  14
HETATM   14  C   UNL     1      32.862  50.486  42.575  1.00  0.00    -0.044 A 
HETATM   15  C   UNL     1      34.184  50.713  42.141  1.00  0.00     0.008 A 
HETATM   16  C   UNL     1      35.070  51.517  42.867  1.00  0.00     0.001 A 
HETATM   17  C   UNL     1      34.652  52.137  44.036  1.00  0.00     0.000 A 
HETATM   18  C   UNL     1      33.342  51.966  44.469  1.00  0.00     0.001 A 
HETATM   19  C   UNL     1      32.459  51.160  43.742  1.00  0.00     0.008 A 
ENDBRANCH   6  14
ENDBRANCH   5   6
ENDBRANCH   2   5
BRANCH   1  20
HETATM   20  C   UNL     1      27.444  47.676  40.790  1.00  0.00     0.311 C 
BRANCH  20  21
HETATM   21  C   UNL     1      26.190  48.277  40.240  1.00  0.00     0.031 A 
HETATM   22  C   UNL     1      25.986  49.366  39.398  1.00  0.00     0.035 A 
HETATM   23  C   UNL     1      26.883  50.343  38.735  1.00  0.00     0.070 C 
HETATM   24  N   UNL     1      24.627  49.451  39.216  1.00  0.00    -0.282 N 
HETATM   25  H   UNL     1      24.099  50.123  38.663  1.00  0.00     0.189 HD
HETATM   26  N   UNL     1      23.950  48.509  39.871  1.00  0.00    -0.179 NA
HETATM   27  C   UNL     1      24.874  47.784  40.496  1.00  0.00     0.061 A 
HETATM   28  C   UNL     1      24.456  46.616  41.319  1.00  0.00     0.073 C 
ENDBRANCH  20  21
BRANCH  20  29
HETATM   29  N   UNL     1      28.255  46.956  39.762  1.00  0.00    -0.062 N 
HETATM   30  H   UNL     1      28.170  45.942  39.876  1.00  0.00     0.275 HD
HETATM   31  H   UNL     1      27.885  47.182  38.828  1.00  0.00     0.275 HD
HETATM   32  H   UNL     1      29.242  47.228  39.811  1.00  0.00     0.275 HD
ENDBRANCH  20  29
ENDBRANCH   1  20
TORSDOF 7
ENDMDL
MODEL 9
REMARK VINA RESULT:      -7.5      2.745      7.339
REMARK  7 active torsions:
REMARK  status: ('A' for Active; 'I' for Inactive)
REMARK    1  A    between atoms: C_8  and  C_9 
REMARK    2  A    between atoms: C_9  and  N_10 
REMARK    3  A    between atoms: C_9  and  C_14 
REMARK       I    between atoms: C_14  and  N_15 
REMARK    4  A    between atoms: N_15  and  C_16 
REMARK    5  A    between atoms: C_16  and  C_17 
REMARK    6  A    between atoms: C_17  and  C_18 
REMARK    7  A    between atoms: C_17  and  C_24 
ROOT
HETATM    1  C   UNL     1      27.517  43.259  52.617  1.00  0.00     0.253 C 
HETATM    2  N   UNL     1      26.419  42.596  52.114  1.00  0.00    -0.358 N 
HETATM    3  O   UNL     1      28.423  43.698  51.913  1.00  0.00    -0.271 OA
HETATM    4  H   UNL     1      25.603  42.477  52.707  1.00  0.00     0.162 HD
ENDROOT
BRANCH   2   5
HETATM    5  C   UNL     1      26.167  42.423  50.676  1.00  0.00     0.141 C 
BRANCH   5   6
HETATM    6  C   UNL     1      24.964  43.280  50.100  1.00  0.00     0.026 C 
HETATM    7  C   UNL     1      23.750  42.972  51.033  1.00  0.00     0.027 C 
BRANCH   6   8
HETATM    8  C   UNL     1      25.397  44.768  50.177  1.00  0.00    -0.044 A 
HETATM    9  C   UNL     1      24.608  45.691  50.894  1.00  0.00     0.008 A 
HETATM   10  C   UNL     1      24.954  47.044  50.967  1.00  0.00     0.001 A 
HETATM   11  C   UNL     1      26.098  47.507  50.328  1.00  0.00     0.000 A 
HETATM   12  C   UNL     1      26.898  46.616  49.620  1.00  0.00     0.001 A 
HETATM   13  C   UNL     1      26.552  45.263  49.544  1.00  0.00     0.008 A 
ENDBRANCH   6   8
BRANCH   6  14
HETATM   14  C   UNL     1      24.558  42.925  48.642  1.00  0.00    -0.044 A 
HETATM   15  C   UNL     1      25.006  41.730  48.043  1.00  0.00     0.008 A 
HETATM   16  C   UNL     1      24.629  41.371  46.743  1.00  0.00     0.001 A 
HETATM   17  C   UNL     1      23.774  42.187  46.015  1.00  0.00     0.000 A 
HETATM   18  C   UNL     1      23.283  43.352  46.593  1.00  0.00     0.001 A 
HETATM   19  C   UNL     1      23.664  43.708  47.891  1.00  0.00     0.008 A 
ENDBRANCH   6  14
ENDBRANCH   5   6
ENDBRANCH   2   5
BRANCH   1  20
HETATM   20  C   UNL     1      27.716  43.226  54.150  1.00  0.00     0.311 C 
BRANCH  20  21
HETATM   21  C   UNL     1      28.304  44.473  54.728  1.00  0.00     0.031 A 
HETATM   22  C   UNL     1      27.798  45.764  54.833  1.00  0.00     0.035 A 
HETATM   23  C   UNL     1      26.528  46.413  54.426  1.00  0.00     0.070 C 
HETATM   24  N   UNL     1      28.770  46.499  55.466  1.00  0.00    -0.282 N 
HETATM   25  H   UNL     1      28.761  47.486  55.716  1.00  0.00     0.189 HD
HETATM   26  N   UNL     1      29.852  45.786  55.772  1.00  0.00    -0.179 NA
HETATM   27  C   UNL     1      29.594  44.555  55.338  1.00  0.00     0.061 A 
HETATM   28  C   UNL     1      30.603  43.480  55.541  1.00  0.00     0.073 C 
ENDBRANCH  20  21
BRANCH  20  29
HETATM   29  N   UNL     1      26.430  42.824  54.795  1.00  0.00    -0.062 N 
HETATM   30  H   UNL     1      25.714  43.543  54.658  1.00  0.00     0.275 HD
HETATM   31  H   UNL     1      26.083  41.968  54.340  1.00  0.00     0.275 HD
HETATM   32  H   UNL     1      26.556  42.648  55.797  1.00  0.00     0.275 HD
ENDBRANCH  20  29
ENDBRANCH   1  20
TORSDOF 7
ENDMDL
MODEL 10
REMARK VINA RESULT:      -7.4     10.836     13.829
REMARK  7 active torsions:
REMARK  status: ('A' for Active; 'I' for Inactive)
REMARK    1  A    between atoms: C_8  and  C_9 
REMARK    2  A    between atoms: C_9  and  N_10 
REMARK    3  A    between atoms: C_9  and  C_14 
REMARK       I    between atoms: C_14  and  N_15 
REMARK    4  A    between atoms: N_15  and  C_16 
REMARK    5  A    between atoms: C_16  and  C_17 
REMARK    6  A    between atoms: C_17  and  C_18 
REMARK    7  A    between atoms: C_17  and  C_24 
ROOT
HETATM    1  C   UNL     1      16.973  48.215  47.126  1.00  0.00     0.253 C 
HETATM    2  N   UNL     1      16.365  49.019  48.064  1.00  0.00    -0.358 N 
HETATM    3  O   UNL     1      16.746  48.291  45.920  1.00  0.00    -0.271 OA
HETATM    4  H   UNL     1      16.765  49.076  48.995  1.00  0.00     0.162 HD
ENDROOT
BRANCH   2   5
HETATM    5  C   UNL     1      15.449  50.116  47.717  1.00  0.00     0.141 C 
BRANCH   5   6
HETATM    6  C   UNL     1      16.121  51.550  47.644  1.00  0.00     0.026 C 
HETATM    7  C   UNL     1      16.082  51.951  46.135  1.00  0.00     0.027 C 
BRANCH   6   8
HETATM    8  C   UNL     1      15.256  52.494  48.522  1.00  0.00    -0.044 A 
HETATM    9  C   UNL     1      14.740  53.685  47.971  1.00  0.00     0.008 A 
HETATM   10  C   UNL     1      13.976  54.571  48.737  1.00  0.00     0.001 A 
HETATM   11  C   UNL     1      13.707  54.288  50.070  1.00  0.00     0.000 A 
HETATM   12  C   UNL     1      14.199  53.117  50.637  1.00  0.00     0.001 A 
HETATM   13  C   UNL     1      14.965  52.231  49.873  1.00  0.00     0.008 A 
ENDBRANCH   6   8
BRANCH   6  14
HETATM   14  C   UNL     1      17.599  51.596  48.122  1.00  0.00    -0.044 A 
HETATM   15  C   UNL     1      17.910  51.883  49.467  1.00  0.00     0.008 A 
HETATM   16  C   UNL     1      19.231  51.899  49.930  1.00  0.00     0.001 A 
HETATM   17  C   UNL     1      20.277  51.605  49.065  1.00  0.00     0.000 A 
HETATM   18  C   UNL     1      20.000  51.279  47.743  1.00  0.00     0.001 A 
HETATM   19  C   UNL     1      18.678  51.265  47.283  1.00  0.00     0.008 A 
ENDBRANCH   6  14
ENDBRANCH   5   6
ENDBRANCH   2   5
BRANCH   1  20
HETATM   20  C   UNL     1      17.789  47.012  47.653  1.00  0.00     0.311 C 
BRANCH  20  21
HETATM   21  C   UNL     1      19.112  47.371  48.250  1.00  0.00     0.031 A 
HETATM   22  C   UNL     1      19.443  47.936  49.477  1.00  0.00     0.035 A 
HETATM   23  C   UNL     1      18.659  48.406  50.645  1.00  0.00     0.070 C 
HETATM   24  N   UNL     1      20.814  48.027  49.492  1.00  0.00    -0.282 N 
HETATM   25  H   UNL     1      21.421  48.391  50.223  1.00  0.00     0.189 HD
HETATM   26  N   UNL     1      21.382  47.568  48.378  1.00  0.00    -0.179 NA
HETATM   27  C   UNL     1      20.373  47.162  47.611  1.00  0.00     0.061 A 
HETATM   28  C   UNL     1      20.660  46.565  46.278  1.00  0.00     0.073 C 
ENDBRANCH  20  21
BRANCH  20  29
HETATM   29  N   UNL     1      16.925  46.209  48.570  1.00  0.00    -0.062 N 
HETATM   30  H   UNL     1      16.532  45.398  48.083  1.00  0.00     0.275 HD
HETATM   31  H   UNL     1      17.505  45.842  49.338  1.00  0.00     0.275 HD
HETATM   32  H   UNL     1      16.167  46.778  48.960  1.00  0.00     0.275 HD
ENDBRANCH  20  29
ENDBRANCH   1  20
TORSDOF 7
ENDMDL
