MODEL 1
REMARK VINA RESULT:      -7.6      0.000      0.000
REMARK  6 active torsions:
REMARK  status: ('A' for Active; 'I' for Inactive)
REMARK    1  A    between atoms: N_2  and  C_5 
REMARK    2  A    between atoms: C_5  and  C_6 
REMARK    3  A    between atoms: C_6  and  C_7 
REMARK    4  A    between atoms: C_7  and  C_8 
REMARK    5  A    between atoms: C_12  and  N_13 
REMARK       I    between atoms: N_13  and  C_14 
REMARK    6  A    between atoms: C_14  and  C_15 
ROOT
HETATM    1  C   UNL     1      24.589  44.072  50.941  1.00  0.00     0.079 A 
HETATM    2  N   UNL     1      24.913  42.771  51.057  1.00  0.00    -0.176 NA
HETATM    3  N   UNL     1      25.781  42.762  52.103  1.00  0.00    -0.261 N 
HETATM    4  H   UNL     1      26.171  41.883  52.441  1.00  0.00     0.191 HD
HETATM    5  C   UNL     1      26.064  44.011  52.600  1.00  0.00     0.147 A 
HETATM    6  C   UNL     1      25.289  44.882  51.869  1.00  0.00     0.116 A 
HETATM    7  C   UNL     1      25.219  46.297  52.018  1.00  0.00     0.105 C 
HETATM    8  N   UNL     1      25.166  47.450  52.117  1.00  0.00    -0.191 NA
ENDROOT
BRANCH   1   9
HETATM    9  C   UNL     1      23.589  44.479  49.908  1.00  0.00     0.064 C 
BRANCH   9  10
HETATM   10  C   UNL     1      23.998  45.707  49.088  1.00  0.00     0.033 C 
BRANCH  10  11
HETATM   11  C   UNL     1      22.922  46.760  48.813  1.00  0.00     0.232 C 
BRANCH  11  12
HETATM   12  N   UNL     1      23.115  47.982  49.641  1.00  0.00    -0.079 N 
HETATM   13  C   UNL     1      23.585  49.173  48.892  1.00  0.00     0.266 C 
HETATM   14  H   UNL     1      23.739  47.803  50.436  1.00  0.00     0.276 HD
HETATM   15  H   UNL     1      22.181  48.211  50.050  1.00  0.00     0.276 HD
ENDBRANCH  11  12
ENDBRANCH  10  11
ENDBRANCH   9  10
ENDBRANCH   1   9
BRANCH   5  16
HETATM   16  N   UNL     1      26.959  44.244  53.633  1.00  0.00    -0.306 N 
HETATM   17  C   UNL     1      28.325  44.070  53.478  1.00  0.00     0.259 C 
HETATM   18  O   UNL     1      28.815  43.682  52.416  1.00  0.00    -0.267 OA
HETATM   19  H   UNL     1      26.598  44.559  54.531  1.00  0.00     0.170 HD
BRANCH  17  20
HETATM   20  C   UNL     1      29.170  44.367  54.638  1.00  0.00     0.063 A 
HETATM   21  C   UNL     1      29.183  45.500  55.431  1.00  0.00     0.091 A 
HETATM   22 CL   UNL     1      28.216  46.925  55.309  1.00  0.00    -0.075 Cl
HETATM   23  S   UNL     1      30.329  45.462  56.687  1.00  0.00    -0.065 SA
HETATM   24  C   UNL     1      30.854  43.932  56.209  1.00  0.00     0.077 A 
HETATM   25 CL   UNL     1      32.115  43.149  57.068  1.00  0.00    -0.076 Cl
HETATM   26  C   UNL     1      30.180  43.447  55.119  1.00  0.00     0.050 A 
ENDBRANCH  17  20
ENDBRANCH   5  16
TORSDOF 6
ENDMDL
MODEL 2
REMARK VINA RESULT:      -7.5      2.838      4.227
REMARK  6 active torsions:
REMARK  status: ('A' for Active; 'I' for Inactive)
REMARK    1  A    between atoms: N_2  and  C_5 
REMARK    2  A    between atoms: C_5  and  C_6 
REMARK    3  A    between atoms: C_6  and  C_7 
REMARK    4  A    between atoms: C_7  and  C_8 
REMARK    5  A    between atoms: C_12  and  N_13 
REMARK       I    between atoms: N_13  and  C_14 
REMARK    6  A    between atoms: C_14  and  C_15 
ROOT
HETATM    1  C   UNL     1      24.412  48.823  48.975  1.00  0.00     0.079 A 
HETATM    2  N   UNL     1      23.352  48.132  49.432  1.00  0.00    -0.176 NA
HETATM    3  N   UNL     1      23.908  47.257  50.309  1.00  0.00    -0.261 N 
HETATM    4  H   UNL     1      23.321  46.615  50.841  1.00  0.00     0.191 HD
HETATM    5  C   UNL     1      25.279  47.326  50.368  1.00  0.00     0.147 A 
HETATM    6  C   UNL     1      25.632  48.350  49.517  1.00  0.00     0.116 A 
HETATM    7  C   UNL     1      26.948  48.820  49.244  1.00  0.00     0.105 C 
HETATM    8  N   UNL     1      28.016  49.199  48.999  1.00  0.00    -0.191 NA
ENDROOT
BRANCH   1   9
HETATM    9  C   UNL     1      24.186  49.939  48.008  1.00  0.00     0.064 C 
BRANCH   9  10
HETATM   10  C   UNL     1      22.709  50.247  47.740  1.00  0.00     0.033 C 
BRANCH  10  11
HETATM   11  C   UNL     1      21.998  51.189  48.715  1.00  0.00     0.232 C 
BRANCH  11  12
HETATM   12  N   UNL     1      21.452  50.461  49.893  1.00  0.00    -0.079 N 
HETATM   13  C   UNL     1      20.027  50.742  50.192  1.00  0.00     0.266 C 
HETATM   14  H   UNL     1      22.021  50.622  50.732  1.00  0.00     0.276 HD
HETATM   15  H   UNL     1      21.538  49.442  49.675  1.00  0.00     0.276 HD
ENDBRANCH  11  12
ENDBRANCH  10  11
ENDBRANCH   9  10
ENDBRANCH   1   9
BRANCH   5  16
HETATM   16  N   UNL     1      26.059  46.495  51.158  1.00  0.00    -0.306 N 
HETATM   17  C   UNL     1      26.067  46.588  52.540  1.00  0.00     0.259 C 
HETATM   18  O   UNL     1      25.393  47.428  53.140  1.00  0.00    -0.267 OA
HETATM   19  H   UNL     1      26.637  45.791  50.705  1.00  0.00     0.170 HD
BRANCH  17  20
HETATM   20  C   UNL     1      26.919  45.642  53.267  1.00  0.00     0.063 A 
HETATM   21  C   UNL     1      27.790  45.891  54.312  1.00  0.00     0.091 A 
HETATM   22 CL   UNL     1      28.158  47.387  55.091  1.00  0.00    -0.075 Cl
HETATM   23  S   UNL     1      28.609  44.513  54.883  1.00  0.00    -0.065 SA
HETATM   24  C   UNL     1      27.833  43.538  53.746  1.00  0.00     0.077 A 
HETATM   25 CL   UNL     1      28.170  41.858  53.683  1.00  0.00    -0.076 Cl
HETATM   26  C   UNL     1      26.965  44.231  52.944  1.00  0.00     0.050 A 
ENDBRANCH  17  20
ENDBRANCH   5  16
TORSDOF 6
ENDMDL
MODEL 3
REMARK VINA RESULT:      -7.4      4.056      7.608
REMARK  6 active torsions:
REMARK  status: ('A' for Active; 'I' for Inactive)
REMARK    1  A    between atoms: N_2  and  C_5 
REMARK    2  A    between atoms: C_5  and  C_6 
REMARK    3  A    between atoms: C_6  and  C_7 
REMARK    4  A    between atoms: C_7  and  C_8 
REMARK    5  A    between atoms: C_12  and  N_13 
REMARK       I    between atoms: N_13  and  C_14 
REMARK    6  A    between atoms: C_14  and  C_15 
ROOT
HETATM    1  C   UNL     1      28.302  43.368  53.515  1.00  0.00     0.079 A 
HETATM    2  N   UNL     1      28.038  42.647  52.410  1.00  0.00    -0.176 NA
HETATM    3  N   UNL     1      27.340  43.516  51.634  1.00  0.00    -0.261 N 
HETATM    4  H   UNL     1      27.032  43.242  50.701  1.00  0.00     0.191 HD
HETATM    5  C   UNL     1      27.098  44.727  52.236  1.00  0.00     0.147 A 
HETATM    6  C   UNL     1      27.727  44.661  53.459  1.00  0.00     0.116 A 
HETATM    7  C   UNL     1      27.776  45.681  54.452  1.00  0.00     0.105 C 
HETATM    8  N   UNL     1      27.808  46.496  55.275  1.00  0.00    -0.191 NA
ENDROOT
BRANCH   1   9
HETATM    9  C   UNL     1      29.121  42.752  54.602  1.00  0.00     0.064 C 
BRANCH   9  10
HETATM   10  C   UNL     1      30.535  43.330  54.727  1.00  0.00     0.033 C 
BRANCH  10  11
HETATM   11  C   UNL     1      30.998  43.763  56.120  1.00  0.00     0.232 C 
BRANCH  11  12
HETATM   12  N   UNL     1      30.412  45.072  56.518  1.00  0.00    -0.079 N 
HETATM   13  C   UNL     1      30.437  45.346  57.976  1.00  0.00     0.266 C 
HETATM   14  H   UNL     1      29.456  45.182  56.161  1.00  0.00     0.276 HD
HETATM   15  H   UNL     1      30.985  45.807  56.046  1.00  0.00     0.276 HD
ENDBRANCH  11  12
ENDBRANCH  10  11
ENDBRANCH   9  10
ENDBRANCH   1   9
BRANCH   5  16
HETATM   16  N   UNL     1      26.364  45.746  51.649  1.00  0.00    -0.306 N 
HETATM   17  C   UNL     1      26.516  46.090  50.316  1.00  0.00     0.259 C 
HETATM   18  O   UNL     1      27.327  45.518  49.585  1.00  0.00    -0.267 OA
HETATM   19  H   UNL     1      25.687  46.251  52.217  1.00  0.00     0.170 HD
BRANCH  17  20
HETATM   20  C   UNL     1      25.670  47.172  49.805  1.00  0.00     0.063 A 
HETATM   21  C   UNL     1      26.053  48.391  49.275  1.00  0.00     0.091 A 
HETATM   22 CL   UNL     1      27.641  49.030  49.049  1.00  0.00    -0.075 Cl
HETATM   23  S   UNL     1      24.757  49.384  48.798  1.00  0.00    -0.065 SA
HETATM   24  C   UNL     1      23.639  48.221  49.291  1.00  0.00     0.077 A 
HETATM   25 CL   UNL     1      21.959  48.519  49.121  1.00  0.00    -0.076 Cl
HETATM   26  C   UNL     1      24.224  47.096  49.809  1.00  0.00     0.050 A 
ENDBRANCH  17  20
ENDBRANCH   5  16
TORSDOF 6
ENDMDL
MODEL 4
REMARK VINA RESULT:      -7.3      1.378      2.590
REMARK  6 active torsions:
REMARK  status: ('A' for Active; 'I' for Inactive)
REMARK    1  A    between atoms: N_2  and  C_5 
REMARK    2  A    between atoms: C_5  and  C_6 
REMARK    3  A    between atoms: C_6  and  C_7 
REMARK    4  A    between atoms: C_7  and  C_8 
REMARK    5  A    between atoms: C_12  and  N_13 
REMARK       I    between atoms: N_13  and  C_14 
REMARK    6  A    between atoms: C_14  and  C_15 
ROOT
HETATM    1  C   UNL     1      24.816  44.085  50.764  1.00  0.00     0.079 A 
HETATM    2  N   UNL     1      25.162  42.788  50.870  1.00  0.00    -0.176 NA
HETATM    3  N   UNL     1      25.991  42.778  51.947  1.00  0.00    -0.261 N 
HETATM    4  H   UNL     1      26.386  41.901  52.285  1.00  0.00     0.191 HD
HETATM    5  C   UNL     1      26.231  44.023  52.475  1.00  0.00     0.147 A 
HETATM    6  C   UNL     1      25.466  44.892  51.730  1.00  0.00     0.116 A 
HETATM    7  C   UNL     1      25.362  46.302  51.900  1.00  0.00     0.105 C 
HETATM    8  N   UNL     1      25.283  47.453  52.016  1.00  0.00    -0.191 NA
ENDROOT
BRANCH   1   9
HETATM    9  C   UNL     1      23.846  44.490  49.702  1.00  0.00     0.064 C 
BRANCH   9  10
HETATM   10  C   UNL     1      22.700  43.495  49.488  1.00  0.00     0.033 C 
BRANCH  10  11
HETATM   11  C   UNL     1      22.785  42.575  48.268  1.00  0.00     0.232 C 
BRANCH  11  12
HETATM   12  N   UNL     1      23.726  41.443  48.491  1.00  0.00    -0.079 N 
HETATM   13  C   UNL     1      23.821  40.483  47.364  1.00  0.00     0.266 C 
HETATM   14  H   UNL     1      23.511  40.939  49.359  1.00  0.00     0.276 HD
HETATM   15  H   UNL     1      24.670  41.868  48.628  1.00  0.00     0.276 HD
ENDBRANCH  11  12
ENDBRANCH  10  11
ENDBRANCH   9  10
ENDBRANCH   1   9
BRANCH   5  16
HETATM   16  N   UNL     1      27.083  44.255  53.544  1.00  0.00    -0.306 N 
HETATM   17  C   UNL     1      28.453  44.073  53.446  1.00  0.00     0.259 C 
HETATM   18  O   UNL     1      28.986  43.677  52.408  1.00  0.00    -0.267 OA
HETATM   19  H   UNL     1      26.687  44.577  54.424  1.00  0.00     0.170 HD
BRANCH  17  20
HETATM   20  C   UNL     1      29.251  44.369  54.640  1.00  0.00     0.063 A 
HETATM   21  C   UNL     1      29.239  45.507  55.426  1.00  0.00     0.091 A 
HETATM   22 CL   UNL     1      28.290  46.940  55.255  1.00  0.00    -0.075 Cl
HETATM   23  S   UNL     1      30.331  45.468  56.730  1.00  0.00    -0.065 SA
HETATM   24  C   UNL     1      30.863  43.931  56.283  1.00  0.00     0.077 A 
HETATM   25 CL   UNL     1      32.079  43.143  57.200  1.00  0.00    -0.076 Cl
HETATM   26  C   UNL     1      30.232  43.445  55.169  1.00  0.00     0.050 A 
ENDBRANCH  17  20
ENDBRANCH   5  16
TORSDOF 6
ENDMDL
MODEL 5
REMARK VINA RESULT:      -7.2      2.039      2.412
REMARK  6 active torsions:
REMARK  status: ('A' for Active; 'I' for Inactive)
REMARK    1  A    between atoms: N_2  and  C_5 
REMARK    2  A    between atoms: C_5  and  C_6 
REMARK    3  A    between atoms: C_6  and  C_7 
REMARK    4  A    between atoms: C_7  and  C_8 
REMARK    5  A    between atoms: C_12  and  N_13 
REMARK       I    between atoms: N_13  and  C_14 
REMARK    6  A    between atoms: C_14  and  C_15 
ROOT
HETATM    1  C   UNL     1      26.027  42.085  49.944  1.00  0.00     0.079 A 
HETATM    2  N   UNL     1      26.058  40.972  50.699  1.00  0.00    -0.176 NA
HETATM    3  N   UNL     1      26.849  41.329  51.744  1.00  0.00    -0.261 N 
HETATM    4  H   UNL     1      27.023  40.675  52.507  1.00  0.00     0.191 HD
HETATM    5  C   UNL     1      27.369  42.596  51.639  1.00  0.00     0.147 A 
HETATM    6  C   UNL     1      26.837  43.116  50.480  1.00  0.00     0.116 A 
HETATM    7  C   UNL     1      27.066  44.415  49.942  1.00  0.00     0.105 C 
HETATM    8  N   UNL     1      27.258  45.462  49.483  1.00  0.00    -0.191 NA
ENDROOT
BRANCH   1   9
HETATM    9  C   UNL     1      25.192  42.097  48.706  1.00  0.00     0.064 C 
BRANCH   9  10
HETATM   10  C   UNL     1      23.820  42.756  48.881  1.00  0.00     0.033 C 
BRANCH  10  11
HETATM   11  C   UNL     1      23.399  43.140  50.302  1.00  0.00     0.232 C 
BRANCH  11  12
HETATM   12  N   UNL     1      23.461  44.611  50.521  1.00  0.00    -0.079 N 
HETATM   13  C   UNL     1      23.528  45.422  49.281  1.00  0.00     0.266 C 
HETATM   14  H   UNL     1      24.234  44.867  51.146  1.00  0.00     0.276 HD
HETATM   15  H   UNL     1      22.583  44.870  51.025  1.00  0.00     0.276 HD
ENDBRANCH  11  12
ENDBRANCH  10  11
ENDBRANCH   9  10
ENDBRANCH   1   9
BRANCH   5  16
HETATM   16  N   UNL     1      28.239  43.151  52.565  1.00  0.00    -0.306 N 
HETATM   17  C   UNL     1      27.845  43.447  53.860  1.00  0.00     0.259 C 
HETATM   18  O   UNL     1      26.694  43.248  54.252  1.00  0.00    -0.267 OA
HETATM   19  H   UNL     1      29.198  43.339  52.283  1.00  0.00     0.170 HD
BRANCH  17  20
HETATM   20  C   UNL     1      28.861  44.013  54.753  1.00  0.00     0.063 A 
HETATM   21  C   UNL     1      28.969  45.309  55.226  1.00  0.00     0.091 A 
HETATM   22 CL   UNL     1      27.953  46.670  54.917  1.00  0.00    -0.075 Cl
HETATM   23  S   UNL     1      30.307  45.572  56.243  1.00  0.00    -0.065 SA
HETATM   24  C   UNL     1      30.792  43.965  56.079  1.00  0.00     0.077 A 
HETATM   25 CL   UNL     1      32.200  43.406  56.883  1.00  0.00    -0.076 Cl
HETATM   26  C   UNL     1      29.963  43.231  55.272  1.00  0.00     0.050 A 
ENDBRANCH  17  20
ENDBRANCH   5  16
TORSDOF 6
ENDMDL
MODEL 6
REMARK VINA RESULT:      -7.1      4.426      8.071
REMARK  6 active torsions:
REMARK  status: ('A' for Active; 'I' for Inactive)
REMARK    1  A    between atoms: N_2  and  C_5 
REMARK    2  A    between atoms: C_5  and  C_6 
REMARK    3  A    between atoms: C_6  and  C_7 
REMARK    4  A    between atoms: C_7  and  C_8 
REMARK    5  A    between atoms: C_12  and  N_13 
REMARK       I    between atoms: N_13  and  C_14 
REMARK    6  A    between atoms: C_14  and  C_15 
ROOT
HETATM    1  C   UNL     1      26.903  44.441  53.242  1.00  0.00     0.079 A 
HETATM    2  N   UNL     1      26.836  43.719  52.108  1.00  0.00    -0.176 NA
HETATM    3  N   UNL     1      26.195  44.554  51.249  1.00  0.00    -0.261 N 
HETATM    4  H   UNL     1      26.034  44.274  50.282  1.00  0.00     0.191 HD
HETATM    5  C   UNL     1      25.798  45.739  51.819  1.00  0.00     0.147 A 
HETATM    6  C   UNL     1      26.260  45.696  53.115  1.00  0.00     0.116 A 
HETATM    7  C   UNL     1      26.111  46.704  54.110  1.00  0.00     0.105 C 
HETATM    8  N   UNL     1      25.980  47.509  54.934  1.00  0.00    -0.191 NA
ENDROOT
BRANCH   1   9
HETATM    9  C   UNL     1      27.606  43.863  54.427  1.00  0.00     0.064 C 
BRANCH   9  10
HETATM   10  C   UNL     1      29.003  44.443  54.673  1.00  0.00     0.033 C 
BRANCH  10  11
HETATM   11  C   UNL     1      30.108  43.469  55.087  1.00  0.00     0.232 C 
BRANCH  11  12
HETATM   12  N   UNL     1      31.128  44.121  55.953  1.00  0.00    -0.079 N 
HETATM   13  C   UNL     1      31.594  43.295  57.094  1.00  0.00     0.266 C 
HETATM   14  H   UNL     1      30.805  45.034  56.295  1.00  0.00     0.276 HD
HETATM   15  H   UNL     1      31.952  44.315  55.342  1.00  0.00     0.276 HD
ENDBRANCH  11  12
ENDBRANCH  10  11
ENDBRANCH   9  10
ENDBRANCH   1   9
BRANCH   5  16
HETATM   16  N   UNL     1      25.087  46.719  51.142  1.00  0.00    -0.306 N 
HETATM   17  C   UNL     1      25.526  47.250  49.941  1.00  0.00     0.259 C 
HETATM   18  O   UNL     1      26.583  46.892  49.418  1.00  0.00    -0.267 OA
HETATM   19  H   UNL     1      24.211  47.050  51.541  1.00  0.00     0.170 HD
BRANCH  17  20
HETATM   20  C   UNL     1      24.677  48.266  49.312  1.00  0.00     0.063 A 
HETATM   21  C   UNL     1      25.058  49.410  48.633  1.00  0.00     0.091 A 
HETATM   22 CL   UNL     1      26.645  50.010  48.314  1.00  0.00    -0.075 Cl
HETATM   23  S   UNL     1      23.759  50.344  48.054  1.00  0.00    -0.065 SA
HETATM   24  C   UNL     1      22.644  49.255  48.697  1.00  0.00     0.077 A 
HETATM   25 CL   UNL     1      20.963  49.538  48.510  1.00  0.00    -0.076 Cl
HETATM   26  C   UNL     1      23.231  48.198  49.341  1.00  0.00     0.050 A 
ENDBRANCH  17  20
ENDBRANCH   5  16
TORSDOF 6
ENDMDL
MODEL 7
REMARK VINA RESULT:      -7.1      3.152      4.468
REMARK  6 active torsions:
REMARK  status: ('A' for Active; 'I' for Inactive)
REMARK    1  A    between atoms: N_2  and  C_5 
REMARK    2  A    between atoms: C_5  and  C_6 
REMARK    3  A    between atoms: C_6  and  C_7 
REMARK    4  A    between atoms: C_7  and  C_8 
REMARK    5  A    between atoms: C_12  and  N_13 
REMARK       I    between atoms: N_13  and  C_14 
REMARK    6  A    between atoms: C_14  and  C_15 
ROOT
HETATM    1  C   UNL     1      26.186  41.445  50.203  1.00  0.00     0.079 A 
HETATM    2  N   UNL     1      26.308  40.353  50.980  1.00  0.00    -0.176 NA
HETATM    3  N   UNL     1      27.096  40.785  51.999  1.00  0.00    -0.261 N 
HETATM    4  H   UNL     1      27.330  40.162  52.771  1.00  0.00     0.191 HD
HETATM    5  C   UNL     1      27.527  42.082  51.855  1.00  0.00     0.147 A 
HETATM    6  C   UNL     1      26.937  42.539  50.698  1.00  0.00     0.116 A 
HETATM    7  C   UNL     1      27.066  43.837  50.127  1.00  0.00     0.105 C 
HETATM    8  N   UNL     1      27.178  44.884  49.642  1.00  0.00    -0.191 NA
ENDROOT
BRANCH   1   9
HETATM    9  C   UNL     1      25.325  41.373  48.985  1.00  0.00     0.064 C 
BRANCH   9  10
HETATM   10  C   UNL     1      26.083  41.017  47.701  1.00  0.00     0.033 C 
BRANCH  10  11
HETATM   11  C   UNL     1      26.786  39.659  47.651  1.00  0.00     0.232 C 
BRANCH  11  12
HETATM   12  N   UNL     1      25.939  38.574  48.218  1.00  0.00    -0.079 N 
HETATM   13  C   UNL     1      26.693  37.447  48.820  1.00  0.00     0.266 C 
HETATM   14  H   UNL     1      25.273  38.214  47.524  1.00  0.00     0.276 HD
HETATM   15  H   UNL     1      25.364  39.013  48.972  1.00  0.00     0.276 HD
ENDBRANCH  11  12
ENDBRANCH  10  11
ENDBRANCH   9  10
ENDBRANCH   1   9
BRANCH   5  16
HETATM   16  N   UNL     1      28.379  42.714  52.748  1.00  0.00    -0.306 N 
HETATM   17  C   UNL     1      27.930  43.231  53.953  1.00  0.00     0.259 C 
HETATM   18  O   UNL     1      26.745  43.171  54.286  1.00  0.00    -0.267 OA
HETATM   19  H   UNL     1      29.365  42.792  52.511  1.00  0.00     0.170 HD
BRANCH  17  20
HETATM   20  C   UNL     1      28.929  43.860  54.822  1.00  0.00     0.063 A 
HETATM   21  C   UNL     1      29.013  45.180  55.226  1.00  0.00     0.091 A 
HETATM   22 CL   UNL     1      27.980  46.507  54.836  1.00  0.00    -0.075 Cl
HETATM   23  S   UNL     1      30.338  45.518  56.238  1.00  0.00    -0.065 SA
HETATM   24  C   UNL     1      30.848  43.912  56.165  1.00  0.00     0.077 A 
HETATM   25 CL   UNL     1      32.257  43.419  57.008  1.00  0.00    -0.076 Cl
HETATM   26  C   UNL     1      30.038  43.123  55.391  1.00  0.00     0.050 A 
ENDBRANCH  17  20
ENDBRANCH   5  16
TORSDOF 6
ENDMDL
MODEL 8
REMARK VINA RESULT:      -6.8      2.291      2.858
REMARK  6 active torsions:
REMARK  status: ('A' for Active; 'I' for Inactive)
REMARK    1  A    between atoms: N_2  and  C_5 
REMARK    2  A    between atoms: C_5  and  C_6 
REMARK    3  A    between atoms: C_6  and  C_7 
REMARK    4  A    between atoms: C_7  and  C_8 
REMARK    5  A    between atoms: C_12  and  N_13 
REMARK       I    between atoms: N_13  and  C_14 
REMARK    6  A    between atoms: C_14  and  C_15 
ROOT
HETATM    1  C   UNL     1      23.484  45.988  49.299  1.00  0.00     0.079 A 
HETATM    2  N   UNL     1      23.189  44.759  49.762  1.00  0.00    -0.176 NA
HETATM    3  N   UNL     1      24.109  44.570  50.743  1.00  0.00    -0.261 N 
HETATM    4  H   UNL     1      24.101  43.716  51.301  1.00  0.00     0.191 HD
HETATM    5  C   UNL     1      25.009  45.601  50.866  1.00  0.00     0.147 A 
HETATM    6  C   UNL     1      24.614  46.545  49.945  1.00  0.00     0.116 A 
HETATM    7  C   UNL     1      25.226  47.807  49.698  1.00  0.00     0.105 C 
HETATM    8  N   UNL     1      25.725  48.829  49.475  1.00  0.00    -0.191 NA
ENDROOT
BRANCH   1   9
HETATM    9  C   UNL     1      22.632  46.579  48.223  1.00  0.00     0.064 C 
BRANCH   9  10
HETATM   10  C   UNL     1      21.922  47.876  48.627  1.00  0.00     0.033 C 
BRANCH  10  11
HETATM   11  C   UNL     1      20.414  47.804  48.880  1.00  0.00     0.232 C 
BRANCH  11  12
HETATM   12  N   UNL     1      20.003  48.650  50.033  1.00  0.00    -0.079 N 
HETATM   13  C   UNL     1      18.589  48.488  50.449  1.00  0.00     0.266 C 
HETATM   14  H   UNL     1      20.203  49.642  49.863  1.00  0.00     0.276 HD
HETATM   15  H   UNL     1      20.607  48.366  50.837  1.00  0.00     0.276 HD
ENDBRANCH  11  12
ENDBRANCH  10  11
ENDBRANCH   9  10
ENDBRANCH   1   9
BRANCH   5  16
HETATM   16  N   UNL     1      26.062  45.600  51.769  1.00  0.00    -0.306 N 
HETATM   17  C   UNL     1      25.943  45.058  53.038  1.00  0.00     0.259 C 
HETATM   18  O   UNL     1      24.888  44.563  53.439  1.00  0.00    -0.267 OA
HETATM   19  H   UNL     1      26.950  46.006  51.483  1.00  0.00     0.170 HD
BRANCH  17  20
HETATM   20  C   UNL     1      27.132  45.100  53.895  1.00  0.00     0.063 A 
HETATM   21  C   UNL     1      27.544  46.104  54.752  1.00  0.00     0.091 A 
HETATM   22 CL   UNL     1      26.798  47.625  55.086  1.00  0.00    -0.075 Cl
HETATM   23  S   UNL     1      28.998  45.772  55.571  1.00  0.00    -0.065 SA
HETATM   24  C   UNL     1      29.130  44.278  54.800  1.00  0.00     0.077 A 
HETATM   25 CL   UNL     1      30.467  43.256  55.134  1.00  0.00    -0.076 Cl
HETATM   26  C   UNL     1      28.098  44.022  53.937  1.00  0.00     0.050 A 
ENDBRANCH  17  20
ENDBRANCH   5  16
TORSDOF 6
ENDMDL
MODEL 9
REMARK VINA RESULT:      -6.8      5.633      9.138
REMARK  6 active torsions:
REMARK  status: ('A' for Active; 'I' for Inactive)
REMARK    1  A    between atoms: N_2  and  C_5 
REMARK    2  A    between atoms: C_5  and  C_6 
REMARK    3  A    between atoms: C_6  and  C_7 
REMARK    4  A    between atoms: C_7  and  C_8 
REMARK    5  A    between atoms: C_12  and  N_13 
REMARK       I    between atoms: N_13  and  C_14 
REMARK    6  A    between atoms: C_14  and  C_15 
ROOT
HETATM    1  C   UNL     1      26.136  45.986  49.884  1.00  0.00     0.079 A 
HETATM    2  N   UNL     1      26.636  47.193  49.559  1.00  0.00    -0.176 NA
HETATM    3  N   UNL     1      25.531  47.982  49.515  1.00  0.00    -0.261 N 
HETATM    4  H   UNL     1      25.617  48.980  49.320  1.00  0.00     0.191 HD
HETATM    5  C   UNL     1      24.356  47.305  49.731  1.00  0.00     0.147 A 
HETATM    6  C   UNL     1      24.724  46.004  49.988  1.00  0.00     0.116 A 
HETATM    7  C   UNL     1      23.858  44.913  50.287  1.00  0.00     0.105 C 
HETATM    8  N   UNL     1      23.163  44.013  50.513  1.00  0.00    -0.191 NA
ENDROOT
BRANCH   1   9
HETATM    9  C   UNL     1      27.077  44.843  50.083  1.00  0.00     0.064 C 
BRANCH   9  10
HETATM   10  C   UNL     1      27.218  44.393  51.541  1.00  0.00     0.033 C 
BRANCH  10  11
HETATM   11  C   UNL     1      26.743  42.981  51.891  1.00  0.00     0.232 C 
BRANCH  11  12
HETATM   12  N   UNL     1      26.777  42.730  53.358  1.00  0.00    -0.079 N 
HETATM   13  C   UNL     1      27.972  43.269  54.052  1.00  0.00     0.266 C 
HETATM   14  H   UNL     1      26.672  41.732  53.572  1.00  0.00     0.276 HD
HETATM   15  H   UNL     1      25.936  43.204  53.757  1.00  0.00     0.276 HD
ENDBRANCH  11  12
ENDBRANCH  10  11
ENDBRANCH   9  10
ENDBRANCH   1   9
BRANCH   5  16
HETATM   16  N   UNL     1      23.104  47.900  49.684  1.00  0.00    -0.306 N 
HETATM   17  C   UNL     1      22.723  48.733  48.645  1.00  0.00     0.259 C 
HETATM   18  O   UNL     1      23.485  49.005  47.715  1.00  0.00    -0.267 OA
HETATM   19  H   UNL     1      22.444  47.710  50.435  1.00  0.00     0.170 HD
BRANCH  17  20
HETATM   20  C   UNL     1      21.367  49.288  48.698  1.00  0.00     0.063 A 
HETATM   21  C   UNL     1      20.164  48.616  48.822  1.00  0.00     0.091 A 
HETATM   22 CL   UNL     1      19.871  46.920  48.948  1.00  0.00    -0.075 Cl
HETATM   23  S   UNL     1      18.797  49.629  48.836  1.00  0.00    -0.065 SA
HETATM   24  C   UNL     1      19.767  50.999  48.670  1.00  0.00     0.077 A 
HETATM   25 CL   UNL     1      19.049  52.554  48.596  1.00  0.00    -0.076 Cl
HETATM   26  C   UNL     1      21.104  50.708  48.604  1.00  0.00     0.050 A 
ENDBRANCH  17  20
ENDBRANCH   5  16
TORSDOF 6
ENDMDL
MODEL 10
REMARK VINA RESULT:      -6.8      4.268      8.045
REMARK  6 active torsions:
REMARK  status: ('A' for Active; 'I' for Inactive)
REMARK    1  A    between atoms: N_2  and  C_5 
REMARK    2  A    between atoms: C_5  and  C_6 
REMARK    3  A    between atoms: C_6  and  C_7 
REMARK    4  A    between atoms: C_7  and  C_8 
REMARK    5  A    between atoms: C_12  and  N_13 
REMARK       I    between atoms: N_13  and  C_14 
REMARK    6  A    between atoms: C_14  and  C_15 
ROOT
HETATM    1  C   UNL     1      29.192  43.549  54.570  1.00  0.00     0.079 A 
HETATM    2  N   UNL     1      28.645  44.736  54.889  1.00  0.00    -0.176 NA
HETATM    3  N   UNL     1      27.507  44.761  54.147  1.00  0.00    -0.261 N 
HETATM    4  H   UNL     1      26.863  45.549  54.217  1.00  0.00     0.191 HD
HETATM    5  C   UNL     1      27.356  43.670  53.326  1.00  0.00     0.147 A 
HETATM    6  C   UNL     1      28.434  42.858  53.593  1.00  0.00     0.116 A 
HETATM    7  C   UNL     1      28.721  41.594  53.000  1.00  0.00     0.105 C 
HETATM    8  N   UNL     1      28.975  40.574  52.513  1.00  0.00    -0.191 NA
ENDROOT
BRANCH   1   9
HETATM    9  C   UNL     1      30.457  43.130  55.245  1.00  0.00     0.064 C 
BRANCH   9  10
HETATM   10  C   UNL     1      31.092  44.219  56.117  1.00  0.00     0.033 C 
BRANCH  10  11
HETATM   11  C   UNL     1      31.470  43.840  57.551  1.00  0.00     0.232 C 
BRANCH  11  12
HETATM   12  N   UNL     1      31.297  44.981  58.491  1.00  0.00    -0.079 N 
HETATM   13  C   UNL     1      30.202  45.917  58.137  1.00  0.00     0.266 C 
HETATM   14  H   UNL     1      32.172  45.502  58.617  1.00  0.00     0.276 HD
HETATM   15  H   UNL     1      31.071  44.563  59.422  1.00  0.00     0.276 HD
ENDBRANCH  11  12
ENDBRANCH  10  11
ENDBRANCH   9  10
ENDBRANCH   1   9
BRANCH   5  16
HETATM   16  N   UNL     1      26.296  43.509  52.447  1.00  0.00    -0.306 N 
HETATM   17  C   UNL     1      26.296  44.073  51.181  1.00  0.00     0.259 C 
HETATM   18  O   UNL     1      27.233  44.764  50.776  1.00  0.00    -0.267 OA
HETATM   19  H   UNL     1      25.497  42.952  52.741  1.00  0.00     0.170 HD
BRANCH  17  20
HETATM   20  C   UNL     1      25.126  43.816  50.336  1.00  0.00     0.063 A 
HETATM   21  C   UNL     1      24.198  44.718  49.848  1.00  0.00     0.091 A 
HETATM   22 CL   UNL     1      24.115  46.427  50.079  1.00  0.00    -0.075 Cl
HETATM   23  S   UNL     1      22.972  44.016  48.901  1.00  0.00    -0.065 SA
HETATM   24  C   UNL     1      23.635  42.481  49.118  1.00  0.00     0.077 A 
HETATM   25 CL   UNL     1      22.888  41.113  48.402  1.00  0.00    -0.076 Cl
HETATM   26  C   UNL     1      24.767  42.486  49.891  1.00  0.00     0.050 A 
ENDBRANCH  17  20
ENDBRANCH   5  16
TORSDOF 6
ENDMDL
