MODEL 1
REMARK VINA RESULT:     -11.5      0.000      0.000
REMARK  11 active torsions:
REMARK  status: ('A' for Active; 'I' for Inactive)
REMARK    1  A    between atoms: C_6  and  O_9 
REMARK    2  A    between atoms: O_9  and  C_10 
REMARK    3  A    between atoms: C_10  and  C_12 
REMARK    4  A    between atoms: C_12  and  C_13 
REMARK    5  A    between atoms: C_16  and  N_17 
REMARK       I    between atoms: N_17  and  C_18 
REMARK    6  A    between atoms: C_18  and  C_20 
REMARK    7  A    between atoms: C_24  and  C_26 
REMARK    8  A    between atoms: C_28  and  C_34 
REMARK    9  A    between atoms: C_31  and  C_32 
REMARK   10  A    between atoms: C_32  and  N_33 
REMARK       I    between atoms: C_34  and  N_36 
REMARK   11  A    between atoms: N_36  and  C_37 
ROOT
HETATM    1  C   UNL     1      25.000  49.201  48.854  1.00  0.00     0.033 A 
HETATM    2  C   UNL     1      26.297  49.610  48.534  1.00  0.00     0.017 A 
HETATM    3  C   UNL     1      27.381  48.860  48.978  1.00  0.00     0.002 A 
HETATM    4  C   UNL     1      27.167  47.690  49.716  1.00  0.00     0.012 A 
HETATM    5  C   UNL     1      25.871  47.268  50.071  1.00  0.00    -0.024 A 
HETATM    6  C   UNL     1      24.794  48.077  49.669  1.00  0.00     0.029 A 
ENDROOT
BRANCH   1   7
HETATM    7  C   UNL     1      23.811  49.869  48.258  1.00  0.00     0.256 C 
HETATM    8  N   UNL     1      22.659  49.715  49.010  1.00  0.00    -0.323 N 
HETATM    9  H   UNL     1      22.745  49.183  49.867  1.00  0.00     0.169 HD
HETATM   10  O   UNL     1      23.954  50.535  47.242  1.00  0.00    -0.267 OA
BRANCH   8  11
HETATM   11  C   UNL     1      21.406  50.331  48.810  1.00  0.00     0.035 A 
HETATM   12  C   UNL     1      20.734  50.361  47.590  1.00  0.00     0.030 A 
HETATM   13  C   UNL     1      19.510  51.031  47.470  1.00  0.00     0.010 A 
HETATM   14  C   UNL     1      18.940  51.686  48.569  1.00  0.00    -0.049 A 
HETATM   15  C   UNL     1      19.606  51.637  49.798  1.00  0.00     0.010 A 
HETATM   16  C   UNL     1      20.827  50.967  49.915  1.00  0.00     0.030 A 
BRANCH  14  17
HETATM   17  C   UNL     1      17.624  52.409  48.435  1.00  0.00     0.149 C 
BRANCH  17  18
HETATM   18  C   UNL     1      16.428  51.483  48.438  1.00  0.00     0.263 C 
HETATM   19  O   UNL     1      16.439  50.285  48.686  1.00  0.00    -0.265 OA
BRANCH  18  20
HETATM   20  O   UNL     1      15.283  52.189  48.175  1.00  0.00    -0.316 OA
BRANCH  20  21
HETATM   21  C   UNL     1      15.093  53.366  48.980  1.00  0.00     0.135 C 
HETATM   22  C   UNL     1      14.204  54.374  48.253  1.00  0.00     0.060 C 
HETATM   23  C   UNL     1      13.917  55.575  49.135  1.00  0.00     0.237 C 
HETATM   24  N   UNL     1      13.307  55.145  50.450  1.00  0.00    -0.075 N 
HETATM   25  C   UNL     1      11.852  54.769  50.348  1.00  0.00     0.269 C 
HETATM   26  C   UNL     1      14.149  54.126  51.178  1.00  0.00     0.237 C 
HETATM   27  H   UNL     1      13.315  55.986  51.044  1.00  0.00     0.279 HD
HETATM   28  C   UNL     1      14.443  52.929  50.292  1.00  0.00     0.060 C 
ENDBRANCH  20  21
ENDBRANCH  18  20
ENDBRANCH  17  18
ENDBRANCH  14  17
ENDBRANCH   8  11
ENDBRANCH   1   7
BRANCH   5  29
HETATM   29  C   UNL     1      25.666  45.990  50.802  1.00  0.00    -0.017 A 
HETATM   30  C   UNL     1      26.309  45.808  52.052  1.00  0.00     0.030 A 
HETATM   31  C   UNL     1      26.204  44.605  52.766  1.00  0.00     0.033 A 
HETATM   32  C   UNL     1      25.408  43.578  52.266  1.00  0.00     0.017 A 
HETATM   33  C   UNL     1      24.751  43.737  51.051  1.00  0.00     0.011 A 
HETATM   34  C   UNL     1      24.905  44.907  50.277  1.00  0.00    -0.020 A 
BRANCH  31  35
HETATM   35  C   UNL     1      26.997  44.334  53.996  1.00  0.00     0.256 C 
HETATM   36  O   UNL     1      26.482  43.651  54.873  1.00  0.00    -0.267 OA
HETATM   37  N   UNL     1      28.257  44.899  54.042  1.00  0.00    -0.320 N 
HETATM   38  H   UNL     1      28.503  45.579  53.331  1.00  0.00     0.169 HD
BRANCH  37  39
HETATM   39  C   UNL     1      29.222  44.717  55.063  1.00  0.00     0.076 A 
HETATM   40  C   UNL     1      30.111  43.645  55.119  1.00  0.00     0.052 A 
HETATM   41  C   UNL     1      31.019  43.587  56.169  1.00  0.00     0.118 A 
HETATM   42  N   UNL     1      31.100  44.512  57.151  1.00  0.00    -0.270 NA
HETATM   43  C   UNL     1      30.232  45.545  57.075  1.00  0.00     0.160 A 
HETATM   44  C   UNL     1      29.297  45.684  56.065  1.00  0.00     0.160 A 
HETATM   45  F   UNL     1      28.469  46.741  56.049  1.00  0.00    -0.202 F 
ENDBRANCH  37  39
ENDBRANCH  31  35
BRANCH  34  46
HETATM   46  C   UNL     1      24.234  44.962  48.915  1.00  0.00     0.306 C 
BRANCH  46  47
HETATM   47  N   UNL     1      24.514  43.793  48.078  1.00  0.00     0.082 N 
HETATM   48  H   UNL     1      23.782  43.716  47.373  1.00  0.00     0.313 HD
HETATM   49  H   UNL     1      24.451  42.953  48.650  1.00  0.00     0.313 HD
ENDBRANCH  46  47
ENDBRANCH  34  46
ENDBRANCH   5  29
TORSDOF 11
ENDMDL
MODEL 2
REMARK VINA RESULT:     -11.4      2.019      3.006
REMARK  11 active torsions:
REMARK  status: ('A' for Active; 'I' for Inactive)
REMARK    1  A    between atoms: C_6  and  O_9 
REMARK    2  A    between atoms: O_9  and  C_10 
REMARK    3  A    between atoms: C_10  and  C_12 
REMARK    4  A    between atoms: C_12  and  C_13 
REMARK    5  A    between atoms: C_16  and  N_17 
REMARK       I    between atoms: N_17  and  C_18 
REMARK    6  A    between atoms: C_18  and  C_20 
REMARK    7  A    between atoms: C_24  and  C_26 
REMARK    8  A    between atoms: C_28  and  C_34 
REMARK    9  A    between atoms: C_31  and  C_32 
REMARK   10  A    between atoms: C_32  and  N_33 
REMARK       I    between atoms: C_34  and  N_36 
REMARK   11  A    between atoms: N_36  and  C_37 
ROOT
HETATM    1  C   UNL     1      24.542  49.161  48.918  1.00  0.00     0.033 A 
HETATM    2  C   UNL     1      25.796  49.629  48.516  1.00  0.00     0.017 A 
HETATM    3  C   UNL     1      26.937  48.913  48.866  1.00  0.00     0.002 A 
HETATM    4  C   UNL     1      26.822  47.721  49.589  1.00  0.00     0.012 A 
HETATM    5  C   UNL     1      25.572  47.240  50.026  1.00  0.00    -0.024 A 
HETATM    6  C   UNL     1      24.438  48.013  49.719  1.00  0.00     0.029 A 
ENDROOT
BRANCH   1   7
HETATM    7  C   UNL     1      23.288  49.792  48.422  1.00  0.00     0.256 C 
HETATM    8  N   UNL     1      22.351  50.010  49.419  1.00  0.00    -0.323 N 
HETATM    9  H   UNL     1      22.612  49.730  50.355  1.00  0.00     0.169 HD
HETATM   10  O   UNL     1      23.218  50.126  47.248  1.00  0.00    -0.267 OA
BRANCH   8  11
HETATM   11  C   UNL     1      21.131  50.710  49.320  1.00  0.00     0.035 A 
HETATM   12  C   UNL     1      20.851  51.663  48.344  1.00  0.00     0.030 A 
HETATM   13  C   UNL     1      19.626  52.342  48.344  1.00  0.00     0.010 A 
HETATM   14  C   UNL     1      18.660  52.078  49.325  1.00  0.00    -0.049 A 
HETATM   15  C   UNL     1      18.934  51.105  50.292  1.00  0.00     0.010 A 
HETATM   16  C   UNL     1      20.158  50.430  50.288  1.00  0.00     0.030 A 
BRANCH  14  17
HETATM   17  C   UNL     1      17.343  52.812  49.322  1.00  0.00     0.149 C 
BRANCH  17  18
HETATM   18  C   UNL     1      16.155  51.912  49.070  1.00  0.00     0.263 C 
HETATM   19  O   UNL     1      15.180  51.776  49.796  1.00  0.00    -0.265 OA
BRANCH  18  20
HETATM   20  O   UNL     1      16.284  51.288  47.856  1.00  0.00    -0.316 OA
BRANCH  20  21
HETATM   21  C   UNL     1      15.731  49.962  47.789  1.00  0.00     0.135 C 
HETATM   22  C   UNL     1      15.289  49.639  46.362  1.00  0.00     0.060 C 
HETATM   23  C   UNL     1      14.796  48.207  46.261  1.00  0.00     0.237 C 
HETATM   24  N   UNL     1      15.850  47.239  46.747  1.00  0.00    -0.075 N 
HETATM   25  C   UNL     1      16.965  47.011  45.760  1.00  0.00     0.269 C 
HETATM   26  C   UNL     1      16.328  47.550  48.145  1.00  0.00     0.237 C 
HETATM   27  H   UNL     1      15.375  46.328  46.815  1.00  0.00     0.279 HD
HETATM   28  C   UNL     1      16.813  48.986  48.246  1.00  0.00     0.060 C 
ENDBRANCH  20  21
ENDBRANCH  18  20
ENDBRANCH  17  18
ENDBRANCH  14  17
ENDBRANCH   8  11
ENDBRANCH   1   7
BRANCH   5  29
HETATM   29  C   UNL     1      25.469  45.941  50.741  1.00  0.00    -0.017 A 
HETATM   30  C   UNL     1      26.105  45.802  51.999  1.00  0.00     0.030 A 
HETATM   31  C   UNL     1      26.096  44.587  52.698  1.00  0.00     0.033 A 
HETATM   32  C   UNL     1      25.402  43.499  52.175  1.00  0.00     0.017 A 
HETATM   33  C   UNL     1      24.753  43.613  50.951  1.00  0.00     0.011 A 
HETATM   34  C   UNL     1      24.815  44.801  50.192  1.00  0.00    -0.020 A 
BRANCH  31  35
HETATM   35  C   UNL     1      26.890  44.372  53.939  1.00  0.00     0.256 C 
HETATM   36  O   UNL     1      26.329  43.856  54.899  1.00  0.00    -0.267 OA
HETATM   37  N   UNL     1      28.205  44.795  53.899  1.00  0.00    -0.320 N 
HETATM   38  H   UNL     1      28.503  45.357  53.108  1.00  0.00     0.169 HD
BRANCH  37  39
HETATM   39  C   UNL     1      29.173  44.625  54.918  1.00  0.00     0.076 A 
HETATM   40  C   UNL     1      30.052  43.546  54.992  1.00  0.00     0.052 A 
HETATM   41  C   UNL     1      30.965  43.502  56.039  1.00  0.00     0.118 A 
HETATM   42  N   UNL     1      31.061  44.447  57.000  1.00  0.00    -0.270 NA
HETATM   43  C   UNL     1      30.201  45.487  56.906  1.00  0.00     0.160 A 
HETATM   44  C   UNL     1      29.262  45.614  55.899  1.00  0.00     0.160 A 
HETATM   45  F   UNL     1      28.445  46.677  55.864  1.00  0.00    -0.202 F 
ENDBRANCH  37  39
ENDBRANCH  31  35
BRANCH  34  46
HETATM   46  C   UNL     1      24.164  44.812  48.819  1.00  0.00     0.306 C 
BRANCH  46  47
HETATM   47  N   UNL     1      23.403  43.597  48.522  1.00  0.00     0.082 N 
HETATM   48  H   UNL     1      23.346  43.489  47.510  1.00  0.00     0.313 HD
HETATM   49  H   UNL     1      22.448  43.714  48.854  1.00  0.00     0.313 HD
ENDBRANCH  46  47
ENDBRANCH  34  46
ENDBRANCH   5  29
TORSDOF 11
ENDMDL
MODEL 3
REMARK VINA RESULT:     -11.3      2.008      2.675
REMARK  11 active torsions:
REMARK  status: ('A' for Active; 'I' for Inactive)
REMARK    1  A    between atoms: C_6  and  O_9 
REMARK    2  A    between atoms: O_9  and  C_10 
REMARK    3  A    between atoms: C_10  and  C_12 
REMARK    4  A    between atoms: C_12  and  C_13 
REMARK    5  A    between atoms: C_16  and  N_17 
REMARK       I    between atoms: N_17  and  C_18 
REMARK    6  A    between atoms: C_18  and  C_20 
REMARK    7  A    between atoms: C_24  and  C_26 
REMARK    8  A    between atoms: C_28  and  C_34 
REMARK    9  A    between atoms: C_31  and  C_32 
REMARK   10  A    between atoms: C_32  and  N_33 
REMARK       I    between atoms: C_34  and  N_36 
REMARK   11  A    between atoms: N_36  and  C_37 
ROOT
HETATM    1  C   UNL     1      24.496  49.174  48.943  1.00  0.00     0.033 A 
HETATM    2  C   UNL     1      25.729  49.687  48.533  1.00  0.00     0.017 A 
HETATM    3  C   UNL     1      26.897  49.005  48.860  1.00  0.00     0.002 A 
HETATM    4  C   UNL     1      26.829  47.801  49.571  1.00  0.00     0.012 A 
HETATM    5  C   UNL     1      25.600  47.275  50.016  1.00  0.00    -0.024 A 
HETATM    6  C   UNL     1      24.439  48.014  49.732  1.00  0.00     0.029 A 
ENDROOT
BRANCH   1   7
HETATM    7  C   UNL     1      23.216  49.770  48.470  1.00  0.00     0.256 C 
HETATM    8  N   UNL     1      22.252  49.858  49.460  1.00  0.00    -0.323 N 
HETATM    9  H   UNL     1      22.512  49.522  50.378  1.00  0.00     0.169 HD
HETATM   10  O   UNL     1      23.148  50.189  47.323  1.00  0.00    -0.267 OA
BRANCH   8  11
HETATM   11  C   UNL     1      20.995  50.494  49.388  1.00  0.00     0.035 A 
HETATM   12  C   UNL     1      20.721  51.600  48.588  1.00  0.00     0.030 A 
HETATM   13  C   UNL     1      19.454  52.196  48.608  1.00  0.00     0.010 A 
HETATM   14  C   UNL     1      18.439  51.694  49.434  1.00  0.00    -0.049 A 
HETATM   15  C   UNL     1      18.709  50.569  50.221  1.00  0.00     0.010 A 
HETATM   16  C   UNL     1      19.975  49.978  50.198  1.00  0.00     0.030 A 
BRANCH  14  17
HETATM   17  C   UNL     1      17.076  52.339  49.455  1.00  0.00     0.149 C 
BRANCH  17  18
HETATM   18  C   UNL     1      16.106  51.723  48.471  1.00  0.00     0.263 C 
HETATM   19  O   UNL     1      15.654  50.588  48.512  1.00  0.00    -0.265 OA
BRANCH  18  20
HETATM   20  O   UNL     1      15.739  52.648  47.528  1.00  0.00    -0.316 OA
BRANCH  20  21
HETATM   21  C   UNL     1      15.753  52.174  46.171  1.00  0.00     0.135 C 
HETATM   22  C   UNL     1      14.856  53.045  45.291  1.00  0.00     0.060 C 
HETATM   23  C   UNL     1      14.941  52.613  43.838  1.00  0.00     0.237 C 
HETATM   24  N   UNL     1      16.373  52.628  43.356  1.00  0.00    -0.075 N 
HETATM   25  C   UNL     1      16.899  54.008  43.062  1.00  0.00     0.269 C 
HETATM   26  C   UNL     1      17.290  51.799  44.222  1.00  0.00     0.237 C 
HETATM   27  H   UNL     1      16.359  52.156  42.440  1.00  0.00     0.279 HD
HETATM   28  C   UNL     1      17.197  52.226  45.676  1.00  0.00     0.060 C 
ENDBRANCH  20  21
ENDBRANCH  18  20
ENDBRANCH  17  18
ENDBRANCH  14  17
ENDBRANCH   8  11
ENDBRANCH   1   7
BRANCH   5  29
HETATM   29  C   UNL     1      25.549  45.964  50.715  1.00  0.00    -0.017 A 
HETATM   30  C   UNL     1      26.164  45.844  51.986  1.00  0.00     0.030 A 
HETATM   31  C   UNL     1      26.201  44.622  52.673  1.00  0.00     0.033 A 
HETATM   32  C   UNL     1      25.575  43.506  52.124  1.00  0.00     0.017 A 
HETATM   33  C   UNL     1      24.947  43.601  50.887  1.00  0.00     0.011 A 
HETATM   34  C   UNL     1      24.965  44.799  50.141  1.00  0.00    -0.020 A 
BRANCH  31  35
HETATM   35  C   UNL     1      26.979  44.434  53.928  1.00  0.00     0.256 C 
HETATM   36  O   UNL     1      26.372  44.085  54.934  1.00  0.00    -0.267 OA
HETATM   37  N   UNL     1      28.334  44.691  53.847  1.00  0.00    -0.320 N 
HETATM   38  H   UNL     1      28.687  45.134  53.005  1.00  0.00     0.169 HD
BRANCH  37  39
HETATM   39  C   UNL     1      29.287  44.505  54.878  1.00  0.00     0.076 A 
HETATM   40  C   UNL     1      30.072  43.363  55.023  1.00  0.00     0.052 A 
HETATM   41  C   UNL     1      30.981  43.308  56.073  1.00  0.00     0.118 A 
HETATM   42  N   UNL     1      31.158  44.301  56.973  1.00  0.00    -0.270 NA
HETATM   43  C   UNL     1      30.389  45.402  56.810  1.00  0.00     0.160 A 
HETATM   44  C   UNL     1      29.462  45.543  55.794  1.00  0.00     0.160 A 
HETATM   45  F   UNL     1      28.737  46.667  55.689  1.00  0.00    -0.202 F 
ENDBRANCH  37  39
ENDBRANCH  31  35
BRANCH  34  46
HETATM   46  C   UNL     1      24.344  44.792  48.754  1.00  0.00     0.306 C 
BRANCH  46  47
HETATM   47  N   UNL     1      24.487  43.513  48.056  1.00  0.00     0.082 N 
HETATM   48  H   UNL     1      24.854  42.825  48.711  1.00  0.00     0.313 HD
HETATM   49  H   UNL     1      25.184  43.612  47.321  1.00  0.00     0.313 HD
ENDBRANCH  46  47
ENDBRANCH  34  46
ENDBRANCH   5  29
TORSDOF 11
ENDMDL
MODEL 4
REMARK VINA RESULT:     -10.3      5.146     13.410
REMARK  11 active torsions:
REMARK  status: ('A' for Active; 'I' for Inactive)
REMARK    1  A    between atoms: C_6  and  O_9 
REMARK    2  A    between atoms: O_9  and  C_10 
REMARK    3  A    between atoms: C_10  and  C_12 
REMARK    4  A    between atoms: C_12  and  C_13 
REMARK    5  A    between atoms: C_16  and  N_17 
REMARK       I    between atoms: N_17  and  C_18 
REMARK    6  A    between atoms: C_18  and  C_20 
REMARK    7  A    between atoms: C_24  and  C_26 
REMARK    8  A    between atoms: C_28  and  C_34 
REMARK    9  A    between atoms: C_31  and  C_32 
REMARK   10  A    between atoms: C_32  and  N_33 
REMARK       I    between atoms: C_34  and  N_36 
REMARK   11  A    between atoms: N_36  and  C_37 
ROOT
HETATM    1  C   UNL     1      23.277  48.728  49.118  1.00  0.00     0.033 A 
HETATM    2  C   UNL     1      23.434  50.097  48.883  1.00  0.00     0.017 A 
HETATM    3  C   UNL     1      22.347  50.844  48.443  1.00  0.00     0.002 A 
HETATM    4  C   UNL     1      21.102  50.231  48.264  1.00  0.00     0.012 A 
HETATM    5  C   UNL     1      20.923  48.850  48.471  1.00  0.00    -0.024 A 
HETATM    6  C   UNL     1      22.050  48.101  48.852  1.00  0.00     0.029 A 
ENDROOT
BRANCH   1   7
HETATM    7  C   UNL     1      24.358  47.926  49.754  1.00  0.00     0.256 C 
HETATM    8  N   UNL     1      23.982  46.622  50.034  1.00  0.00    -0.323 N 
HETATM    9  H   UNL     1      23.040  46.358  49.779  1.00  0.00     0.169 HD
HETATM   10  O   UNL     1      25.462  48.430  49.898  1.00  0.00    -0.267 OA
BRANCH   8  11
HETATM   11  C   UNL     1      24.797  45.569  50.498  1.00  0.00     0.035 A 
HETATM   12  C   UNL     1      25.743  44.908  49.719  1.00  0.00     0.030 A 
HETATM   13  C   UNL     1      26.482  43.843  50.250  1.00  0.00     0.010 A 
HETATM   14  C   UNL     1      26.282  43.420  51.570  1.00  0.00    -0.049 A 
HETATM   15  C   UNL     1      25.347  44.098  52.359  1.00  0.00     0.010 A 
HETATM   16  C   UNL     1      24.612  45.161  51.826  1.00  0.00     0.030 A 
BRANCH  14  17
HETATM   17  C   UNL     1      27.079  42.271  52.137  1.00  0.00     0.149 C 
BRANCH  17  18
HETATM   18  C   UNL     1      28.415  42.691  52.708  1.00  0.00     0.263 C 
HETATM   19  O   UNL     1      29.477  42.741  52.105  1.00  0.00    -0.265 OA
BRANCH  18  20
HETATM   20  O   UNL     1      28.270  43.076  54.015  1.00  0.00    -0.316 OA
BRANCH  20  21
HETATM   21  C   UNL     1      29.062  44.210  54.409  1.00  0.00     0.135 C 
HETATM   22  C   UNL     1      28.167  45.328  54.943  1.00  0.00     0.060 C 
HETATM   23  C   UNL     1      29.001  46.490  55.453  1.00  0.00     0.237 C 
HETATM   24  N   UNL     1      29.990  46.025  56.497  1.00  0.00    -0.075 N 
HETATM   25  C   UNL     1      29.372  45.770  57.846  1.00  0.00     0.269 C 
HETATM   26  C   UNL     1      30.870  44.900  56.008  1.00  0.00     0.237 C 
HETATM   27  H   UNL     1      30.623  46.823  56.650  1.00  0.00     0.279 HD
HETATM   28  C   UNL     1      30.034  43.743  55.490  1.00  0.00     0.060 C 
ENDBRANCH  20  21
ENDBRANCH  18  20
ENDBRANCH  17  18
ENDBRANCH  14  17
ENDBRANCH   8  11
ENDBRANCH   1   7
BRANCH   5  29
HETATM   29  C   UNL     1      19.577  48.233  48.334  1.00  0.00    -0.017 A 
HETATM   30  C   UNL     1      19.229  47.621  47.104  1.00  0.00     0.030 A 
HETATM   31  C   UNL     1      17.957  47.072  46.889  1.00  0.00     0.033 A 
HETATM   32  C   UNL     1      17.024  47.077  47.922  1.00  0.00     0.017 A 
HETATM   33  C   UNL     1      17.346  47.654  49.146  1.00  0.00     0.011 A 
HETATM   34  C   UNL     1      18.591  48.283  49.359  1.00  0.00    -0.020 A 
BRANCH  31  35
HETATM   35  C   UNL     1      17.517  46.571  45.558  1.00  0.00     0.256 C 
HETATM   36  O   UNL     1      17.864  47.199  44.564  1.00  0.00    -0.267 OA
HETATM   37  N   UNL     1      16.733  45.434  45.566  1.00  0.00    -0.320 N 
HETATM   38  H   UNL     1      16.376  45.105  46.457  1.00  0.00     0.169 HD
BRANCH  37  39
HETATM   39  C   UNL     1      16.265  44.728  44.431  1.00  0.00     0.076 A 
HETATM   40  C   UNL     1      16.926  43.645  43.854  1.00  0.00     0.052 A 
HETATM   41  C   UNL     1      16.356  43.030  42.747  1.00  0.00     0.118 A 
HETATM   42  N   UNL     1      15.188  43.415  42.185  1.00  0.00    -0.270 NA
HETATM   43  C   UNL     1      14.562  44.464  42.762  1.00  0.00     0.160 A 
HETATM   44  C   UNL     1      15.055  45.135  43.868  1.00  0.00     0.160 A 
HETATM   45  F   UNL     1      14.376  46.166  44.393  1.00  0.00    -0.202 F 
ENDBRANCH  37  39
ENDBRANCH  31  35
BRANCH  34  46
HETATM   46  C   UNL     1      18.827  48.978  50.690  1.00  0.00     0.306 C 
BRANCH  46  47
HETATM   47  N   UNL     1      18.535  48.134  51.850  1.00  0.00     0.082 N 
HETATM   48  H   UNL     1      19.309  48.207  52.508  1.00  0.00     0.313 HD
HETATM   49  H   UNL     1      18.500  47.161  51.553  1.00  0.00     0.313 HD
ENDBRANCH  46  47
ENDBRANCH  34  46
ENDBRANCH   5  29
TORSDOF 11
ENDMDL
MODEL 5
REMARK VINA RESULT:     -10.2      3.542      5.498
REMARK  11 active torsions:
REMARK  status: ('A' for Active; 'I' for Inactive)
REMARK    1  A    between atoms: C_6  and  O_9 
REMARK    2  A    between atoms: O_9  and  C_10 
REMARK    3  A    between atoms: C_10  and  C_12 
REMARK    4  A    between atoms: C_12  and  C_13 
REMARK    5  A    between atoms: C_16  and  N_17 
REMARK       I    between atoms: N_17  and  C_18 
REMARK    6  A    between atoms: C_18  and  C_20 
REMARK    7  A    between atoms: C_24  and  C_26 
REMARK    8  A    between atoms: C_28  and  C_34 
REMARK    9  A    between atoms: C_31  and  C_32 
REMARK   10  A    between atoms: C_32  and  N_33 
REMARK       I    between atoms: C_34  and  N_36 
REMARK   11  A    between atoms: N_36  and  C_37 
ROOT
HETATM    1  C   UNL     1      24.323  48.753  49.234  1.00  0.00     0.033 A 
HETATM    2  C   UNL     1      25.401  49.405  48.629  1.00  0.00     0.017 A 
HETATM    3  C   UNL     1      26.696  48.971  48.891  1.00  0.00     0.002 A 
HETATM    4  C   UNL     1      26.911  47.874  49.732  1.00  0.00     0.012 A 
HETATM    5  C   UNL     1      25.844  47.215  50.373  1.00  0.00    -0.024 A 
HETATM    6  C   UNL     1      24.548  47.711  50.147  1.00  0.00     0.029 A 
ENDROOT
BRANCH   1   7
HETATM    7  C   UNL     1      22.919  49.066  48.851  1.00  0.00     0.256 C 
HETATM    8  N   UNL     1      22.267  49.877  49.765  1.00  0.00    -0.323 N 
HETATM    9  H   UNL     1      22.800  50.168  50.573  1.00  0.00     0.169 HD
HETATM   10  O   UNL     1      22.498  48.669  47.773  1.00  0.00    -0.267 OA
BRANCH   8  11
HETATM   11  C   UNL     1      20.994  50.471  49.640  1.00  0.00     0.035 A 
HETATM   12  C   UNL     1      19.875  50.088  50.376  1.00  0.00     0.030 A 
HETATM   13  C   UNL     1      18.637  50.706  50.159  1.00  0.00     0.010 A 
HETATM   14  C   UNL     1      18.498  51.715  49.196  1.00  0.00    -0.049 A 
HETATM   15  C   UNL     1      19.627  52.113  48.473  1.00  0.00     0.010 A 
HETATM   16  C   UNL     1      20.861  51.495  48.693  1.00  0.00     0.030 A 
BRANCH  14  17
HETATM   17  C   UNL     1      17.162  52.376  48.964  1.00  0.00     0.149 C 
BRANCH  17  18
HETATM   18  C   UNL     1      16.343  51.709  47.882  1.00  0.00     0.263 C 
HETATM   19  O   UNL     1      15.755  52.271  46.968  1.00  0.00    -0.265 OA
BRANCH  18  20
HETATM   20  O   UNL     1      16.390  50.347  48.025  1.00  0.00    -0.316 OA
BRANCH  20  21
HETATM   21  C   UNL     1      16.566  49.611  46.802  1.00  0.00     0.135 C 
HETATM   22  C   UNL     1      17.988  49.057  46.711  1.00  0.00     0.060 C 
HETATM   23  C   UNL     1      18.154  48.196  45.472  1.00  0.00     0.237 C 
HETATM   24  N   UNL     1      17.125  47.089  45.445  1.00  0.00    -0.075 N 
HETATM   25  C   UNL     1      17.437  45.949  46.379  1.00  0.00     0.269 C 
HETATM   26  C   UNL     1      15.711  47.603  45.562  1.00  0.00     0.237 C 
HETATM   27  H   UNL     1      17.191  46.676  44.503  1.00  0.00     0.279 HD
HETATM   28  C   UNL     1      15.549  48.471  46.797  1.00  0.00     0.060 C 
ENDBRANCH  20  21
ENDBRANCH  18  20
ENDBRANCH  17  18
ENDBRANCH  14  17
ENDBRANCH   8  11
ENDBRANCH   1   7
BRANCH   5  29
HETATM   29  C   UNL     1      26.092  46.014  51.214  1.00  0.00    -0.017 A 
HETATM   30  C   UNL     1      26.290  44.764  50.577  1.00  0.00     0.030 A 
HETATM   31  C   UNL     1      26.472  43.584  51.312  1.00  0.00     0.033 A 
HETATM   32  C   UNL     1      26.512  43.641  52.703  1.00  0.00     0.017 A 
HETATM   33  C   UNL     1      26.340  44.859  53.353  1.00  0.00     0.011 A 
HETATM   34  C   UNL     1      26.077  46.046  52.637  1.00  0.00    -0.020 A 
BRANCH  31  35
HETATM   35  C   UNL     1      26.519  42.242  50.671  1.00  0.00     0.256 C 
HETATM   36  O   UNL     1      25.460  41.655  50.487  1.00  0.00    -0.267 OA
HETATM   37  N   UNL     1      27.776  41.767  50.351  1.00  0.00    -0.320 N 
HETATM   38  H   UNL     1      28.583  42.270  50.705  1.00  0.00     0.169 HD
BRANCH  37  39
HETATM   39  C   UNL     1      28.069  40.563  49.665  1.00  0.00     0.076 A 
HETATM   40  C   UNL     1      28.505  39.393  50.285  1.00  0.00     0.052 A 
HETATM   41  C   UNL     1      28.748  38.273  49.499  1.00  0.00     0.118 A 
HETATM   42  N   UNL     1      28.587  38.241  48.157  1.00  0.00    -0.270 NA
HETATM   43  C   UNL     1      28.160  39.385  47.577  1.00  0.00     0.160 A 
HETATM   44  C   UNL     1      27.892  40.546  48.281  1.00  0.00     0.160 A 
HETATM   45  F   UNL     1      27.464  41.644  47.640  1.00  0.00    -0.202 F 
ENDBRANCH  37  39
ENDBRANCH  31  35
BRANCH  34  46
HETATM   46  C   UNL     1      25.800  47.315  53.426  1.00  0.00     0.306 C 
BRANCH  46  47
HETATM   47  N   UNL     1      26.347  47.290  54.784  1.00  0.00     0.082 N 
HETATM   48  H   UNL     1      27.331  47.031  54.733  1.00  0.00     0.313 HD
HETATM   49  H   UNL     1      25.883  46.556  55.315  1.00  0.00     0.313 HD
ENDBRANCH  46  47
ENDBRANCH  34  46
ENDBRANCH   5  29
TORSDOF 11
ENDMDL
MODEL 6
REMARK VINA RESULT:      -9.9      2.997      3.817
REMARK  11 active torsions:
REMARK  status: ('A' for Active; 'I' for Inactive)
REMARK    1  A    between atoms: C_6  and  O_9 
REMARK    2  A    between atoms: O_9  and  C_10 
REMARK    3  A    between atoms: C_10  and  C_12 
REMARK    4  A    between atoms: C_12  and  C_13 
REMARK    5  A    between atoms: C_16  and  N_17 
REMARK       I    between atoms: N_17  and  C_18 
REMARK    6  A    between atoms: C_18  and  C_20 
REMARK    7  A    between atoms: C_24  and  C_26 
REMARK    8  A    between atoms: C_28  and  C_34 
REMARK    9  A    between atoms: C_31  and  C_32 
REMARK   10  A    between atoms: C_32  and  N_33 
REMARK       I    between atoms: C_34  and  N_36 
REMARK   11  A    between atoms: N_36  and  C_37 
ROOT
HETATM    1  C   UNL     1      24.422  49.090  48.846  1.00  0.00     0.033 A 
HETATM    2  C   UNL     1      25.649  49.671  48.516  1.00  0.00     0.017 A 
HETATM    3  C   UNL     1      26.828  49.067  48.944  1.00  0.00     0.002 A 
HETATM    4  C   UNL     1      26.779  47.875  49.674  1.00  0.00     0.012 A 
HETATM    5  C   UNL     1      25.554  47.282  50.039  1.00  0.00    -0.024 A 
HETATM    6  C   UNL     1      24.375  47.944  49.654  1.00  0.00     0.029 A 
ENDROOT
BRANCH   1   7
HETATM    7  C   UNL     1      23.148  49.598  48.266  1.00  0.00     0.256 C 
HETATM    8  N   UNL     1      22.023  48.975  48.779  1.00  0.00    -0.323 N 
HETATM    9  H   UNL     1      22.180  48.262  49.479  1.00  0.00     0.169 HD
HETATM   10  O   UNL     1      23.188  50.535  47.481  1.00  0.00    -0.267 OA
BRANCH   8  11
HETATM   11  C   UNL     1      20.671  49.309  48.556  1.00  0.00     0.035 A 
HETATM   12  C   UNL     1      20.174  49.800  47.352  1.00  0.00     0.030 A 
HETATM   13  C   UNL     1      18.822  50.146  47.229  1.00  0.00     0.010 A 
HETATM   14  C   UNL     1      17.946  50.009  48.314  1.00  0.00    -0.049 A 
HETATM   15  C   UNL     1      18.442  49.496  49.517  1.00  0.00     0.010 A 
HETATM   16  C   UNL     1      19.792  49.151  49.635  1.00  0.00     0.030 A 
BRANCH  14  17
HETATM   17  C   UNL     1      16.492  50.385  48.179  1.00  0.00     0.149 C 
BRANCH  17  18
HETATM   18  C   UNL     1      15.603  49.219  47.809  1.00  0.00     0.263 C 
HETATM   19  O   UNL     1      15.504  48.161  48.416  1.00  0.00    -0.265 OA
BRANCH  18  20
HETATM   20  O   UNL     1      14.853  49.528  46.704  1.00  0.00    -0.316 OA
BRANCH  20  21
HETATM   21  C   UNL     1      14.814  48.510  45.689  1.00  0.00     0.135 C 
HETATM   22  C   UNL     1      13.395  47.964  45.534  1.00  0.00     0.060 C 
HETATM   23  C   UNL     1      13.324  46.961  44.397  1.00  0.00     0.237 C 
HETATM   24  N   UNL     1      13.827  47.571  43.109  1.00  0.00    -0.075 N 
HETATM   25  C   UNL     1      12.842  48.504  42.455  1.00  0.00     0.269 C 
HETATM   26  C   UNL     1      15.216  48.146  43.238  1.00  0.00     0.237 C 
HETATM   27  H   UNL     1      13.914  46.785  42.449  1.00  0.00     0.279 HD
HETATM   28  C   UNL     1      15.288  49.142  44.381  1.00  0.00     0.060 C 
ENDBRANCH  20  21
ENDBRANCH  18  20
ENDBRANCH  17  18
ENDBRANCH  14  17
ENDBRANCH   8  11
ENDBRANCH   1   7
BRANCH   5  29
HETATM   29  C   UNL     1      25.529  45.983  50.762  1.00  0.00    -0.017 A 
HETATM   30  C   UNL     1      26.123  45.905  52.046  1.00  0.00     0.030 A 
HETATM   31  C   UNL     1      26.184  44.698  52.756  1.00  0.00     0.033 A 
HETATM   32  C   UNL     1      25.602  43.554  52.217  1.00  0.00     0.017 A 
HETATM   33  C   UNL     1      24.995  43.607  50.967  1.00  0.00     0.011 A 
HETATM   34  C   UNL     1      24.991  44.791  50.199  1.00  0.00    -0.020 A 
BRANCH  31  35
HETATM   35  C   UNL     1      26.943  44.557  54.029  1.00  0.00     0.256 C 
HETATM   36  O   UNL     1      26.349  44.119  55.007  1.00  0.00    -0.267 OA
HETATM   37  N   UNL     1      28.266  44.955  53.994  1.00  0.00    -0.320 N 
HETATM   38  H   UNL     1      28.594  45.455  53.175  1.00  0.00     0.169 HD
BRANCH  37  39
HETATM   39  C   UNL     1      29.205  44.840  55.048  1.00  0.00     0.076 A 
HETATM   40  C   UNL     1      29.345  45.768  56.078  1.00  0.00     0.052 A 
HETATM   41  C   UNL     1      30.299  45.533  57.061  1.00  0.00     0.118 A 
HETATM   42  N   UNL     1      31.110  44.453  57.086  1.00  0.00    -0.270 NA
HETATM   43  C   UNL     1      30.955  43.564  56.079  1.00  0.00     0.160 A 
HETATM   44  C   UNL     1      30.030  43.715  55.061  1.00  0.00     0.160 A 
HETATM   45  F   UNL     1      29.926  42.788  54.096  1.00  0.00    -0.202 F 
ENDBRANCH  37  39
ENDBRANCH  31  35
BRANCH  34  46
HETATM   46  C   UNL     1      24.396  44.740  48.802  1.00  0.00     0.306 C 
BRANCH  46  47
HETATM   47  N   UNL     1      22.933  44.735  48.789  1.00  0.00     0.082 N 
HETATM   48  H   UNL     1      22.615  43.899  48.300  1.00  0.00     0.313 HD
HETATM   49  H   UNL     1      22.603  45.529  48.245  1.00  0.00     0.313 HD
ENDBRANCH  46  47
ENDBRANCH  34  46
ENDBRANCH   5  29
TORSDOF 11
ENDMDL
MODEL 7
REMARK VINA RESULT:      -9.7      4.297     14.097
REMARK  11 active torsions:
REMARK  status: ('A' for Active; 'I' for Inactive)
REMARK    1  A    between atoms: C_6  and  O_9 
REMARK    2  A    between atoms: O_9  and  C_10 
REMARK    3  A    between atoms: C_10  and  C_12 
REMARK    4  A    between atoms: C_12  and  C_13 
REMARK    5  A    between atoms: C_16  and  N_17 
REMARK       I    between atoms: N_17  and  C_18 
REMARK    6  A    between atoms: C_18  and  C_20 
REMARK    7  A    between atoms: C_24  and  C_26 
REMARK    8  A    between atoms: C_28  and  C_34 
REMARK    9  A    between atoms: C_31  and  C_32 
REMARK   10  A    between atoms: C_32  and  N_33 
REMARK       I    between atoms: C_34  and  N_36 
REMARK   11  A    between atoms: N_36  and  C_37 
ROOT
HETATM    1  C   UNL     1      22.875  48.516  48.834  1.00  0.00     0.033 A 
HETATM    2  C   UNL     1      23.594  49.689  49.077  1.00  0.00     0.017 A 
HETATM    3  C   UNL     1      22.951  50.919  48.977  1.00  0.00     0.002 A 
HETATM    4  C   UNL     1      21.589  50.973  48.663  1.00  0.00     0.012 A 
HETATM    5  C   UNL     1      20.847  49.807  48.390  1.00  0.00    -0.024 A 
HETATM    6  C   UNL     1      21.532  48.580  48.431  1.00  0.00     0.029 A 
ENDROOT
BRANCH   1   7
HETATM    7  C   UNL     1      23.470  47.177  49.098  1.00  0.00     0.256 C 
HETATM    8  N   UNL     1      24.397  47.180  50.126  1.00  0.00    -0.323 N 
HETATM    9  H   UNL     1      24.565  48.068  50.582  1.00  0.00     0.169 HD
HETATM   10  O   UNL     1      23.055  46.212  48.472  1.00  0.00    -0.267 OA
BRANCH   8  11
HETATM   11  C   UNL     1      25.034  46.071  50.720  1.00  0.00     0.035 A 
HETATM   12  C   UNL     1      26.374  46.046  51.098  1.00  0.00     0.030 A 
HETATM   13  C   UNL     1      26.936  44.885  51.645  1.00  0.00     0.010 A 
HETATM   14  C   UNL     1      26.165  43.728  51.819  1.00  0.00    -0.049 A 
HETATM   15  C   UNL     1      24.814  43.762  51.459  1.00  0.00     0.010 A 
HETATM   16  C   UNL     1      24.256  44.922  50.914  1.00  0.00     0.030 A 
BRANCH  14  17
HETATM   17  C   UNL     1      26.775  42.481  52.406  1.00  0.00     0.149 C 
BRANCH  17  18
HETATM   18  C   UNL     1      28.206  42.668  52.859  1.00  0.00     0.263 C 
HETATM   19  O   UNL     1      29.204  42.599  52.155  1.00  0.00    -0.265 OA
BRANCH  18  20
HETATM   20  O   UNL     1      28.242  42.991  54.190  1.00  0.00    -0.316 OA
BRANCH  20  21
HETATM   21  C   UNL     1      29.128  44.071  54.532  1.00  0.00     0.135 C 
HETATM   22  C   UNL     1      28.354  45.208  55.198  1.00  0.00     0.060 C 
HETATM   23  C   UNL     1      29.295  46.309  55.652  1.00  0.00     0.237 C 
HETATM   24  N   UNL     1      30.366  45.759  56.565  1.00  0.00    -0.075 N 
HETATM   25  C   UNL     1      29.885  45.481  57.965  1.00  0.00     0.269 C 
HETATM   26  C   UNL     1      31.130  44.614  55.946  1.00  0.00     0.237 C 
HETATM   27  H   UNL     1      31.051  46.520  56.674  1.00  0.00     0.279 HD
HETATM   28  C   UNL     1      30.187  43.518  55.484  1.00  0.00     0.060 C 
ENDBRANCH  20  21
ENDBRANCH  18  20
ENDBRANCH  17  18
ENDBRANCH  14  17
ENDBRANCH   8  11
ENDBRANCH   1   7
BRANCH   5  29
HETATM   29  C   UNL     1      19.388  49.887  48.117  1.00  0.00    -0.017 A 
HETATM   30  C   UNL     1      18.954  50.148  46.794  1.00  0.00     0.030 A 
HETATM   31  C   UNL     1      17.595  50.292  46.480  1.00  0.00     0.033 A 
HETATM   32  C   UNL     1      16.638  50.124  47.478  1.00  0.00     0.017 A 
HETATM   33  C   UNL     1      17.036  49.847  48.782  1.00  0.00     0.011 A 
HETATM   34  C   UNL     1      18.400  49.776  49.137  1.00  0.00    -0.020 A 
BRANCH  31  35
HETATM   35  C   UNL     1      17.127  50.726  45.135  1.00  0.00     0.256 C 
HETATM   36  O   UNL     1      16.417  49.956  44.498  1.00  0.00    -0.267 OA
HETATM   37  N   UNL     1      17.555  51.970  44.716  1.00  0.00    -0.320 N 
HETATM   38  H   UNL     1      18.273  52.438  45.259  1.00  0.00     0.169 HD
BRANCH  37  39
HETATM   39  C   UNL     1      17.178  52.629  43.520  1.00  0.00     0.076 A 
HETATM   40  C   UNL     1      17.679  52.311  42.258  1.00  0.00     0.052 A 
HETATM   41  C   UNL     1      17.219  53.026  41.160  1.00  0.00     0.118 A 
HETATM   42  N   UNL     1      16.307  54.021  41.232  1.00  0.00    -0.270 NA
HETATM   43  C   UNL     1      15.831  54.309  42.465  1.00  0.00     0.160 A 
HETATM   44  C   UNL     1      16.231  53.648  43.612  1.00  0.00     0.160 A 
HETATM   45  F   UNL     1      15.711  53.983  44.803  1.00  0.00    -0.202 F 
ENDBRANCH  37  39
ENDBRANCH  31  35
BRANCH  34  46
HETATM   46  C   UNL     1      18.752  49.571  50.601  1.00  0.00     0.306 C 
BRANCH  46  47
HETATM   47  N   UNL     1      18.843  48.162  50.988  1.00  0.00     0.082 N 
HETATM   48  H   UNL     1      18.259  48.012  51.809  1.00  0.00     0.313 HD
HETATM   49  H   UNL     1      19.799  47.958  51.274  1.00  0.00     0.313 HD
ENDBRANCH  46  47
ENDBRANCH  34  46
ENDBRANCH   5  29
TORSDOF 11
ENDMDL
MODEL 8
REMARK VINA RESULT:      -9.7      3.409     13.759
REMARK  11 active torsions:
REMARK  status: ('A' for Active; 'I' for Inactive)
REMARK    1  A    between atoms: C_6  and  O_9 
REMARK    2  A    between atoms: O_9  and  C_10 
REMARK    3  A    between atoms: C_10  and  C_12 
REMARK    4  A    between atoms: C_12  and  C_13 
REMARK    5  A    between atoms: C_16  and  N_17 
REMARK       I    between atoms: N_17  and  C_18 
REMARK    6  A    between atoms: C_18  and  C_20 
REMARK    7  A    between atoms: C_24  and  C_26 
REMARK    8  A    between atoms: C_28  and  C_34 
REMARK    9  A    between atoms: C_31  and  C_32 
REMARK   10  A    between atoms: C_32  and  N_33 
REMARK       I    between atoms: C_34  and  N_36 
REMARK   11  A    between atoms: N_36  and  C_37 
ROOT
HETATM    1  C   UNL     1      21.335  45.885  48.413  1.00  0.00     0.033 A 
HETATM    2  C   UNL     1      20.318  45.084  47.887  1.00  0.00     0.017 A 
HETATM    3  C   UNL     1      19.084  45.653  47.591  1.00  0.00     0.002 A 
HETATM    4  C   UNL     1      18.877  47.022  47.794  1.00  0.00     0.012 A 
HETATM    5  C   UNL     1      19.878  47.847  48.344  1.00  0.00    -0.024 A 
HETATM    6  C   UNL     1      21.095  47.238  48.698  1.00  0.00     0.029 A 
ENDROOT
BRANCH   1   7
HETATM    7  C   UNL     1      22.719  45.363  48.581  1.00  0.00     0.256 C 
HETATM    8  N   UNL     1      23.257  45.621  49.831  1.00  0.00    -0.323 N 
HETATM    9  H   UNL     1      22.666  46.119  50.484  1.00  0.00     0.169 HD
HETATM   10  O   UNL     1      23.218  44.709  47.675  1.00  0.00    -0.267 OA
BRANCH   8  11
HETATM   11  C   UNL     1      24.474  45.147  50.363  1.00  0.00     0.035 A 
HETATM   12  C   UNL     1      25.670  45.860  50.337  1.00  0.00     0.030 A 
HETATM   13  C   UNL     1      26.844  45.297  50.853  1.00  0.00     0.010 A 
HETATM   14  C   UNL     1      26.839  44.007  51.402  1.00  0.00    -0.049 A 
HETATM   15  C   UNL     1      25.633  43.302  51.447  1.00  0.00     0.010 A 
HETATM   16  C   UNL     1      24.463  43.867  50.931  1.00  0.00     0.030 A 
BRANCH  14  17
HETATM   17  C   UNL     1      28.106  43.404  51.955  1.00  0.00     0.149 C 
BRANCH  17  18
HETATM   18  C   UNL     1      27.861  42.404  53.062  1.00  0.00     0.263 C 
HETATM   19  O   UNL     1      27.786  41.189  52.939  1.00  0.00    -0.265 OA
BRANCH  18  20
HETATM   20  O   UNL     1      27.788  43.046  54.271  1.00  0.00    -0.316 OA
BRANCH  20  21
HETATM   21  C   UNL     1      28.785  44.061  54.484  1.00  0.00     0.135 C 
HETATM   22  C   UNL     1      28.171  45.275  55.180  1.00  0.00     0.060 C 
HETATM   23  C   UNL     1      29.235  46.310  55.498  1.00  0.00     0.237 C 
HETATM   24  N   UNL     1      30.348  45.702  56.322  1.00  0.00    -0.075 N 
HETATM   25  C   UNL     1      29.990  45.505  57.771  1.00  0.00     0.269 C 
HETATM   26  C   UNL     1      30.955  44.482  55.673  1.00  0.00     0.237 C 
HETATM   27  H   UNL     1      31.097  46.409  56.335  1.00  0.00     0.279 HD
HETATM   28  C   UNL     1      29.888  43.452  55.347  1.00  0.00     0.060 C 
ENDBRANCH  20  21
ENDBRANCH  18  20
ENDBRANCH  17  18
ENDBRANCH  14  17
ENDBRANCH   8  11
ENDBRANCH   1   7
BRANCH   5  29
HETATM   29  C   UNL     1      19.656  49.309  48.493  1.00  0.00    -0.017 A 
HETATM   30  C   UNL     1      18.353  49.773  48.804  1.00  0.00     0.030 A 
HETATM   31  C   UNL     1      18.064  51.141  48.902  1.00  0.00     0.033 A 
HETATM   32  C   UNL     1      19.086  52.073  48.743  1.00  0.00     0.017 A 
HETATM   33  C   UNL     1      20.378  51.644  48.456  1.00  0.00     0.011 A 
HETATM   34  C   UNL     1      20.677  50.277  48.275  1.00  0.00    -0.020 A 
BRANCH  31  35
HETATM   35  C   UNL     1      16.676  51.655  49.067  1.00  0.00     0.256 C 
HETATM   36  O   UNL     1      15.749  50.879  48.868  1.00  0.00    -0.267 OA
HETATM   37  N   UNL     1      16.559  52.985  49.419  1.00  0.00    -0.320 N 
HETATM   38  H   UNL     1      17.393  53.563  49.389  1.00  0.00     0.169 HD
BRANCH  37  39
HETATM   39  C   UNL     1      15.357  53.674  49.711  1.00  0.00     0.076 A 
HETATM   40  C   UNL     1      14.957  54.045  50.994  1.00  0.00     0.052 A 
HETATM   41  C   UNL     1      13.758  54.729  51.146  1.00  0.00     0.118 A 
HETATM   42  N   UNL     1      12.942  55.064  50.122  1.00  0.00    -0.270 NA
HETATM   43  C   UNL     1      13.351  54.698  48.886  1.00  0.00     0.160 A 
HETATM   44  C   UNL     1      14.530  54.018  48.641  1.00  0.00     0.160 A 
HETATM   45  F   UNL     1      14.876  53.691  47.386  1.00  0.00    -0.202 F 
ENDBRANCH  37  39
ENDBRANCH  31  35
BRANCH  34  46
HETATM   46  C   UNL     1      22.090  49.898  47.864  1.00  0.00     0.306 C 
BRANCH  46  47
HETATM   47  N   UNL     1      23.055  50.990  48.013  1.00  0.00     0.082 N 
HETATM   48  H   UNL     1      23.977  50.588  48.176  1.00  0.00     0.313 HD
HETATM   49  H   UNL     1      22.823  51.526  48.847  1.00  0.00     0.313 HD
ENDBRANCH  46  47
ENDBRANCH  34  46
ENDBRANCH   5  29
TORSDOF 11
ENDMDL
MODEL 9
REMARK VINA RESULT:      -9.6      3.488      5.113
REMARK  11 active torsions:
REMARK  status: ('A' for Active; 'I' for Inactive)
REMARK    1  A    between atoms: C_6  and  O_9 
REMARK    2  A    between atoms: O_9  and  C_10 
REMARK    3  A    between atoms: C_10  and  C_12 
REMARK    4  A    between atoms: C_12  and  C_13 
REMARK    5  A    between atoms: C_16  and  N_17 
REMARK       I    between atoms: N_17  and  C_18 
REMARK    6  A    between atoms: C_18  and  C_20 
REMARK    7  A    between atoms: C_24  and  C_26 
REMARK    8  A    between atoms: C_28  and  C_34 
REMARK    9  A    between atoms: C_31  and  C_32 
REMARK   10  A    between atoms: C_32  and  N_33 
REMARK       I    between atoms: C_34  and  N_36 
REMARK   11  A    between atoms: N_36  and  C_37 
ROOT
HETATM    1  C   UNL     1      24.355  48.688  49.177  1.00  0.00     0.033 A 
HETATM    2  C   UNL     1      25.428  49.402  48.638  1.00  0.00     0.017 A 
HETATM    3  C   UNL     1      26.729  49.025  48.955  1.00  0.00     0.002 A 
HETATM    4  C   UNL     1      26.955  47.921  49.784  1.00  0.00     0.012 A 
HETATM    5  C   UNL     1      25.892  47.198  50.358  1.00  0.00    -0.024 A 
HETATM    6  C   UNL     1      24.586  47.637  50.079  1.00  0.00     0.029 A 
ENDROOT
BRANCH   1   7
HETATM    7  C   UNL     1      22.957  48.942  48.732  1.00  0.00     0.256 C 
HETATM    8  N   UNL     1      22.133  49.405  49.744  1.00  0.00    -0.323 N 
HETATM    9  H   UNL     1      22.557  49.524  50.655  1.00  0.00     0.169 HD
HETATM   10  O   UNL     1      22.679  48.806  47.549  1.00  0.00    -0.267 OA
BRANCH   8  11
HETATM   11  C   UNL     1      20.808  49.874  49.634  1.00  0.00     0.035 A 
HETATM   12  C   UNL     1      20.440  51.214  49.727  1.00  0.00     0.030 A 
HETATM   13  C   UNL     1      19.093  51.588  49.646  1.00  0.00     0.010 A 
HETATM   14  C   UNL     1      18.090  50.624  49.474  1.00  0.00    -0.049 A 
HETATM   15  C   UNL     1      18.462  49.281  49.359  1.00  0.00     0.010 A 
HETATM   16  C   UNL     1      19.808  48.912  49.440  1.00  0.00     0.030 A 
BRANCH  14  17
HETATM   17  C   UNL     1      16.640  51.031  49.389  1.00  0.00     0.149 C 
BRANCH  17  18
HETATM   18  C   UNL     1      16.445  52.478  48.995  1.00  0.00     0.263 C 
HETATM   19  O   UNL     1      16.133  53.397  49.739  1.00  0.00    -0.265 OA
BRANCH  18  20
HETATM   20  O   UNL     1      16.728  52.647  47.664  1.00  0.00    -0.316 OA
BRANCH  20  21
HETATM   21  C   UNL     1      16.054  51.737  46.777  1.00  0.00     0.135 C 
HETATM   22  C   UNL     1      14.893  52.438  46.072  1.00  0.00     0.060 C 
HETATM   23  C   UNL     1      14.239  51.515  45.061  1.00  0.00     0.237 C 
HETATM   24  N   UNL     1      15.255  50.993  44.071  1.00  0.00    -0.075 N 
HETATM   25  C   UNL     1      15.648  51.999  43.021  1.00  0.00     0.269 C 
HETATM   26  C   UNL     1      16.429  50.320  44.739  1.00  0.00     0.237 C 
HETATM   27  H   UNL     1      14.772  50.249  43.548  1.00  0.00     0.279 HD
HETATM   28  C   UNL     1      17.077  51.242  45.757  1.00  0.00     0.060 C 
ENDBRANCH  20  21
ENDBRANCH  18  20
ENDBRANCH  17  18
ENDBRANCH  14  17
ENDBRANCH   8  11
ENDBRANCH   1   7
BRANCH   5  29
HETATM   29  C   UNL     1      26.157  45.992  51.186  1.00  0.00    -0.017 A 
HETATM   30  C   UNL     1      26.342  44.746  50.537  1.00  0.00     0.030 A 
HETATM   31  C   UNL     1      26.538  43.561  51.261  1.00  0.00     0.033 A 
HETATM   32  C   UNL     1      26.607  43.609  52.651  1.00  0.00     0.017 A 
HETATM   33  C   UNL     1      26.449  44.822  53.313  1.00  0.00     0.011 A 
HETATM   34  C   UNL     1      26.171  46.014  52.610  1.00  0.00    -0.020 A 
BRANCH  31  35
HETATM   35  C   UNL     1      26.573  42.223  50.610  1.00  0.00     0.256 C 
HETATM   36  O   UNL     1      25.626  41.468  50.798  1.00  0.00    -0.267 OA
HETATM   37  N   UNL     1      27.695  41.944  49.854  1.00  0.00    -0.320 N 
HETATM   38  H   UNL     1      28.482  42.582  49.913  1.00  0.00     0.169 HD
BRANCH  37  39
HETATM   39  C   UNL     1      27.917  40.780  49.079  1.00  0.00     0.076 A 
HETATM   40  C   UNL     1      27.659  40.688  47.712  1.00  0.00     0.052 A 
HETATM   41  C   UNL     1      27.932  39.490  47.063  1.00  0.00     0.118 A 
HETATM   42  N   UNL     1      28.438  38.396  47.674  1.00  0.00    -0.270 NA
HETATM   43  C   UNL     1      28.685  38.509  48.998  1.00  0.00     0.160 A 
HETATM   44  C   UNL     1      28.447  39.663  49.724  1.00  0.00     0.160 A 
HETATM   45  F   UNL     1      28.722  39.706  51.037  1.00  0.00    -0.202 F 
ENDBRANCH  37  39
ENDBRANCH  31  35
BRANCH  34  46
HETATM   46  C   UNL     1      25.911  47.278  53.412  1.00  0.00     0.306 C 
BRANCH  46  47
HETATM   47  N   UNL     1      26.924  47.540  54.436  1.00  0.00     0.082 N 
HETATM   48  H   UNL     1      26.721  48.439  54.872  1.00  0.00     0.313 HD
HETATM   49  H   UNL     1      27.832  47.638  53.986  1.00  0.00     0.313 HD
ENDBRANCH  46  47
ENDBRANCH  34  46
ENDBRANCH   5  29
TORSDOF 11
ENDMDL
MODEL 10
REMARK VINA RESULT:      -9.5      3.987     13.450
REMARK  11 active torsions:
REMARK  status: ('A' for Active; 'I' for Inactive)
REMARK    1  A    between atoms: C_6  and  O_9 
REMARK    2  A    between atoms: O_9  and  C_10 
REMARK    3  A    between atoms: C_10  and  C_12 
REMARK    4  A    between atoms: C_12  and  C_13 
REMARK    5  A    between atoms: C_16  and  N_17 
REMARK       I    between atoms: N_17  and  C_18 
REMARK    6  A    between atoms: C_18  and  C_20 
REMARK    7  A    between atoms: C_24  and  C_26 
REMARK    8  A    between atoms: C_28  and  C_34 
REMARK    9  A    between atoms: C_31  and  C_32 
REMARK   10  A    between atoms: C_32  and  N_33 
REMARK       I    between atoms: C_34  and  N_36 
REMARK   11  A    between atoms: N_36  and  C_37 
ROOT
HETATM    1  C   UNL     1      23.739  48.816  48.897  1.00  0.00     0.033 A 
HETATM    2  C   UNL     1      23.974  50.074  48.336  1.00  0.00     0.017 A 
HETATM    3  C   UNL     1      22.932  50.747  47.706  1.00  0.00     0.002 A 
HETATM    4  C   UNL     1      21.655  50.176  47.662  1.00  0.00     0.012 A 
HETATM    5  C   UNL     1      21.398  48.900  48.199  1.00  0.00    -0.024 A 
HETATM    6  C   UNL     1      22.480  48.209  48.772  1.00  0.00     0.029 A 
ENDROOT
BRANCH   1   7
HETATM    7  C   UNL     1      24.771  48.139  49.730  1.00  0.00     0.256 C 
HETATM    8  N   UNL     1      24.248  47.175  50.576  1.00  0.00    -0.323 N 
HETATM    9  H   UNL     1      23.247  47.033  50.537  1.00  0.00     0.169 HD
HETATM   10  O   UNL     1      25.949  48.415  49.553  1.00  0.00    -0.267 OA
BRANCH   8  11
HETATM   11  C   UNL     1      24.954  46.260  51.385  1.00  0.00     0.035 A 
HETATM   12  C   UNL     1      25.640  46.607  52.545  1.00  0.00     0.030 A 
HETATM   13  C   UNL     1      26.350  45.640  53.268  1.00  0.00     0.010 A 
HETATM   14  C   UNL     1      26.386  44.307  52.836  1.00  0.00    -0.049 A 
HETATM   15  C   UNL     1      25.679  43.955  51.682  1.00  0.00     0.010 A 
HETATM   16  C   UNL     1      24.971  44.924  50.965  1.00  0.00     0.030 A 
BRANCH  14  17
HETATM   17  C   UNL     1      27.154  43.268  53.616  1.00  0.00     0.149 C 
BRANCH  17  18
HETATM   18  C   UNL     1      28.158  42.510  52.778  1.00  0.00     0.263 C 
HETATM   19  O   UNL     1      29.262  42.908  52.432  1.00  0.00    -0.265 OA
BRANCH  18  20
HETATM   20  O   UNL     1      27.684  41.255  52.493  1.00  0.00    -0.316 OA
BRANCH  20  21
HETATM   21  C   UNL     1      27.735  40.884  51.105  1.00  0.00     0.135 C 
HETATM   22  C   UNL     1      28.732  39.745  50.892  1.00  0.00     0.060 C 
HETATM   23  C   UNL     1      28.720  39.280  49.447  1.00  0.00     0.237 C 
HETATM   24  N   UNL     1      27.325  38.883  49.021  1.00  0.00    -0.075 N 
HETATM   25  C   UNL     1      26.892  37.538  49.544  1.00  0.00     0.269 C 
HETATM   26  C   UNL     1      26.311  39.978  49.247  1.00  0.00     0.237 C 
HETATM   27  H   UNL     1      27.375  38.759  48.000  1.00  0.00     0.279 HD
HETATM   28  C   UNL     1      26.331  40.448  50.690  1.00  0.00     0.060 C 
ENDBRANCH  20  21
ENDBRANCH  18  20
ENDBRANCH  17  18
ENDBRANCH  14  17
ENDBRANCH   8  11
ENDBRANCH   1   7
BRANCH   5  29
HETATM   29  C   UNL     1      20.020  48.341  48.195  1.00  0.00    -0.017 A 
HETATM   30  C   UNL     1      18.922  49.233  48.125  1.00  0.00     0.030 A 
HETATM   31  C   UNL     1      17.597  48.776  48.175  1.00  0.00     0.033 A 
HETATM   32  C   UNL     1      17.346  47.408  48.241  1.00  0.00     0.017 A 
HETATM   33  C   UNL     1      18.405  46.508  48.290  1.00  0.00     0.011 A 
HETATM   34  C   UNL     1      19.745  46.949  48.322  1.00  0.00    -0.020 A 
BRANCH  31  35
HETATM   35  C   UNL     1      16.435  49.701  48.266  1.00  0.00     0.256 C 
HETATM   36  O   UNL     1      15.316  49.238  48.078  1.00  0.00    -0.267 OA
HETATM   37  N   UNL     1      16.731  51.021  48.545  1.00  0.00    -0.320 N 
HETATM   38  H   UNL     1      17.703  51.311  48.513  1.00  0.00     0.169 HD
BRANCH  37  39
HETATM   39  C   UNL     1      15.797  52.064  48.761  1.00  0.00     0.076 A 
HETATM   40  C   UNL     1      15.307  52.431  50.013  1.00  0.00     0.052 A 
HETATM   41  C   UNL     1      14.401  53.481  50.092  1.00  0.00     0.118 A 
HETATM   42  N   UNL     1      13.957  54.179  49.023  1.00  0.00    -0.270 NA
HETATM   43  C   UNL     1      14.447  53.809  47.819  1.00  0.00     0.160 A 
HETATM   44  C   UNL     1      15.354  52.778  47.647  1.00  0.00     0.160 A 
HETATM   45  F   UNL     1      15.804  52.469  46.422  1.00  0.00    -0.202 F 
ENDBRANCH  37  39
ENDBRANCH  31  35
BRANCH  34  46
HETATM   46  C   UNL     1      20.841  45.909  48.479  1.00  0.00     0.306 C 
BRANCH  46  47
HETATM   47  N   UNL     1      20.584  44.945  49.550  1.00  0.00     0.082 N 
HETATM   48  H   UNL     1      20.978  44.045  49.280  1.00  0.00     0.313 HD
HETATM   49  H   UNL     1      19.579  44.804  49.636  1.00  0.00     0.313 HD
ENDBRANCH  46  47
ENDBRANCH  34  46
ENDBRANCH   5  29
TORSDOF 11
ENDMDL
