MODEL 1
REMARK VINA RESULT:     -10.6      0.000      0.000
REMARK  5 active torsions:
REMARK  status: ('A' for Active; 'I' for Inactive)
REMARK    1  A    between atoms: C_2  and  O_5 
REMARK    2  A    between atoms: O_5  and  C_6 
REMARK    3  A    between atoms: C_10  and  C_12 
REMARK    4  A    between atoms: C_16  and  C_17 
REMARK       I    between atoms: C_17  and  N_19 
REMARK    5  A    between atoms: N_19  and  C_20 
ROOT
HETATM    1  C   UNL     1      28.788  42.661  52.434  1.00  0.00     0.061 C 
HETATM    2  C   UNL     1      29.172  41.186  52.542  1.00  0.00     0.279 C 
HETATM    3  N   UNL     1      28.464  40.589  51.404  1.00  0.00     0.085 N 
HETATM    4  C   UNL     1      27.121  41.171  51.450  1.00  0.00     0.284 C 
HETATM    5  C   UNL     1      27.321  42.597  51.966  1.00  0.00     0.116 C 
HETATM    6  H   UNL     1      28.422  39.573  51.505  1.00  0.00     0.315 HD
ENDROOT
BRANCH   5   7
HETATM    7  C   UNL     1      27.037  43.677  50.934  1.00  0.00     0.228 C 
HETATM    8  O   UNL     1      27.261  43.455  49.746  1.00  0.00    -0.273 OA
HETATM    9  N   UNL     1      26.491  44.840  51.439  1.00  0.00    -0.325 N 
HETATM   10  H   UNL     1      26.548  44.991  52.445  1.00  0.00     0.169 HD
BRANCH   9  11
HETATM   11  C   UNL     1      25.955  45.917  50.693  1.00  0.00     0.057 A 
HETATM   12  C   UNL     1      26.738  47.006  50.284  1.00  0.00     0.043 A 
HETATM   13  C   UNL     1      26.186  48.031  49.507  1.00  0.00    -0.017 A 
HETATM   14  C   UNL     1      27.011  49.151  49.046  1.00  0.00     0.029 A 
HETATM   15  C   UNL     1      24.831  47.973  49.153  1.00  0.00     0.044 A 
HETATM   16  C   UNL     1      26.455  50.110  48.298  1.00  0.00     0.092 A 
HETATM   17  N   UNL     1      25.129  50.071  47.959  1.00  0.00    -0.333 N 
HETATM   18  C   UNL     1      24.256  49.071  48.333  1.00  0.00     0.256 A 
HETATM   19  H   UNL     1      24.726  50.813  47.396  1.00  0.00     0.168 HD
HETATM   20  O   UNL     1      23.075  49.079  48.006  1.00  0.00    -0.267 OA
HETATM   21  C   UNL     1      24.035  46.896  49.548  1.00  0.00     0.044 A 
HETATM   22  C   UNL     1      24.603  45.869  50.301  1.00  0.00     0.061 A 
HETATM   23 CL   UNL     1      23.593  44.541  50.765  1.00  0.00    -0.082 Cl
ENDBRANCH   9  11
ENDBRANCH   5   7
BRANCH   1  24
HETATM   24  C   UNL     1      29.124  43.461  53.679  1.00  0.00    -0.049 A 
HETATM   25  C   UNL     1      30.328  43.174  54.345  1.00  0.00     0.007 A 
HETATM   26  C   UNL     1      30.709  43.886  55.481  1.00  0.00     0.003 A 
HETATM   27  C   UNL     1      29.889  44.900  55.969  1.00  0.00     0.037 A 
HETATM   28  C   UNL     1      28.686  45.208  55.331  1.00  0.00     0.078 A 
HETATM   29  C   UNL     1      28.303  44.476  54.201  1.00  0.00     0.044 A 
BRANCH  28  30
HETATM   30  O   UNL     1      27.987  46.227  55.912  1.00  0.00    -0.255 OA
BRANCH  30  31
HETATM   31  C   UNL     1      27.579  47.306  55.089  1.00  0.00     0.530 C 
HETATM   32  F   UNL     1      28.632  47.871  54.461  1.00  0.00    -0.144 F 
HETATM   33  F   UNL     1      26.998  48.248  55.864  1.00  0.00    -0.144 F 
HETATM   34  F   UNL     1      26.672  46.901  54.173  1.00  0.00    -0.144 F 
ENDBRANCH  30  31
ENDBRANCH  28  30
ENDBRANCH   1  24
TORSDOF 5
ENDMDL
MODEL 2
REMARK VINA RESULT:     -10.6      3.699      7.928
REMARK  5 active torsions:
REMARK  status: ('A' for Active; 'I' for Inactive)
REMARK    1  A    between atoms: C_2  and  O_5 
REMARK    2  A    between atoms: O_5  and  C_6 
REMARK    3  A    between atoms: C_10  and  C_12 
REMARK    4  A    between atoms: C_16  and  C_17 
REMARK       I    between atoms: C_17  and  N_19 
REMARK    5  A    between atoms: N_19  and  C_20 
ROOT
HETATM    1  C   UNL     1      24.955  44.899  51.084  1.00  0.00     0.061 C 
HETATM    2  C   UNL     1      23.939  44.091  50.279  1.00  0.00     0.279 C 
HETATM    3  N   UNL     1      24.066  42.750  50.862  1.00  0.00     0.085 N 
HETATM    4  C   UNL     1      25.509  42.522  50.971  1.00  0.00     0.284 C 
HETATM    5  C   UNL     1      26.107  43.895  51.285  1.00  0.00     0.116 C 
HETATM    6  H   UNL     1      23.635  42.055  50.250  1.00  0.00     0.315 HD
ENDROOT
BRANCH   5   7
HETATM    7  C   UNL     1      26.688  44.013  52.685  1.00  0.00     0.228 C 
HETATM    8  O   UNL     1      25.964  43.825  53.660  1.00  0.00    -0.273 OA
HETATM    9  N   UNL     1      28.039  44.289  52.737  1.00  0.00    -0.325 N 
HETATM   10  H   UNL     1      28.485  44.630  51.887  1.00  0.00     0.169 HD
BRANCH   9  11
HETATM   11  C   UNL     1      28.866  44.260  53.886  1.00  0.00     0.057 A 
HETATM   12  C   UNL     1      28.779  45.230  54.894  1.00  0.00     0.043 A 
HETATM   13  C   UNL     1      29.578  45.145  56.039  1.00  0.00    -0.017 A 
HETATM   14  C   UNL     1      29.462  46.135  57.112  1.00  0.00     0.029 A 
HETATM   15  C   UNL     1      30.489  44.087  56.166  1.00  0.00     0.044 A 
HETATM   16  C   UNL     1      30.235  46.021  58.198  1.00  0.00     0.092 A 
HETATM   17  N   UNL     1      31.139  45.000  58.324  1.00  0.00    -0.333 N 
HETATM   18  C   UNL     1      31.337  44.011  57.383  1.00  0.00     0.256 A 
HETATM   19  H   UNL     1      31.720  44.935  59.153  1.00  0.00     0.168 HD
HETATM   20  O   UNL     1      32.159  43.117  57.540  1.00  0.00    -0.267 OA
HETATM   21  C   UNL     1      30.590  43.109  55.174  1.00  0.00     0.044 A 
HETATM   22  C   UNL     1      29.770  43.192  54.049  1.00  0.00     0.061 A 
HETATM   23 CL   UNL     1      29.910  41.958  52.843  1.00  0.00    -0.082 Cl
ENDBRANCH   9  11
ENDBRANCH   5   7
BRANCH   1  24
HETATM   24  C   UNL     1      25.265  46.253  50.472  1.00  0.00    -0.049 A 
HETATM   25  C   UNL     1      26.573  46.490  50.017  1.00  0.00     0.007 A 
HETATM   26  C   UNL     1      26.919  47.703  49.424  1.00  0.00     0.003 A 
HETATM   27  C   UNL     1      25.959  48.700  49.276  1.00  0.00     0.037 A 
HETATM   28  C   UNL     1      24.652  48.496  49.721  1.00  0.00     0.078 A 
HETATM   29  C   UNL     1      24.316  47.281  50.331  1.00  0.00     0.044 A 
BRANCH  28  30
HETATM   30  O   UNL     1      23.814  49.554  49.507  1.00  0.00    -0.255 OA
BRANCH  30  31
HETATM   31  C   UNL     1      23.193  49.662  48.237  1.00  0.00     0.530 C 
HETATM   32  F   UNL     1      22.849  48.450  47.753  1.00  0.00    -0.144 F 
HETATM   33  F   UNL     1      24.066  50.227  47.374  1.00  0.00    -0.144 F 
HETATM   34  F   UNL     1      22.097  50.451  48.300  1.00  0.00    -0.144 F 
ENDBRANCH  30  31
ENDBRANCH  28  30
ENDBRANCH   1  24
TORSDOF 5
ENDMDL
MODEL 3
REMARK VINA RESULT:     -10.4      3.401      7.828
REMARK  5 active torsions:
REMARK  status: ('A' for Active; 'I' for Inactive)
REMARK    1  A    between atoms: C_2  and  O_5 
REMARK    2  A    between atoms: O_5  and  C_6 
REMARK    3  A    between atoms: C_10  and  C_12 
REMARK    4  A    between atoms: C_16  and  C_17 
REMARK       I    between atoms: C_17  and  N_19 
REMARK    5  A    between atoms: N_19  and  C_20 
ROOT
HETATM    1  C   UNL     1      24.266  45.341  50.700  1.00  0.00     0.061 C 
HETATM    2  C   UNL     1      23.305  44.511  49.850  1.00  0.00     0.279 C 
HETATM    3  N   UNL     1      23.387  43.188  50.479  1.00  0.00     0.085 N 
HETATM    4  C   UNL     1      24.819  42.962  50.693  1.00  0.00     0.284 C 
HETATM    5  C   UNL     1      25.398  44.342  51.009  1.00  0.00     0.116 C 
HETATM    6  H   UNL     1      22.997  42.475  49.859  1.00  0.00     0.315 HD
ENDROOT
BRANCH   5   7
HETATM    7  C   UNL     1      25.881  44.500  52.442  1.00  0.00     0.228 C 
HETATM    8  O   UNL     1      25.148  44.164  53.369  1.00  0.00    -0.273 OA
HETATM    9  N   UNL     1      27.166  44.985  52.576  1.00  0.00    -0.325 N 
HETATM   10  H   UNL     1      27.594  45.424  51.761  1.00  0.00     0.169 HD
BRANCH   9  11
HETATM   11  C   UNL     1      27.928  45.046  53.768  1.00  0.00     0.057 A 
HETATM   12  C   UNL     1      28.881  44.072  54.097  1.00  0.00     0.043 A 
HETATM   13  C   UNL     1      29.649  44.188  55.260  1.00  0.00    -0.017 A 
HETATM   14  C   UNL     1      30.673  43.193  55.587  1.00  0.00     0.029 A 
HETATM   15  C   UNL     1      29.447  45.283  56.112  1.00  0.00     0.044 A 
HETATM   16  C   UNL     1      31.397  43.337  56.703  1.00  0.00     0.092 A 
HETATM   17  N   UNL     1      31.196  44.395  57.549  1.00  0.00    -0.333 N 
HETATM   18  C   UNL     1      30.265  45.392  57.347  1.00  0.00     0.256 A 
HETATM   19  H   UNL     1      31.752  44.482  58.394  1.00  0.00     0.168 HD
HETATM   20  O   UNL     1      30.121  46.319  58.135  1.00  0.00    -0.267 OA
HETATM   21  C   UNL     1      28.504  46.266  55.802  1.00  0.00     0.044 A 
HETATM   22  C   UNL     1      27.762  46.151  54.626  1.00  0.00     0.061 A 
HETATM   23 CL   UNL     1      26.610  47.391  54.263  1.00  0.00    -0.082 Cl
ENDBRANCH   9  11
ENDBRANCH   5   7
BRANCH   1  24
HETATM   24  C   UNL     1      24.620  46.677  50.073  1.00  0.00    -0.049 A 
HETATM   25  C   UNL     1      25.960  47.097  50.124  1.00  0.00     0.007 A 
HETATM   26  C   UNL     1      26.358  48.302  49.548  1.00  0.00     0.003 A 
HETATM   27  C   UNL     1      25.420  49.106  48.907  1.00  0.00     0.037 A 
HETATM   28  C   UNL     1      24.081  48.718  48.841  1.00  0.00     0.078 A 
HETATM   29  C   UNL     1      23.686  47.514  49.438  1.00  0.00     0.044 A 
BRANCH  28  30
HETATM   30  O   UNL     1      23.273  49.598  48.179  1.00  0.00    -0.255 OA
BRANCH  30  31
HETATM   31  C   UNL     1      22.570  50.560  48.946  1.00  0.00     0.530 C 
HETATM   32  F   UNL     1      23.417  51.394  49.585  1.00  0.00    -0.144 F 
HETATM   33  F   UNL     1      21.832  49.916  49.878  1.00  0.00    -0.144 F 
HETATM   34  F   UNL     1      21.729  51.278  48.170  1.00  0.00    -0.144 F 
ENDBRANCH  30  31
ENDBRANCH  28  30
ENDBRANCH   1  24
TORSDOF 5
ENDMDL
MODEL 4
REMARK VINA RESULT:     -10.4      4.420      8.329
REMARK  5 active torsions:
REMARK  status: ('A' for Active; 'I' for Inactive)
REMARK    1  A    between atoms: C_2  and  O_5 
REMARK    2  A    between atoms: O_5  and  C_6 
REMARK    3  A    between atoms: C_10  and  C_12 
REMARK    4  A    between atoms: C_16  and  C_17 
REMARK       I    between atoms: C_17  and  N_19 
REMARK    5  A    between atoms: N_19  and  C_20 
ROOT
HETATM    1  C   UNL     1      26.838  43.732  50.655  1.00  0.00     0.061 C 
HETATM    2  C   UNL     1      26.495  44.681  49.507  1.00  0.00     0.279 C 
HETATM    3  N   UNL     1      26.209  45.937  50.210  1.00  0.00     0.085 N 
HETATM    4  C   UNL     1      25.360  45.552  51.340  1.00  0.00     0.284 C 
HETATM    5  C   UNL     1      25.863  44.171  51.764  1.00  0.00     0.116 C 
HETATM    6  H   UNL     1      25.717  46.585  49.592  1.00  0.00     0.315 HD
ENDROOT
BRANCH   5   7
HETATM    7  C   UNL     1      26.545  44.149  53.123  1.00  0.00     0.228 C 
HETATM    8  O   UNL     1      25.923  43.761  54.108  1.00  0.00    -0.273 OA
HETATM    9  N   UNL     1      27.869  44.542  53.119  1.00  0.00    -0.325 N 
HETATM   10  H   UNL     1      28.213  45.038  52.298  1.00  0.00     0.169 HD
BRANCH   9  11
HETATM   11  C   UNL     1      28.787  44.433  54.191  1.00  0.00     0.057 A 
HETATM   12  C   UNL     1      28.804  45.343  55.257  1.00  0.00     0.043 A 
HETATM   13  C   UNL     1      29.694  45.179  56.323  1.00  0.00    -0.017 A 
HETATM   14  C   UNL     1      29.688  46.106  57.457  1.00  0.00     0.029 A 
HETATM   15  C   UNL     1      30.590  44.101  56.312  1.00  0.00     0.044 A 
HETATM   16  C   UNL     1      30.546  45.917  58.465  1.00  0.00     0.092 A 
HETATM   17  N   UNL     1      31.436  44.875  58.457  1.00  0.00    -0.333 N 
HETATM   18  C   UNL     1      31.534  43.941  57.448  1.00  0.00     0.256 A 
HETATM   19  H   UNL     1      32.083  44.754  59.229  1.00  0.00     0.168 HD
HETATM   20  O   UNL     1      32.349  43.026  57.484  1.00  0.00    -0.267 OA
HETATM   21  C   UNL     1      30.589  43.181  55.261  1.00  0.00     0.044 A 
HETATM   22  C   UNL     1      29.679  43.343  54.216  1.00  0.00     0.061 A 
HETATM   23 CL   UNL     1      29.694  42.179  52.934  1.00  0.00    -0.082 Cl
ENDBRANCH   9  11
ENDBRANCH   5   7
BRANCH   1  24
HETATM   24  C   UNL     1      26.863  42.272  50.239  1.00  0.00    -0.049 A 
HETATM   25  C   UNL     1      25.634  41.621  50.036  1.00  0.00     0.007 A 
HETATM   26  C   UNL     1      25.585  40.288  49.632  1.00  0.00     0.003 A 
HETATM   27  C   UNL     1      26.768  39.585  49.421  1.00  0.00     0.037 A 
HETATM   28  C   UNL     1      28.004  40.203  49.616  1.00  0.00     0.078 A 
HETATM   29  C   UNL     1      28.045  41.537  50.040  1.00  0.00     0.044 A 
BRANCH  28  30
HETATM   30  O   UNL     1      29.080  39.398  49.368  1.00  0.00    -0.255 OA
BRANCH  30  31
HETATM   31  C   UNL     1      29.478  38.491  50.381  1.00  0.00     0.530 C 
HETATM   32  F   UNL     1      29.423  39.062  51.603  1.00  0.00    -0.144 F 
HETATM   33  F   UNL     1      30.757  38.118  50.151  1.00  0.00    -0.144 F 
HETATM   34  F   UNL     1      28.709  37.380  50.366  1.00  0.00    -0.144 F 
ENDBRANCH  30  31
ENDBRANCH  28  30
ENDBRANCH   1  24
TORSDOF 5
ENDMDL
MODEL 5
REMARK VINA RESULT:     -10.2      2.212      2.692
REMARK  5 active torsions:
REMARK  status: ('A' for Active; 'I' for Inactive)
REMARK    1  A    between atoms: C_2  and  O_5 
REMARK    2  A    between atoms: O_5  and  C_6 
REMARK    3  A    between atoms: C_10  and  C_12 
REMARK    4  A    between atoms: C_16  and  C_17 
REMARK       I    between atoms: C_17  and  N_19 
REMARK    5  A    between atoms: N_19  and  C_20 
ROOT
HETATM    1  C   UNL     1      28.671  42.744  52.178  1.00  0.00     0.061 C 
HETATM    2  C   UNL     1      29.114  41.283  52.262  1.00  0.00     0.279 C 
HETATM    3  N   UNL     1      28.438  40.680  51.108  1.00  0.00     0.085 N 
HETATM    4  C   UNL     1      27.072  41.207  51.153  1.00  0.00     0.284 C 
HETATM    5  C   UNL     1      27.211  42.630  51.697  1.00  0.00     0.116 C 
HETATM    6  H   UNL     1      28.436  39.661  51.190  1.00  0.00     0.315 HD
ENDROOT
BRANCH   5   7
HETATM    7  C   UNL     1      26.891  43.716  50.682  1.00  0.00     0.228 C 
HETATM    8  O   UNL     1      27.051  43.493  49.485  1.00  0.00    -0.273 OA
HETATM    9  N   UNL     1      26.388  44.885  51.216  1.00  0.00    -0.325 N 
HETATM   10  H   UNL     1      26.497  45.033  52.218  1.00  0.00     0.169 HD
BRANCH   9  11
HETATM   11  C   UNL     1      25.831  45.972  50.500  1.00  0.00     0.057 A 
HETATM   12  C   UNL     1      26.595  47.079  50.106  1.00  0.00     0.043 A 
HETATM   13  C   UNL     1      26.023  48.114  49.359  1.00  0.00    -0.017 A 
HETATM   14  C   UNL     1      26.829  49.253  48.913  1.00  0.00     0.029 A 
HETATM   15  C   UNL     1      24.665  48.047  49.018  1.00  0.00     0.044 A 
HETATM   16  C   UNL     1      26.253  50.222  48.192  1.00  0.00     0.092 A 
HETATM   17  N   UNL     1      24.924  50.173  47.867  1.00  0.00    -0.333 N 
HETATM   18  C   UNL     1      24.068  49.155  48.229  1.00  0.00     0.256 A 
HETATM   19  H   UNL     1      24.505  50.922  47.325  1.00  0.00     0.168 HD
HETATM   20  O   UNL     1      22.883  49.156  47.915  1.00  0.00    -0.267 OA
HETATM   21  C   UNL     1      23.886  46.952  49.398  1.00  0.00     0.044 A 
HETATM   22  C   UNL     1      24.475  45.915  50.122  1.00  0.00     0.061 A 
HETATM   23 CL   UNL     1      23.486  44.566  50.568  1.00  0.00    -0.082 Cl
ENDBRANCH   9  11
ENDBRANCH   5   7
BRANCH   1  24
HETATM   24  C   UNL     1      28.966  43.533  53.440  1.00  0.00    -0.049 A 
HETATM   25  C   UNL     1      27.951  44.356  53.957  1.00  0.00     0.007 A 
HETATM   26  C   UNL     1      28.147  45.091  55.126  1.00  0.00     0.003 A 
HETATM   27  C   UNL     1      29.364  45.012  55.796  1.00  0.00     0.037 A 
HETATM   28  C   UNL     1      30.392  44.206  55.307  1.00  0.00     0.078 A 
HETATM   29  C   UNL     1      30.194  43.484  54.123  1.00  0.00     0.044 A 
BRANCH  28  30
HETATM   30  O   UNL     1      31.527  44.218  56.067  1.00  0.00    -0.255 OA
BRANCH  30  31
HETATM   31  C   UNL     1      31.569  43.381  57.210  1.00  0.00     0.530 C 
HETATM   32  F   UNL     1      32.781  42.805  57.355  1.00  0.00    -0.144 F 
HETATM   33  F   UNL     1      30.653  42.398  57.061  1.00  0.00    -0.144 F 
HETATM   34  F   UNL     1      31.261  44.073  58.329  1.00  0.00    -0.144 F 
ENDBRANCH  30  31
ENDBRANCH  28  30
ENDBRANCH   1  24
TORSDOF 5
ENDMDL
MODEL 6
REMARK VINA RESULT:      -9.9      4.651      8.428
REMARK  5 active torsions:
REMARK  status: ('A' for Active; 'I' for Inactive)
REMARK    1  A    between atoms: C_2  and  O_5 
REMARK    2  A    between atoms: O_5  and  C_6 
REMARK    3  A    between atoms: C_10  and  C_12 
REMARK    4  A    between atoms: C_16  and  C_17 
REMARK       I    between atoms: C_17  and  N_19 
REMARK    5  A    between atoms: N_19  and  C_20 
ROOT
HETATM    1  C   UNL     1      26.531  43.981  50.704  1.00  0.00     0.061 C 
HETATM    2  C   UNL     1      26.037  44.914  49.599  1.00  0.00     0.279 C 
HETATM    3  N   UNL     1      25.645  46.114  50.348  1.00  0.00     0.085 N 
HETATM    4  C   UNL     1      24.892  45.609  51.499  1.00  0.00     0.284 C 
HETATM    5  C   UNL     1      25.561  44.283  51.863  1.00  0.00     0.116 C 
HETATM    6  H   UNL     1      25.059  46.718  49.770  1.00  0.00     0.315 HD
ENDROOT
BRANCH   5   7
HETATM    7  C   UNL     1      26.299  44.304  53.193  1.00  0.00     0.228 C 
HETATM    8  O   UNL     1      25.690  44.050  54.229  1.00  0.00    -0.273 OA
HETATM    9  N   UNL     1      27.650  44.574  53.108  1.00  0.00    -0.325 N 
HETATM   10  H   UNL     1      27.999  44.973  52.237  1.00  0.00     0.169 HD
BRANCH   9  11
HETATM   11  C   UNL     1      28.602  44.465  54.150  1.00  0.00     0.057 A 
HETATM   12  C   UNL     1      28.625  45.350  55.237  1.00  0.00     0.043 A 
HETATM   13  C   UNL     1      29.551  45.185  56.273  1.00  0.00    -0.017 A 
HETATM   14  C   UNL     1      29.552  46.084  57.429  1.00  0.00     0.029 A 
HETATM   15  C   UNL     1      30.476  44.133  56.209  1.00  0.00     0.044 A 
HETATM   16  C   UNL     1      30.445  45.894  58.408  1.00  0.00     0.092 A 
HETATM   17  N   UNL     1      31.362  44.879  58.347  1.00  0.00    -0.333 N 
HETATM   18  C   UNL     1      31.457  43.973  57.313  1.00  0.00     0.256 A 
HETATM   19  H   UNL     1      32.035  44.757  59.097  1.00  0.00     0.168 HD
HETATM   20  O   UNL     1      32.297  43.081  57.302  1.00  0.00    -0.267 OA
HETATM   21  C   UNL     1      30.469  43.240  55.136  1.00  0.00     0.044 A 
HETATM   22  C   UNL     1      29.525  43.401  54.122  1.00  0.00     0.061 A 
HETATM   23 CL   UNL     1      29.533  42.270  52.811  1.00  0.00    -0.082 Cl
ENDBRANCH   9  11
ENDBRANCH   5   7
BRANCH   1  24
HETATM   24  C   UNL     1      26.698  42.544  50.246  1.00  0.00    -0.049 A 
HETATM   25  C   UNL     1      25.965  41.548  50.913  1.00  0.00     0.007 A 
HETATM   26  C   UNL     1      26.055  40.211  50.528  1.00  0.00     0.003 A 
HETATM   27  C   UNL     1      26.879  39.850  49.465  1.00  0.00     0.037 A 
HETATM   28  C   UNL     1      27.620  40.816  48.784  1.00  0.00     0.078 A 
HETATM   29  C   UNL     1      27.539  42.155  49.188  1.00  0.00     0.044 A 
BRANCH  28  30
HETATM   30  O   UNL     1      28.380  40.324  47.761  1.00  0.00    -0.255 OA
BRANCH  30  31
HETATM   31  C   UNL     1      27.866  40.427  46.444  1.00  0.00     0.530 C 
HETATM   32  F   UNL     1      27.836  39.225  45.831  1.00  0.00    -0.144 F 
HETATM   33  F   UNL     1      28.670  41.244  45.728  1.00  0.00    -0.144 F 
HETATM   34  F   UNL     1      26.625  40.963  46.449  1.00  0.00    -0.144 F 
ENDBRANCH  30  31
ENDBRANCH  28  30
ENDBRANCH   1  24
TORSDOF 5
ENDMDL
MODEL 7
REMARK VINA RESULT:      -9.8      2.667      3.512
REMARK  5 active torsions:
REMARK  status: ('A' for Active; 'I' for Inactive)
REMARK    1  A    between atoms: C_2  and  O_5 
REMARK    2  A    between atoms: O_5  and  C_6 
REMARK    3  A    between atoms: C_10  and  C_12 
REMARK    4  A    between atoms: C_16  and  C_17 
REMARK       I    between atoms: C_17  and  N_19 
REMARK    5  A    between atoms: N_19  and  C_20 
ROOT
HETATM    1  C   UNL     1      28.348  42.889  52.121  1.00  0.00     0.061 C 
HETATM    2  C   UNL     1      28.845  41.444  52.141  1.00  0.00     0.279 C 
HETATM    3  N   UNL     1      28.106  40.839  51.027  1.00  0.00     0.085 N 
HETATM    4  C   UNL     1      26.730  41.316  51.184  1.00  0.00     0.284 C 
HETATM    5  C   UNL     1      26.862  42.733  51.747  1.00  0.00     0.116 C 
HETATM    6  H   UNL     1      28.145  39.820  51.087  1.00  0.00     0.315 HD
ENDROOT
BRANCH   5   7
HETATM    7  C   UNL     1      26.430  43.826  50.782  1.00  0.00     0.228 C 
HETATM    8  O   UNL     1      27.060  44.000  49.741  1.00  0.00    -0.273 OA
HETATM    9  N   UNL     1      25.300  44.524  51.156  1.00  0.00    -0.325 N 
HETATM   10  H   UNL     1      24.991  44.441  52.123  1.00  0.00     0.169 HD
BRANCH   9  11
HETATM   11  C   UNL     1      24.575  45.448  50.365  1.00  0.00     0.057 A 
HETATM   12  C   UNL     1      23.550  45.047  49.497  1.00  0.00     0.043 A 
HETATM   13  C   UNL     1      22.823  45.991  48.765  1.00  0.00    -0.017 A 
HETATM   14  C   UNL     1      21.726  45.578  47.886  1.00  0.00     0.029 A 
HETATM   15  C   UNL     1      23.138  47.351  48.890  1.00  0.00     0.044 A 
HETATM   16  C   UNL     1      21.045  46.507  47.206  1.00  0.00     0.092 A 
HETATM   17  N   UNL     1      21.355  47.837  47.310  1.00  0.00    -0.333 N 
HETATM   18  C   UNL     1      22.363  48.344  48.103  1.00  0.00     0.256 A 
HETATM   19  H   UNL     1      20.829  48.524  46.780  1.00  0.00     0.168 HD
HETATM   20  O   UNL     1      22.604  49.544  48.163  1.00  0.00    -0.267 OA
HETATM   21  C   UNL     1      24.154  47.773  49.752  1.00  0.00     0.044 A 
HETATM   22  C   UNL     1      24.855  46.823  50.495  1.00  0.00     0.061 A 
HETATM   23 CL   UNL     1      26.100  47.377  51.563  1.00  0.00    -0.082 Cl
ENDBRANCH   9  11
ENDBRANCH   5   7
BRANCH   1  24
HETATM   24  C   UNL     1      28.709  43.665  53.374  1.00  0.00    -0.049 A 
HETATM   25  C   UNL     1      27.740  44.521  53.924  1.00  0.00     0.007 A 
HETATM   26  C   UNL     1      27.998  45.245  55.087  1.00  0.00     0.003 A 
HETATM   27  C   UNL     1      29.232  45.122  55.720  1.00  0.00     0.037 A 
HETATM   28  C   UNL     1      30.215  44.281  55.197  1.00  0.00     0.078 A 
HETATM   29  C   UNL     1      29.955  43.571  54.019  1.00  0.00     0.044 A 
BRANCH  28  30
HETATM   30  O   UNL     1      31.373  44.252  55.923  1.00  0.00    -0.255 OA
BRANCH  30  31
HETATM   31  C   UNL     1      31.432  43.387  57.043  1.00  0.00     0.530 C 
HETATM   32  F   UNL     1      32.676  42.895  57.221  1.00  0.00    -0.144 F 
HETATM   33  F   UNL     1      30.596  42.346  56.832  1.00  0.00    -0.144 F 
HETATM   34  F   UNL     1      31.032  44.022  58.167  1.00  0.00    -0.144 F 
ENDBRANCH  30  31
ENDBRANCH  28  30
ENDBRANCH   1  24
TORSDOF 5
ENDMDL
MODEL 8
REMARK VINA RESULT:      -9.8      4.738      7.875
REMARK  5 active torsions:
REMARK  status: ('A' for Active; 'I' for Inactive)
REMARK    1  A    between atoms: C_2  and  O_5 
REMARK    2  A    between atoms: O_5  and  C_6 
REMARK    3  A    between atoms: C_10  and  C_12 
REMARK    4  A    between atoms: C_16  and  C_17 
REMARK       I    between atoms: C_17  and  N_19 
REMARK    5  A    between atoms: N_19  and  C_20 
ROOT
HETATM    1  C   UNL     1      26.395  41.385  48.349  1.00  0.00     0.061 C 
HETATM    2  C   UNL     1      25.236  41.484  47.358  1.00  0.00     0.279 C 
HETATM    3  N   UNL     1      24.482  42.635  47.866  1.00  0.00     0.085 N 
HETATM    4  C   UNL     1      24.407  42.428  49.314  1.00  0.00     0.284 C 
HETATM    5  C   UNL     1      25.729  41.756  49.689  1.00  0.00     0.116 C 
HETATM    6  H   UNL     1      23.546  42.657  47.454  1.00  0.00     0.315 HD
ENDROOT
BRANCH   5   7
HETATM    7  C   UNL     1      26.653  42.627  50.526  1.00  0.00     0.228 C 
HETATM    8  O   UNL     1      27.299  43.521  49.985  1.00  0.00    -0.273 OA
HETATM    9  N   UNL     1      26.649  42.352  51.879  1.00  0.00    -0.325 N 
HETATM   10  H   UNL     1      26.246  41.466  52.180  1.00  0.00     0.169 HD
BRANCH   9  11
HETATM   11  C   UNL     1      27.255  43.122  52.901  1.00  0.00     0.057 A 
HETATM   12  C   UNL     1      28.516  42.808  53.426  1.00  0.00     0.043 A 
HETATM   13  C   UNL     1      29.105  43.618  54.403  1.00  0.00    -0.017 A 
HETATM   14  C   UNL     1      30.439  43.314  54.925  1.00  0.00     0.029 A 
HETATM   15  C   UNL     1      28.415  44.744  54.872  1.00  0.00     0.044 A 
HETATM   16  C   UNL     1      30.979  44.113  55.853  1.00  0.00     0.092 A 
HETATM   17  N   UNL     1      30.306  45.207  56.328  1.00  0.00    -0.333 N 
HETATM   18  C   UNL     1      29.049  45.593  55.913  1.00  0.00     0.256 A 
HETATM   19  H   UNL     1      30.731  45.797  57.037  1.00  0.00     0.168 HD
HETATM   20  O   UNL     1      28.485  46.581  56.370  1.00  0.00    -0.267 OA
HETATM   21  C   UNL     1      27.158  45.076  54.360  1.00  0.00     0.044 A 
HETATM   22  C   UNL     1      26.592  44.274  53.369  1.00  0.00     0.061 A 
HETATM   23 CL   UNL     1      25.039  44.719  52.747  1.00  0.00    -0.082 Cl
ENDBRANCH   9  11
ENDBRANCH   5   7
BRANCH   1  24
HETATM   24  C   UNL     1      27.158  40.077  48.250  1.00  0.00    -0.049 A 
HETATM   25  C   UNL     1      27.486  39.597  46.970  1.00  0.00     0.007 A 
HETATM   26  C   UNL     1      28.206  38.415  46.809  1.00  0.00     0.003 A 
HETATM   27  C   UNL     1      28.611  37.693  47.928  1.00  0.00     0.037 A 
HETATM   28  C   UNL     1      28.299  38.141  49.212  1.00  0.00     0.078 A 
HETATM   29  C   UNL     1      27.560  39.321  49.365  1.00  0.00     0.044 A 
BRANCH  28  30
HETATM   30  O   UNL     1      28.764  37.340  50.216  1.00  0.00    -0.255 OA
BRANCH  30  31
HETATM   31  C   UNL     1      29.889  37.785  50.953  1.00  0.00     0.530 C 
HETATM   32  F   UNL     1      30.939  38.039  50.143  1.00  0.00    -0.144 F 
HETATM   33  F   UNL     1      30.254  36.812  51.818  1.00  0.00    -0.144 F 
HETATM   34  F   UNL     1      29.592  38.891  51.669  1.00  0.00    -0.144 F 
ENDBRANCH  30  31
ENDBRANCH  28  30
ENDBRANCH   1  24
TORSDOF 5
ENDMDL
MODEL 9
REMARK VINA RESULT:      -9.7      4.570      8.091
REMARK  5 active torsions:
REMARK  status: ('A' for Active; 'I' for Inactive)
REMARK    1  A    between atoms: C_2  and  O_5 
REMARK    2  A    between atoms: O_5  and  C_6 
REMARK    3  A    between atoms: C_10  and  C_12 
REMARK    4  A    between atoms: C_16  and  C_17 
REMARK       I    between atoms: C_17  and  N_19 
REMARK    5  A    between atoms: N_19  and  C_20 
ROOT
HETATM    1  C   UNL     1      26.339  43.850  50.632  1.00  0.00     0.061 C 
HETATM    2  C   UNL     1      25.990  44.652  49.380  1.00  0.00     0.279 C 
HETATM    3  N   UNL     1      25.547  45.935  49.938  1.00  0.00     0.085 N 
HETATM    4  C   UNL     1      24.662  45.577  51.049  1.00  0.00     0.284 C 
HETATM    5  C   UNL     1      25.257  44.295  51.635  1.00  0.00     0.116 C 
HETATM    6  H   UNL     1      25.042  46.474  49.232  1.00  0.00     0.315 HD
ENDROOT
BRANCH   5   7
HETATM    7  C   UNL     1      25.846  44.463  53.026  1.00  0.00     0.228 C 
HETATM    8  O   UNL     1      25.193  44.119  54.008  1.00  0.00    -0.273 OA
HETATM    9  N   UNL     1      27.131  44.967  53.060  1.00  0.00    -0.325 N 
HETATM   10  H   UNL     1      27.488  45.410  52.215  1.00  0.00     0.169 HD
BRANCH   9  11
HETATM   11  C   UNL     1      27.981  45.042  54.190  1.00  0.00     0.057 A 
HETATM   12  C   UNL     1      28.936  44.055  54.474  1.00  0.00     0.043 A 
HETATM   13  C   UNL     1      29.792  44.184  55.573  1.00  0.00    -0.017 A 
HETATM   14  C   UNL     1      30.817  43.175  55.850  1.00  0.00     0.029 A 
HETATM   15  C   UNL     1      29.677  45.305  56.407  1.00  0.00     0.044 A 
HETATM   16  C   UNL     1      31.625  43.332  56.904  1.00  0.00     0.092 A 
HETATM   17  N   UNL     1      31.510  44.415  57.734  1.00  0.00    -0.333 N 
HETATM   18  C   UNL     1      30.588  45.427  57.574  1.00  0.00     0.256 A 
HETATM   19  H   UNL     1      32.130  44.512  58.532  1.00  0.00     0.168 HD
HETATM   20  O   UNL     1      30.522  46.378  58.345  1.00  0.00    -0.267 OA
HETATM   21  C   UNL     1      28.734  46.300  56.141  1.00  0.00     0.044 A 
HETATM   22  C   UNL     1      27.903  46.171  55.028  1.00  0.00     0.061 A 
HETATM   23 CL   UNL     1      26.753  47.428  54.718  1.00  0.00    -0.082 Cl
ENDBRANCH   9  11
ENDBRANCH   5   7
BRANCH   1  24
HETATM   24  C   UNL     1      26.521  42.367  50.363  1.00  0.00    -0.049 A 
HETATM   25  C   UNL     1      25.547  41.710  49.593  1.00  0.00     0.007 A 
HETATM   26  C   UNL     1      25.665  40.355  49.289  1.00  0.00     0.003 A 
HETATM   27  C   UNL     1      26.763  39.635  49.752  1.00  0.00     0.037 A 
HETATM   28  C   UNL     1      27.746  40.258  50.521  1.00  0.00     0.078 A 
HETATM   29  C   UNL     1      27.612  41.616  50.837  1.00  0.00     0.044 A 
BRANCH  28  30
HETATM   30  O   UNL     1      28.768  39.435  50.901  1.00  0.00    -0.255 OA
BRANCH  30  31
HETATM   31  C   UNL     1      29.372  38.626  49.907  1.00  0.00     0.530 C 
HETATM   32  F   UNL     1      29.504  39.293  48.741  1.00  0.00    -0.144 F 
HETATM   33  F   UNL     1      28.585  37.549  49.687  1.00  0.00    -0.144 F 
HETATM   34  F   UNL     1      30.582  38.182  50.313  1.00  0.00    -0.144 F 
ENDBRANCH  30  31
ENDBRANCH  28  30
ENDBRANCH   1  24
TORSDOF 5
ENDMDL
MODEL 10
REMARK VINA RESULT:      -9.6      1.746      2.381
REMARK  5 active torsions:
REMARK  status: ('A' for Active; 'I' for Inactive)
REMARK    1  A    between atoms: C_2  and  O_5 
REMARK    2  A    between atoms: O_5  and  C_6 
REMARK    3  A    between atoms: C_10  and  C_12 
REMARK    4  A    between atoms: C_16  and  C_17 
REMARK       I    between atoms: C_17  and  N_19 
REMARK    5  A    between atoms: N_19  and  C_20 
ROOT
HETATM    1  C   UNL     1      28.132  42.295  51.585  1.00  0.00     0.061 C 
HETATM    2  C   UNL     1      28.395  40.799  51.414  1.00  0.00     0.279 C 
HETATM    3  N   UNL     1      27.489  40.441  50.317  1.00  0.00     0.085 N 
HETATM    4  C   UNL     1      26.221  41.097  50.646  1.00  0.00     0.284 C 
HETATM    5  C   UNL     1      26.615  42.405  51.334  1.00  0.00     0.116 C 
HETATM    6  H   UNL     1      27.372  39.428  50.270  1.00  0.00     0.315 HD
ENDROOT
BRANCH   5   7
HETATM    7  C   UNL     1      26.291  43.653  50.528  1.00  0.00     0.228 C 
HETATM    8  O   UNL     1      26.894  43.871  49.480  1.00  0.00    -0.273 OA
HETATM    9  N   UNL     1      25.279  44.436  51.044  1.00  0.00    -0.325 N 
HETATM   10  H   UNL     1      25.003  44.275  52.012  1.00  0.00     0.169 HD
BRANCH   9  11
HETATM   11  C   UNL     1      24.649  45.533  50.408  1.00  0.00     0.057 A 
HETATM   12  C   UNL     1      23.666  45.362  49.423  1.00  0.00     0.043 A 
HETATM   13  C   UNL     1      23.030  46.468  48.848  1.00  0.00    -0.017 A 
HETATM   14  C   UNL     1      21.976  46.292  47.847  1.00  0.00     0.029 A 
HETATM   15  C   UNL     1      23.398  47.760  49.251  1.00  0.00     0.044 A 
HETATM   16  C   UNL     1      21.382  47.370  47.323  1.00  0.00     0.092 A 
HETATM   17  N   UNL     1      21.744  48.636  47.699  1.00  0.00    -0.333 N 
HETATM   18  C   UNL     1      22.720  48.926  48.629  1.00  0.00     0.256 A 
HETATM   19  H   UNL     1      21.285  49.440  47.283  1.00  0.00     0.168 HD
HETATM   20  O   UNL     1      23.011  50.077  48.933  1.00  0.00    -0.267 OA
HETATM   21  C   UNL     1      24.373  47.952  50.232  1.00  0.00     0.044 A 
HETATM   22  C   UNL     1      24.981  46.840  50.815  1.00  0.00     0.061 A 
HETATM   23 CL   UNL     1      26.178  47.110  52.037  1.00  0.00    -0.082 Cl
ENDBRANCH   9  11
ENDBRANCH   5   7
BRANCH   1  24
HETATM   24  C   UNL     1      28.702  42.861  52.873  1.00  0.00    -0.049 A 
HETATM   25  C   UNL     1      30.018  42.513  53.223  1.00  0.00     0.007 A 
HETATM   26  C   UNL     1      30.611  43.015  54.380  1.00  0.00     0.003 A 
HETATM   27  C   UNL     1      29.895  43.877  55.206  1.00  0.00     0.037 A 
HETATM   28  C   UNL     1      28.586  44.240  54.887  1.00  0.00     0.078 A 
HETATM   29  C   UNL     1      27.991  43.717  53.732  1.00  0.00     0.044 A 
BRANCH  28  30
HETATM   30  O   UNL     1      28.006  45.095  55.781  1.00  0.00    -0.255 OA
BRANCH  30  31
HETATM   31  C   UNL     1      28.591  46.374  55.950  1.00  0.00     0.530 C 
HETATM   32  F   UNL     1      29.464  46.384  56.981  1.00  0.00    -0.144 F 
HETATM   33  F   UNL     1      27.613  47.267  56.221  1.00  0.00    -0.144 F 
HETATM   34  F   UNL     1      29.219  46.773  54.822  1.00  0.00    -0.144 F 
ENDBRANCH  30  31
ENDBRANCH  28  30
ENDBRANCH   1  24
TORSDOF 5
ENDMDL
