MODEL 1
REMARK VINA RESULT:     -10.0      0.000      0.000
REMARK  5 active torsions:
REMARK  status: ('A' for Active; 'I' for Inactive)
REMARK    1  A    between atoms: C_6  and  O_7 
REMARK    2  A    between atoms: O_7  and  C_8 
REMARK    3  A    between atoms: C_8  and  C_9 
REMARK    4  A    between atoms: C_11  and  C_12 
REMARK       I    between atoms: C_12  and  N_13 
REMARK    5  A    between atoms: N_13  and  C_14 
ROOT
HETATM    1  C   UNL     1      26.956  44.378  51.461  1.00  0.00     0.078 A 
HETATM    2  O   UNL     1      26.122  45.425  51.711  1.00  0.00    -0.307 OA
HETATM    3  C   UNL     1      25.727  45.951  50.508  1.00  0.00     0.143 A 
HETATM    4  C   UNL     1      26.332  45.234  49.489  1.00  0.00     0.045 A 
HETATM    5  C   UNL     1      27.121  44.226  50.103  1.00  0.00     0.038 A 
ENDROOT
BRANCH   3   6
HETATM    6  C   UNL     1      24.818  47.087  50.550  1.00  0.00     0.279 C 
HETATM    7  N   UNL     1      24.134  47.325  49.361  1.00  0.00    -0.321 N 
HETATM    8  H   UNL     1      24.326  46.693  48.596  1.00  0.00     0.169 HD
HETATM    9  O   UNL     1      24.682  47.778  51.557  1.00  0.00    -0.265 OA
BRANCH   7  10
HETATM   10  C   UNL     1      23.227  48.373  49.089  1.00  0.00     0.035 A 
HETATM   11  C   UNL     1      21.839  48.213  49.072  1.00  0.00     0.039 A 
HETATM   12  C   UNL     1      21.036  49.318  48.833  1.00  0.00    -0.022 A 
HETATM   13  C   UNL     1      21.584  50.579  48.608  1.00  0.00    -0.025 A 
HETATM   14  C   UNL     1      19.547  49.370  48.821  1.00  0.00     0.274 C 
HETATM   15  C   UNL     1      20.505  51.594  48.439  1.00  0.00     0.273 C 
HETATM   16  C   UNL     1      22.955  50.761  48.605  1.00  0.00     0.012 A 
HETATM   17  N   UNL     1      19.208  50.792  48.387  1.00  0.00    -0.067 N 
HETATM   18  H   UNL     1      18.947  50.731  47.397  1.00  0.00     0.280 HD
HETATM   19  C   UNL     1      18.080  51.400  49.142  1.00  0.00     0.270 C 
HETATM   20  C   UNL     1      23.774  49.649  48.843  1.00  0.00     0.030 A 
ENDBRANCH   7  10
ENDBRANCH   3   6
BRANCH   1  21
HETATM   21  C   UNL     1      27.487  43.656  52.647  1.00  0.00     0.240 C 
BRANCH  21  22
HETATM   22  O   UNL     1      27.890  44.657  53.576  1.00  0.00    -0.344 OA
BRANCH  22  23
HETATM   23  C   UNL     1      28.902  44.338  54.445  1.00  0.00     0.075 A 
HETATM   24  C   UNL     1      29.180  45.297  55.434  1.00  0.00    -0.028 A 
HETATM   25  C   UNL     1      30.221  45.064  56.350  1.00  0.00     0.016 A 
HETATM   26  C   UNL     1      28.429  46.598  55.496  1.00  0.00     0.051 C 
HETATM   27  C   UNL     1      30.975  43.886  56.301  1.00  0.00    -0.061 A 
HETATM   28  C   UNL     1      32.057  43.632  57.307  1.00  0.00     0.048 C 
HETATM   29  C   UNL     1      30.664  42.926  55.335  1.00  0.00     0.009 A 
HETATM   30  C   UNL     1      29.641  43.151  54.411  1.00  0.00     0.038 A 
ENDBRANCH  22  23
ENDBRANCH  21  22
ENDBRANCH   1  21
TORSDOF 5
ENDMDL
MODEL 2
REMARK VINA RESULT:      -9.8      1.727      2.759
REMARK  5 active torsions:
REMARK  status: ('A' for Active; 'I' for Inactive)
REMARK    1  A    between atoms: C_6  and  O_7 
REMARK    2  A    between atoms: O_7  and  C_8 
REMARK    3  A    between atoms: C_8  and  C_9 
REMARK    4  A    between atoms: C_11  and  C_12 
REMARK       I    between atoms: C_12  and  N_13 
REMARK    5  A    between atoms: N_13  and  C_14 
ROOT
HETATM    1  C   UNL     1      25.451  46.831  51.648  1.00  0.00     0.078 A 
HETATM    2  O   UNL     1      24.835  47.878  51.035  1.00  0.00    -0.307 OA
HETATM    3  C   UNL     1      24.187  47.402  49.925  1.00  0.00     0.143 A 
HETATM    4  C   UNL     1      24.412  46.038  49.831  1.00  0.00     0.045 A 
HETATM    5  C   UNL     1      25.224  45.674  50.937  1.00  0.00     0.038 A 
ENDROOT
BRANCH   3   6
HETATM    6  C   UNL     1      23.453  48.369  49.122  1.00  0.00     0.279 C 
HETATM    7  N   UNL     1      22.157  48.622  49.564  1.00  0.00    -0.321 N 
HETATM    8  H   UNL     1      21.857  48.123  50.390  1.00  0.00     0.169 HD
HETATM    9  O   UNL     1      23.944  48.903  48.131  1.00  0.00    -0.265 OA
BRANCH   7  10
HETATM   10  C   UNL     1      21.199  49.471  48.967  1.00  0.00     0.035 A 
HETATM   11  C   UNL     1      20.412  49.103  47.873  1.00  0.00     0.039 A 
HETATM   12  C   UNL     1      19.472  49.999  47.386  1.00  0.00    -0.022 A 
HETATM   13  C   UNL     1      19.299  51.255  47.965  1.00  0.00    -0.025 A 
HETATM   14  C   UNL     1      18.509  49.785  46.270  1.00  0.00     0.274 C 
HETATM   15  C   UNL     1      18.190  51.989  47.292  1.00  0.00     0.273 C 
HETATM   16  C   UNL     1      20.075  51.648  49.039  1.00  0.00     0.012 A 
HETATM   17  N   UNL     1      17.812  51.129  46.090  1.00  0.00    -0.067 N 
HETATM   18  H   UNL     1      18.249  51.568  45.273  1.00  0.00     0.280 HD
HETATM   19  C   UNL     1      16.348  51.021  45.849  1.00  0.00     0.270 C 
HETATM   20  C   UNL     1      21.030  50.750  49.535  1.00  0.00     0.030 A 
ENDBRANCH   7  10
ENDBRANCH   3   6
BRANCH   1  21
HETATM   21  C   UNL     1      26.203  47.138  52.893  1.00  0.00     0.240 C 
BRANCH  21  22
HETATM   22  O   UNL     1      26.214  45.937  53.659  1.00  0.00    -0.344 OA
BRANCH  22  23
HETATM   23  C   UNL     1      27.393  45.589  54.266  1.00  0.00     0.075 A 
HETATM   24  C   UNL     1      27.848  44.284  54.009  1.00  0.00    -0.028 A 
HETATM   25  C   UNL     1      29.035  43.835  54.614  1.00  0.00     0.016 A 
HETATM   26  C   UNL     1      27.059  43.335  53.150  1.00  0.00     0.051 C 
HETATM   27  C   UNL     1      29.777  44.670  55.456  1.00  0.00    -0.061 A 
HETATM   28  C   UNL     1      31.061  44.191  56.065  1.00  0.00     0.048 C 
HETATM   29  C   UNL     1      29.331  45.975  55.674  1.00  0.00     0.009 A 
HETATM   30  C   UNL     1      28.147  46.430  55.090  1.00  0.00     0.038 A 
ENDBRANCH  22  23
ENDBRANCH  21  22
ENDBRANCH   1  21
TORSDOF 5
ENDMDL
MODEL 3
REMARK VINA RESULT:      -9.5      2.664     10.337
REMARK  5 active torsions:
REMARK  status: ('A' for Active; 'I' for Inactive)
REMARK    1  A    between atoms: C_6  and  O_7 
REMARK    2  A    between atoms: O_7  and  C_8 
REMARK    3  A    between atoms: C_8  and  C_9 
REMARK    4  A    between atoms: C_11  and  C_12 
REMARK       I    between atoms: C_12  and  N_13 
REMARK    5  A    between atoms: N_13  and  C_14 
ROOT
HETATM    1  C   UNL     1      23.379  45.110  49.302  1.00  0.00     0.078 A 
HETATM    2  O   UNL     1      24.628  45.384  49.770  1.00  0.00    -0.307 OA
HETATM    3  C   UNL     1      25.028  44.336  50.558  1.00  0.00     0.143 A 
HETATM    4  C   UNL     1      24.010  43.396  50.597  1.00  0.00     0.045 A 
HETATM    5  C   UNL     1      22.953  43.895  49.791  1.00  0.00     0.038 A 
ENDROOT
BRANCH   3   6
HETATM    6  C   UNL     1      26.351  44.427  51.158  1.00  0.00     0.279 C 
HETATM    7  N   UNL     1      26.416  44.000  52.482  1.00  0.00    -0.321 N 
HETATM    8  H   UNL     1      25.553  43.668  52.891  1.00  0.00     0.169 HD
HETATM    9  O   UNL     1      27.321  44.857  50.539  1.00  0.00    -0.265 OA
BRANCH   7  10
HETATM   10  C   UNL     1      27.543  44.014  53.331  1.00  0.00     0.035 A 
HETATM   11  C   UNL     1      27.765  44.986  54.311  1.00  0.00     0.039 A 
HETATM   12  C   UNL     1      28.887  44.885  55.120  1.00  0.00    -0.022 A 
HETATM   13  C   UNL     1      29.795  43.838  54.974  1.00  0.00    -0.025 A 
HETATM   14  C   UNL     1      29.277  45.781  56.244  1.00  0.00     0.274 C 
HETATM   15  C   UNL     1      30.870  43.934  56.003  1.00  0.00     0.273 C 
HETATM   16  C   UNL     1      29.607  42.872  54.003  1.00  0.00     0.012 A 
HETATM   17  N   UNL     1      30.645  45.277  56.691  1.00  0.00    -0.067 N 
HETATM   18  H   UNL     1      31.331  45.925  56.290  1.00  0.00     0.280 HD
HETATM   19  C   UNL     1      30.823  45.246  58.168  1.00  0.00     0.270 C 
HETATM   20  C   UNL     1      28.477  42.968  53.179  1.00  0.00     0.030 A 
ENDBRANCH   7  10
ENDBRANCH   3   6
BRANCH   1  21
HETATM   21  C   UNL     1      22.768  46.126  48.406  1.00  0.00     0.240 C 
BRANCH  21  22
HETATM   22  O   UNL     1      23.255  47.390  48.846  1.00  0.00    -0.344 OA
BRANCH  22  23
HETATM   23  C   UNL     1      22.390  48.452  48.788  1.00  0.00     0.075 A 
HETATM   24  C   UNL     1      22.970  49.693  48.472  1.00  0.00    -0.028 A 
HETATM   25  C   UNL     1      22.160  50.841  48.419  1.00  0.00     0.016 A 
HETATM   26  C   UNL     1      24.451  49.831  48.251  1.00  0.00     0.051 C 
HETATM   27  C   UNL     1      20.784  50.766  48.661  1.00  0.00    -0.061 A 
HETATM   28  C   UNL     1      19.925  51.991  48.563  1.00  0.00     0.048 C 
HETATM   29  C   UNL     1      20.216  49.521  48.939  1.00  0.00     0.009 A 
HETATM   30  C   UNL     1      21.011  48.374  49.008  1.00  0.00     0.038 A 
ENDBRANCH  22  23
ENDBRANCH  21  22
ENDBRANCH   1  21
TORSDOF 5
ENDMDL
MODEL 4
REMARK VINA RESULT:      -9.4      1.724      2.367
REMARK  5 active torsions:
REMARK  status: ('A' for Active; 'I' for Inactive)
REMARK    1  A    between atoms: C_6  and  O_7 
REMARK    2  A    between atoms: O_7  and  C_8 
REMARK    3  A    between atoms: C_8  and  C_9 
REMARK    4  A    between atoms: C_11  and  C_12 
REMARK       I    between atoms: C_12  and  N_13 
REMARK    5  A    between atoms: N_13  and  C_14 
ROOT
HETATM    1  C   UNL     1      25.250  45.090  50.165  1.00  0.00     0.078 A 
HETATM    2  O   UNL     1      24.631  46.216  49.714  1.00  0.00    -0.307 OA
HETATM    3  C   UNL     1      23.489  45.840  49.057  1.00  0.00     0.143 A 
HETATM    4  C   UNL     1      23.396  44.458  49.083  1.00  0.00     0.045 A 
HETATM    5  C   UNL     1      24.527  43.979  49.794  1.00  0.00     0.038 A 
ENDROOT
BRANCH   3   6
HETATM    6  C   UNL     1      22.668  46.903  48.496  1.00  0.00     0.279 C 
HETATM    7  N   UNL     1      22.285  47.881  49.410  1.00  0.00    -0.321 N 
HETATM    8  H   UNL     1      22.613  47.764  50.359  1.00  0.00     0.169 HD
HETATM    9  O   UNL     1      22.338  46.919  47.313  1.00  0.00    -0.265 OA
BRANCH   7  10
HETATM   10  C   UNL     1      21.458  49.000  49.171  1.00  0.00     0.035 A 
HETATM   11  C   UNL     1      20.101  49.047  49.500  1.00  0.00     0.039 A 
HETATM   12  C   UNL     1      19.387  50.211  49.257  1.00  0.00    -0.022 A 
HETATM   13  C   UNL     1      19.994  51.330  48.692  1.00  0.00    -0.025 A 
HETATM   14  C   UNL     1      17.957  50.480  49.576  1.00  0.00     0.274 C 
HETATM   15  C   UNL     1      19.023  52.457  48.596  1.00  0.00     0.273 C 
HETATM   16  C   UNL     1      21.333  51.305  48.343  1.00  0.00     0.012 A 
HETATM   17  N   UNL     1      17.675  51.857  48.985  1.00  0.00    -0.067 N 
HETATM   18  H   UNL     1      17.171  51.690  48.108  1.00  0.00     0.280 HD
HETATM   19  C   UNL     1      16.844  52.729  49.857  1.00  0.00     0.270 C 
HETATM   20  C   UNL     1      22.060  50.132  48.582  1.00  0.00     0.030 A 
ENDBRANCH   7  10
ENDBRANCH   3   6
BRANCH   1  21
HETATM   21  C   UNL     1      26.512  45.286  50.926  1.00  0.00     0.240 C 
BRANCH  21  22
HETATM   22  O   UNL     1      26.280  44.755  52.227  1.00  0.00    -0.344 OA
BRANCH  22  23
HETATM   23  C   UNL     1      27.373  44.341  52.942  1.00  0.00     0.075 A 
HETATM   24  C   UNL     1      27.667  45.089  54.095  1.00  0.00    -0.028 A 
HETATM   25  C   UNL     1      28.788  44.750  54.873  1.00  0.00     0.016 A 
HETATM   26  C   UNL     1      26.842  46.286  54.482  1.00  0.00     0.051 C 
HETATM   27  C   UNL     1      29.608  43.671  54.525  1.00  0.00    -0.061 A 
HETATM   28  C   UNL     1      30.779  43.297  55.383  1.00  0.00     0.048 C 
HETATM   29  C   UNL     1      29.284  42.915  53.397  1.00  0.00     0.009 A 
HETATM   30  C   UNL     1      28.180  43.249  52.608  1.00  0.00     0.038 A 
ENDBRANCH  22  23
ENDBRANCH  21  22
ENDBRANCH   1  21
TORSDOF 5
ENDMDL
MODEL 5
REMARK VINA RESULT:      -9.3      1.851      2.864
REMARK  5 active torsions:
REMARK  status: ('A' for Active; 'I' for Inactive)
REMARK    1  A    between atoms: C_6  and  O_7 
REMARK    2  A    between atoms: O_7  and  C_8 
REMARK    3  A    between atoms: C_8  and  C_9 
REMARK    4  A    between atoms: C_11  and  C_12 
REMARK       I    between atoms: C_12  and  N_13 
REMARK    5  A    between atoms: N_13  and  C_14 
ROOT
HETATM    1  C   UNL     1      27.608  42.179  52.358  1.00  0.00     0.078 A 
HETATM    2  O   UNL     1      27.047  43.300  51.827  1.00  0.00    -0.307 OA
HETATM    3  C   UNL     1      26.507  42.972  50.610  1.00  0.00     0.143 A 
HETATM    4  C   UNL     1      26.744  41.629  50.367  1.00  0.00     0.045 A 
HETATM    5  C   UNL     1      27.451  41.122  51.489  1.00  0.00     0.038 A 
ENDROOT
BRANCH   3   6
HETATM    6  C   UNL     1      25.847  44.038  49.871  1.00  0.00     0.279 C 
HETATM    7  N   UNL     1      26.104  45.319  50.350  1.00  0.00    -0.321 N 
HETATM    8  H   UNL     1      26.718  45.387  51.150  1.00  0.00     0.169 HD
HETATM    9  O   UNL     1      25.117  43.811  48.909  1.00  0.00    -0.265 OA
BRANCH   7  10
HETATM   10  C   UNL     1      25.572  46.536  49.869  1.00  0.00     0.035 A 
HETATM   11  C   UNL     1      24.204  46.782  49.725  1.00  0.00     0.039 A 
HETATM   12  C   UNL     1      23.785  48.027  49.280  1.00  0.00    -0.022 A 
HETATM   13  C   UNL     1      24.699  49.033  48.973  1.00  0.00    -0.025 A 
HETATM   14  C   UNL     1      22.385  48.502  49.107  1.00  0.00     0.274 C 
HETATM   15  C   UNL     1      23.986  50.281  48.579  1.00  0.00     0.273 C 
HETATM   16  C   UNL     1      26.059  48.810  49.093  1.00  0.00     0.012 A 
HETATM   17  N   UNL     1      22.515  49.887  48.482  1.00  0.00    -0.067 N 
HETATM   18  H   UNL     1      22.315  49.767  47.484  1.00  0.00     0.280 HD
HETATM   19  C   UNL     1      21.573  50.893  49.042  1.00  0.00     0.270 C 
HETATM   20  C   UNL     1      26.491  47.554  49.539  1.00  0.00     0.030 A 
ENDBRANCH   7  10
ENDBRANCH   3   6
BRANCH   1  21
HETATM   21  C   UNL     1      28.239  42.322  53.696  1.00  0.00     0.240 C 
BRANCH  21  22
HETATM   22  O   UNL     1      29.129  43.430  53.600  1.00  0.00    -0.344 OA
BRANCH  22  23
HETATM   23  C   UNL     1      29.574  43.982  54.774  1.00  0.00     0.075 A 
HETATM   24  C   UNL     1      28.880  45.122  55.212  1.00  0.00    -0.028 A 
HETATM   25  C   UNL     1      29.288  45.769  56.392  1.00  0.00     0.016 A 
HETATM   26  C   UNL     1      27.747  45.704  54.413  1.00  0.00     0.051 C 
HETATM   27  C   UNL     1      30.365  45.288  57.144  1.00  0.00    -0.061 A 
HETATM   28  C   UNL     1      30.767  45.964  58.420  1.00  0.00     0.048 C 
HETATM   29  C   UNL     1      31.024  44.133  56.714  1.00  0.00     0.009 A 
HETATM   30  C   UNL     1      30.637  43.488  55.537  1.00  0.00     0.038 A 
ENDBRANCH  22  23
ENDBRANCH  21  22
ENDBRANCH   1  21
TORSDOF 5
ENDMDL
MODEL 6
REMARK VINA RESULT:      -9.3      2.457     10.701
REMARK  5 active torsions:
REMARK  status: ('A' for Active; 'I' for Inactive)
REMARK    1  A    between atoms: C_6  and  O_7 
REMARK    2  A    between atoms: O_7  and  C_8 
REMARK    3  A    between atoms: C_8  and  C_9 
REMARK    4  A    between atoms: C_11  and  C_12 
REMARK       I    between atoms: C_12  and  N_13 
REMARK    5  A    between atoms: N_13  and  C_14 
ROOT
HETATM    1  C   UNL     1      22.551  48.031  48.760  1.00  0.00     0.078 A 
HETATM    2  O   UNL     1      23.653  48.072  49.559  1.00  0.00    -0.307 OA
HETATM    3  C   UNL     1      24.095  46.788  49.743  1.00  0.00     0.143 A 
HETATM    4  C   UNL     1      23.251  45.926  49.062  1.00  0.00     0.045 A 
HETATM    5  C   UNL     1      22.261  46.725  48.433  1.00  0.00     0.038 A 
ENDROOT
BRANCH   3   6
HETATM    6  C   UNL     1      25.279  46.608  50.570  1.00  0.00     0.279 C 
HETATM    7  N   UNL     1      25.024  46.536  51.937  1.00  0.00    -0.321 N 
HETATM    8  H   UNL     1      24.056  46.609  52.219  1.00  0.00     0.169 HD
HETATM    9  O   UNL     1      26.408  46.538  50.089  1.00  0.00    -0.265 OA
BRANCH   7  10
HETATM   10  C   UNL     1      25.969  46.411  52.979  1.00  0.00     0.035 A 
HETATM   11  C   UNL     1      26.831  45.320  53.116  1.00  0.00     0.039 A 
HETATM   12  C   UNL     1      27.750  45.312  54.155  1.00  0.00    -0.022 A 
HETATM   13  C   UNL     1      27.829  46.368  55.062  1.00  0.00    -0.025 A 
HETATM   14  C   UNL     1      28.781  44.278  54.445  1.00  0.00     0.274 C 
HETATM   15  C   UNL     1      28.935  46.137  56.034  1.00  0.00     0.273 C 
HETATM   16  C   UNL     1      26.977  47.452  54.956  1.00  0.00     0.012 A 
HETATM   17  N   UNL     1      29.419  44.717  55.759  1.00  0.00    -0.067 N 
HETATM   18  H   UNL     1      29.005  44.125  56.486  1.00  0.00     0.280 HD
HETATM   19  C   UNL     1      30.898  44.556  55.794  1.00  0.00     0.270 C 
HETATM   20  C   UNL     1      26.043  47.465  53.912  1.00  0.00     0.030 A 
ENDBRANCH   7  10
ENDBRANCH   3   6
BRANCH   1  21
HETATM   21  C   UNL     1      21.924  49.336  48.426  1.00  0.00     0.240 C 
BRANCH  21  22
HETATM   22  O   UNL     1      21.244  49.765  49.602  1.00  0.00    -0.344 OA
BRANCH  22  23
HETATM   23  C   UNL     1      20.137  50.557  49.435  1.00  0.00     0.075 A 
HETATM   24  C   UNL     1      18.979  50.134  50.108  1.00  0.00    -0.028 A 
HETATM   25  C   UNL     1      17.790  50.873  49.970  1.00  0.00     0.016 A 
HETATM   26  C   UNL     1      18.965  48.871  50.925  1.00  0.00     0.051 C 
HETATM   27  C   UNL     1      17.746  52.029  49.185  1.00  0.00    -0.061 A 
HETATM   28  C   UNL     1      16.483  52.829  49.076  1.00  0.00     0.048 C 
HETATM   29  C   UNL     1      18.914  52.457  48.550  1.00  0.00     0.009 A 
HETATM   30  C   UNL     1      20.099  51.725  48.668  1.00  0.00     0.038 A 
ENDBRANCH  22  23
ENDBRANCH  21  22
ENDBRANCH   1  21
TORSDOF 5
ENDMDL
MODEL 7
REMARK VINA RESULT:      -9.2      2.829     10.878
REMARK  5 active torsions:
REMARK  status: ('A' for Active; 'I' for Inactive)
REMARK    1  A    between atoms: C_6  and  O_7 
REMARK    2  A    between atoms: O_7  and  C_8 
REMARK    3  A    between atoms: C_8  and  C_9 
REMARK    4  A    between atoms: C_11  and  C_12 
REMARK       I    between atoms: C_12  and  N_13 
REMARK    5  A    between atoms: N_13  and  C_14 
ROOT
HETATM    1  C   UNL     1      23.118  50.199  49.069  1.00  0.00     0.078 A 
HETATM    2  O   UNL     1      23.728  49.198  49.762  1.00  0.00    -0.307 OA
HETATM    3  C   UNL     1      24.923  48.923  49.150  1.00  0.00     0.143 A 
HETATM    4  C   UNL     1      25.060  49.754  48.049  1.00  0.00     0.045 A 
HETATM    5  C   UNL     1      23.900  50.571  47.999  1.00  0.00     0.038 A 
ENDROOT
BRANCH   3   6
HETATM    6  C   UNL     1      25.744  47.876  49.741  1.00  0.00     0.279 C 
HETATM    7  N   UNL     1      25.205  47.297  50.887  1.00  0.00    -0.321 N 
HETATM    8  H   UNL     1      24.308  47.649  51.190  1.00  0.00     0.169 HD
HETATM    9  O   UNL     1      26.827  47.547  49.264  1.00  0.00    -0.265 OA
BRANCH   7  10
HETATM   10  C   UNL     1      25.788  46.298  51.696  1.00  0.00     0.035 A 
HETATM   11  C   UNL     1      25.923  44.963  51.304  1.00  0.00     0.039 A 
HETATM   12  C   UNL     1      26.547  44.068  52.160  1.00  0.00    -0.022 A 
HETATM   13  C   UNL     1      27.038  44.471  53.400  1.00  0.00    -0.025 A 
HETATM   14  C   UNL     1      26.831  42.627  51.913  1.00  0.00     0.274 C 
HETATM   15  C   UNL     1      27.711  43.334  54.089  1.00  0.00     0.273 C 
HETATM   16  C   UNL     1      26.904  45.783  53.817  1.00  0.00     0.012 A 
HETATM   17  N   UNL     1      27.414  42.112  53.225  1.00  0.00    -0.067 N 
HETATM   18  H   UNL     1      26.654  41.606  53.693  1.00  0.00     0.280 HD
HETATM   19  C   UNL     1      28.568  41.189  53.051  1.00  0.00     0.270 C 
HETATM   20  C   UNL     1      26.272  46.693  52.960  1.00  0.00     0.030 A 
ENDBRANCH   7  10
ENDBRANCH   3   6
BRANCH   1  21
HETATM   21  C   UNL     1      21.802  50.658  49.587  1.00  0.00     0.240 C 
BRANCH  21  22
HETATM   22  O   UNL     1      20.854  50.388  48.559  1.00  0.00    -0.344 OA
BRANCH  22  23
HETATM   23  C   UNL     1      19.580  50.861  48.738  1.00  0.00     0.075 A 
HETATM   24  C   UNL     1      18.581  49.882  48.876  1.00  0.00    -0.028 A 
HETATM   25  C   UNL     1      17.241  50.279  49.037  1.00  0.00     0.016 A 
HETATM   26  C   UNL     1      18.905  48.416  48.793  1.00  0.00     0.051 C 
HETATM   27  C   UNL     1      16.889  51.633  49.075  1.00  0.00    -0.061 A 
HETATM   28  C   UNL     1      15.463  52.043  49.285  1.00  0.00     0.048 C 
HETATM   29  C   UNL     1      17.897  52.594  48.972  1.00  0.00     0.009 A 
HETATM   30  C   UNL     1      19.230  52.214  48.799  1.00  0.00     0.038 A 
ENDBRANCH  22  23
ENDBRANCH  21  22
ENDBRANCH   1  21
TORSDOF 5
ENDMDL
MODEL 8
REMARK VINA RESULT:      -9.2      1.746      2.760
REMARK  5 active torsions:
REMARK  status: ('A' for Active; 'I' for Inactive)
REMARK    1  A    between atoms: C_6  and  O_7 
REMARK    2  A    between atoms: O_7  and  C_8 
REMARK    3  A    between atoms: C_8  and  C_9 
REMARK    4  A    between atoms: C_11  and  C_12 
REMARK       I    between atoms: C_12  and  N_13 
REMARK    5  A    between atoms: N_13  and  C_14 
ROOT
HETATM    1  C   UNL     1      26.338  46.510  49.826  1.00  0.00     0.078 A 
HETATM    2  O   UNL     1      24.993  46.607  49.642  1.00  0.00    -0.307 OA
HETATM    3  C   UNL     1      24.695  47.915  49.358  1.00  0.00     0.143 A 
HETATM    4  C   UNL     1      25.867  48.652  49.378  1.00  0.00     0.045 A 
HETATM    5  C   UNL     1      26.920  47.749  49.679  1.00  0.00     0.038 A 
ENDROOT
BRANCH   3   6
HETATM    6  C   UNL     1      23.295  48.236  49.119  1.00  0.00     0.279 C 
HETATM    7  N   UNL     1      23.021  49.599  49.036  1.00  0.00    -0.321 N 
HETATM    8  H   UNL     1      23.808  50.224  49.142  1.00  0.00     0.169 HD
HETATM    9  O   UNL     1      22.434  47.367  49.012  1.00  0.00    -0.265 OA
BRANCH   7  10
HETATM   10  C   UNL     1      21.760  50.209  48.857  1.00  0.00     0.035 A 
HETATM   11  C   UNL     1      21.041  50.167  47.659  1.00  0.00     0.039 A 
HETATM   12  C   UNL     1      19.792  50.766  47.601  1.00  0.00    -0.022 A 
HETATM   13  C   UNL     1      19.243  51.410  48.708  1.00  0.00    -0.025 A 
HETATM   14  C   UNL     1      18.852  50.791  46.445  1.00  0.00     0.274 C 
HETATM   15  C   UNL     1      17.875  51.911  48.394  1.00  0.00     0.273 C 
HETATM   16  C   UNL     1      19.941  51.479  49.900  1.00  0.00     0.012 A 
HETATM   17  N   UNL     1      17.700  51.683  46.896  1.00  0.00    -0.067 N 
HETATM   18  H   UNL     1      17.854  52.592  46.446  1.00  0.00     0.280 HD
HETATM   19  C   UNL     1      16.357  51.177  46.505  1.00  0.00     0.270 C 
HETATM   20  C   UNL     1      21.205  50.878  49.967  1.00  0.00     0.030 A 
ENDBRANCH   7  10
ENDBRANCH   3   6
BRANCH   1  21
HETATM   21  C   UNL     1      26.871  45.157  50.131  1.00  0.00     0.240 C 
BRANCH  21  22
HETATM   22  O   UNL     1      26.497  44.875  51.476  1.00  0.00    -0.344 OA
BRANCH  22  23
HETATM   23  C   UNL     1      27.480  44.435  52.324  1.00  0.00     0.075 A 
HETATM   24  C   UNL     1      27.483  45.013  53.605  1.00  0.00    -0.028 A 
HETATM   25  C   UNL     1      28.475  44.641  54.529  1.00  0.00     0.016 A 
HETATM   26  C   UNL     1      26.485  46.071  53.988  1.00  0.00     0.051 C 
HETATM   27  C   UNL     1      29.450  43.693  54.199  1.00  0.00    -0.061 A 
HETATM   28  C   UNL     1      30.479  43.276  55.207  1.00  0.00     0.048 C 
HETATM   29  C   UNL     1      29.413  43.101  52.935  1.00  0.00     0.009 A 
HETATM   30  C   UNL     1      28.441  43.472  52.002  1.00  0.00     0.038 A 
ENDBRANCH  22  23
ENDBRANCH  21  22
ENDBRANCH   1  21
TORSDOF 5
ENDMDL
MODEL 9
REMARK VINA RESULT:      -9.2      2.698      9.924
REMARK  5 active torsions:
REMARK  status: ('A' for Active; 'I' for Inactive)
REMARK    1  A    between atoms: C_6  and  O_7 
REMARK    2  A    between atoms: O_7  and  C_8 
REMARK    3  A    between atoms: C_8  and  C_9 
REMARK    4  A    between atoms: C_11  and  C_12 
REMARK       I    between atoms: C_12  and  N_13 
REMARK    5  A    between atoms: N_13  and  C_14 
ROOT
HETATM    1  C   UNL     1      22.660  45.531  47.786  1.00  0.00     0.078 A 
HETATM    2  O   UNL     1      23.025  45.723  49.083  1.00  0.00    -0.307 OA
HETATM    3  C   UNL     1      23.811  44.667  49.466  1.00  0.00     0.143 A 
HETATM    4  C   UNL     1      23.929  43.792  48.399  1.00  0.00     0.045 A 
HETATM    5  C   UNL     1      23.190  44.348  47.322  1.00  0.00     0.038 A 
ENDROOT
BRANCH   3   6
HETATM    6  C   UNL     1      24.317  44.681  50.831  1.00  0.00     0.279 C 
HETATM    7  N   UNL     1      25.262  45.671  51.087  1.00  0.00    -0.321 N 
HETATM    8  H   UNL     1      25.498  46.279  50.316  1.00  0.00     0.169 HD
HETATM    9  O   UNL     1      23.941  43.872  51.675  1.00  0.00    -0.265 OA
BRANCH   7  10
HETATM   10  C   UNL     1      25.957  45.898  52.295  1.00  0.00     0.035 A 
HETATM   11  C   UNL     1      26.936  45.038  52.801  1.00  0.00     0.039 A 
HETATM   12  C   UNL     1      27.587  45.374  53.978  1.00  0.00    -0.022 A 
HETATM   13  C   UNL     1      27.285  46.549  54.665  1.00  0.00    -0.025 A 
HETATM   14  C   UNL     1      28.684  44.626  54.653  1.00  0.00     0.274 C 
HETATM   15  C   UNL     1      28.167  46.697  55.857  1.00  0.00     0.273 C 
HETATM   16  C   UNL     1      26.310  47.409  54.193  1.00  0.00     0.012 A 
HETATM   17  N   UNL     1      28.930  45.379  55.955  1.00  0.00    -0.067 N 
HETATM   18  H   UNL     1      28.467  44.833  56.690  1.00  0.00     0.280 HD
HETATM   19  C   UNL     1      30.368  45.528  56.304  1.00  0.00     0.270 C 
HETATM   20  C   UNL     1      25.645  47.075  53.006  1.00  0.00     0.030 A 
ENDBRANCH   7  10
ENDBRANCH   3   6
BRANCH   1  21
HETATM   21  C   UNL     1      21.810  46.584  47.172  1.00  0.00     0.240 C 
BRANCH  21  22
HETATM   22  O   UNL     1      22.403  47.831  47.524  1.00  0.00    -0.344 OA
BRANCH  22  23
HETATM   23  C   UNL     1      21.558  48.883  47.766  1.00  0.00     0.075 A 
HETATM   24  C   UNL     1      22.179  50.125  47.984  1.00  0.00    -0.028 A 
HETATM   25  C   UNL     1      21.389  51.253  48.268  1.00  0.00     0.016 A 
HETATM   26  C   UNL     1      23.676  50.262  47.983  1.00  0.00     0.051 C 
HETATM   27  C   UNL     1      19.994  51.162  48.323  1.00  0.00    -0.061 A 
HETATM   28  C   UNL     1      19.161  52.379  48.588  1.00  0.00     0.048 C 
HETATM   29  C   UNL     1      19.389  49.929  48.070  1.00  0.00     0.009 A 
HETATM   30  C   UNL     1      20.163  48.797  47.800  1.00  0.00     0.038 A 
ENDBRANCH  22  23
ENDBRANCH  21  22
ENDBRANCH   1  21
TORSDOF 5
ENDMDL
MODEL 10
REMARK VINA RESULT:      -8.5      2.082      3.508
REMARK  5 active torsions:
REMARK  status: ('A' for Active; 'I' for Inactive)
REMARK    1  A    between atoms: C_6  and  O_7 
REMARK    2  A    between atoms: O_7  and  C_8 
REMARK    3  A    between atoms: C_8  and  C_9 
REMARK    4  A    between atoms: C_11  and  C_12 
REMARK       I    between atoms: C_12  and  N_13 
REMARK    5  A    between atoms: N_13  and  C_14 
ROOT
HETATM    1  C   UNL     1      25.499  47.396  50.938  1.00  0.00     0.078 A 
HETATM    2  O   UNL     1      24.372  47.819  50.302  1.00  0.00    -0.307 OA
HETATM    3  C   UNL     1      24.749  48.580  49.227  1.00  0.00     0.143 A 
HETATM    4  C   UNL     1      26.133  48.649  49.195  1.00  0.00     0.045 A 
HETATM    5  C   UNL     1      26.612  47.889  50.294  1.00  0.00     0.038 A 
ENDROOT
BRANCH   3   6
HETATM    6  C   UNL     1      23.685  49.131  48.400  1.00  0.00     0.279 C 
HETATM    7  N   UNL     1      22.403  48.722  48.760  1.00  0.00    -0.321 N 
HETATM    8  H   UNL     1      22.335  48.097  49.552  1.00  0.00     0.169 HD
HETATM    9  O   UNL     1      23.913  49.886  47.458  1.00  0.00    -0.265 OA
BRANCH   7  10
HETATM   10  C   UNL     1      21.189  49.053  48.121  1.00  0.00     0.035 A 
HETATM   11  C   UNL     1      20.594  50.316  48.191  1.00  0.00     0.039 A 
HETATM   12  C   UNL     1      19.418  50.548  47.493  1.00  0.00    -0.022 A 
HETATM   13  C   UNL     1      18.819  49.549  46.728  1.00  0.00    -0.025 A 
HETATM   14  C   UNL     1      18.659  51.825  47.397  1.00  0.00     0.274 C 
HETATM   15  C   UNL     1      17.608  50.077  46.038  1.00  0.00     0.273 C 
HETATM   16  C   UNL     1      19.379  48.286  46.655  1.00  0.00     0.012 A 
HETATM   17  N   UNL     1      17.399  51.475  46.613  1.00  0.00    -0.067 N 
HETATM   18  H   UNL     1      16.648  51.391  47.306  1.00  0.00     0.280 HD
HETATM   19  C   UNL     1      17.010  52.500  45.607  1.00  0.00     0.270 C 
HETATM   20  C   UNL     1      20.566  48.043  47.360  1.00  0.00     0.030 A 
ENDBRANCH   7  10
ENDBRANCH   3   6
BRANCH   1  21
HETATM   21  C   UNL     1      25.304  46.534  52.134  1.00  0.00     0.240 C 
BRANCH  21  22
HETATM   22  O   UNL     1      26.600  46.317  52.684  1.00  0.00    -0.344 OA
BRANCH  22  23
HETATM   23  C   UNL     1      27.021  45.018  52.807  1.00  0.00     0.075 A 
HETATM   24  C   UNL     1      27.614  44.684  54.036  1.00  0.00    -0.028 A 
HETATM   25  C   UNL     1      28.100  43.380  54.237  1.00  0.00     0.016 A 
HETATM   26  C   UNL     1      27.797  45.709  55.121  1.00  0.00     0.051 C 
HETATM   27  C   UNL     1      27.991  42.406  53.238  1.00  0.00    -0.061 A 
HETATM   28  C   UNL     1      28.478  41.009  53.479  1.00  0.00     0.048 C 
HETATM   29  C   UNL     1      27.368  42.743  52.035  1.00  0.00     0.009 A 
HETATM   30  C   UNL     1      26.892  44.039  51.817  1.00  0.00     0.038 A 
ENDBRANCH  22  23
ENDBRANCH  21  22
ENDBRANCH   1  21
TORSDOF 5
ENDMDL
