MODEL 1
REMARK VINA RESULT:      -9.4      0.000      0.000
REMARK  8 active torsions:
REMARK  status: ('A' for Active; 'I' for Inactive)
REMARK    1  A    between atoms: C_7  and  C_8 
REMARK    2  A    between atoms: C_10  and  O_11 
REMARK    3  A    between atoms: C_13  and  O_14 
REMARK    4  A    between atoms: O_14  and  C_15 
REMARK    5  A    between atoms: C_15  and  C_16 
REMARK       I    between atoms: C_16  and  N_17 
REMARK    6  A    between atoms: C_21  and  C_22 
REMARK       I    between atoms: C_22  and  N_23 
REMARK    7  A    between atoms: N_23  and  C_24 
REMARK    8  A    between atoms: C_24  and  C_25 
ROOT
HETATM    1  C   UNL     1      26.567  39.908  48.876  1.00  0.00     0.069 C 
HETATM    2  C   UNL     1      25.656  40.968  49.428  1.00  0.00     0.024 C 
HETATM    3  N   UNL     1      24.431  41.069  48.807  1.00  0.00    -0.312 N 
HETATM    4  C   UNL     1      23.391  41.840  49.232  1.00  0.00     0.321 C 
HETATM    5  O   UNL     1      22.315  41.853  48.646  1.00  0.00    -0.247 OA
HETATM    6  N   UNL     1      23.604  42.578  50.348  1.00  0.00    -0.330 N 
HETATM    7  C   UNL     1      24.893  42.763  50.989  1.00  0.00     0.160 C 
HETATM    8  C   UNL     1      25.907  41.779  50.473  1.00  0.00     0.059 C 
HETATM    9  H   UNL     1      24.212  40.480  48.012  1.00  0.00     0.170 HD
HETATM   10  H   UNL     1      22.828  43.159  50.634  1.00  0.00     0.165 HD
ENDROOT
BRANCH   7  11
HETATM   11  C   UNL     1      25.333  44.212  50.819  1.00  0.00    -0.028 A 
HETATM   12  C   UNL     1      25.032  45.182  51.794  1.00  0.00     0.049 A 
HETATM   13  C   UNL     1      25.444  46.509  51.641  1.00  0.00     0.102 A 
HETATM   14  C   UNL     1      26.155  46.881  50.487  1.00  0.00     0.102 A 
HETATM   15  C   UNL     1      26.471  45.923  49.520  1.00  0.00     0.040 A 
HETATM   16  C   UNL     1      26.055  44.600  49.682  1.00  0.00     0.012 A 
BRANCH  13  17
HETATM   17  O   UNL     1      25.180  47.516  52.537  1.00  0.00    -0.353 OA
HETATM   18  C   UNL     1      25.828  47.445  53.801  1.00  0.00     0.210 C 
ENDBRANCH  13  17
BRANCH  14  19
HETATM   19  O   UNL     1      26.547  48.192  50.412  1.00  0.00    -0.339 OA
BRANCH  19  20
HETATM   20  C   UNL     1      27.037  48.637  49.150  1.00  0.00     0.278 C 
BRANCH  20  21
HETATM   21  C   UNL     1      25.956  49.457  48.452  1.00  0.00     0.239 C 
HETATM   22  N   UNL     1      24.705  49.359  48.995  1.00  0.00    -0.368 N 
HETATM   23  H   UNL     1      24.603  48.969  49.927  1.00  0.00     0.159 HD
HETATM   24  H   UNL     1      23.973  49.946  48.621  1.00  0.00     0.159 HD
HETATM   25  O   UNL     1      26.159  50.120  47.441  1.00  0.00    -0.271 OA
ENDBRANCH  20  21
ENDBRANCH  19  20
ENDBRANCH  14  19
ENDBRANCH   7  11
BRANCH   8  26
HETATM   26  C   UNL     1      27.170  41.744  51.253  1.00  0.00     0.252 C 
HETATM   27  N   UNL     1      27.017  41.454  52.582  1.00  0.00    -0.353 N 
HETATM   28  H   UNL     1      26.117  41.151  52.929  1.00  0.00     0.163 HD
HETATM   29  O   UNL     1      28.253  41.895  50.698  1.00  0.00    -0.268 OA
BRANCH  27  30
HETATM   30  C   UNL     1      28.162  41.287  53.447  1.00  0.00     0.161 C 
BRANCH  30  31
HETATM   31  C   UNL     1      28.521  42.585  54.120  1.00  0.00    -0.041 A 
HETATM   32  C   UNL     1      29.811  42.802  54.620  1.00  0.00     0.009 A 
HETATM   33  C   UNL     1      30.136  44.013  55.237  1.00  0.00     0.001 A 
HETATM   34  C   UNL     1      29.174  45.014  55.363  1.00  0.00     0.000 A 
HETATM   35  C   UNL     1      27.886  44.808  54.874  1.00  0.00     0.001 A 
HETATM   36  C   UNL     1      27.561  43.599  54.255  1.00  0.00     0.009 A 
ENDBRANCH  30  31
ENDBRANCH  27  30
ENDBRANCH   8  26
TORSDOF 8
ENDMDL
MODEL 2
REMARK VINA RESULT:      -9.1      1.889      3.093
REMARK  8 active torsions:
REMARK  status: ('A' for Active; 'I' for Inactive)
REMARK    1  A    between atoms: C_7  and  C_8 
REMARK    2  A    between atoms: C_10  and  O_11 
REMARK    3  A    between atoms: C_13  and  O_14 
REMARK    4  A    between atoms: O_14  and  C_15 
REMARK    5  A    between atoms: C_15  and  C_16 
REMARK       I    between atoms: C_16  and  N_17 
REMARK    6  A    between atoms: C_21  and  C_22 
REMARK       I    between atoms: C_22  and  N_23 
REMARK    7  A    between atoms: N_23  and  C_24 
REMARK    8  A    between atoms: C_24  and  C_25 
ROOT
HETATM    1  C   UNL     1      29.949  41.753  52.899  1.00  0.00     0.069 C 
HETATM    2  C   UNL     1      28.662  42.028  52.177  1.00  0.00     0.024 C 
HETATM    3  N   UNL     1      28.525  41.396  50.961  1.00  0.00    -0.312 N 
HETATM    4  C   UNL     1      27.391  41.368  50.206  1.00  0.00     0.321 C 
HETATM    5  O   UNL     1      27.333  40.753  49.148  1.00  0.00    -0.247 OA
HETATM    6  N   UNL     1      26.323  42.039  50.700  1.00  0.00    -0.330 N 
HETATM    7  C   UNL     1      26.359  42.938  51.839  1.00  0.00     0.160 C 
HETATM    8  C   UNL     1      27.638  42.785  52.617  1.00  0.00     0.059 C 
HETATM    9  H   UNL     1      29.280  40.826  50.595  1.00  0.00     0.170 HD
HETATM   10  H   UNL     1      25.498  42.025  50.116  1.00  0.00     0.165 HD
ENDROOT
BRANCH   7  11
HETATM   11  C   UNL     1      26.124  44.365  51.359  1.00  0.00    -0.028 A 
HETATM   12  C   UNL     1      25.810  45.394  52.266  1.00  0.00     0.049 A 
HETATM   13  C   UNL     1      25.604  46.705  51.825  1.00  0.00     0.102 A 
HETATM   14  C   UNL     1      25.697  46.993  50.452  1.00  0.00     0.102 A 
HETATM   15  C   UNL     1      26.023  45.981  49.546  1.00  0.00     0.040 A 
HETATM   16  C   UNL     1      26.227  44.675  49.995  1.00  0.00     0.012 A 
BRANCH  13  17
HETATM   17  O   UNL     1      25.280  47.761  52.642  1.00  0.00    -0.353 OA
HETATM   18  C   UNL     1      25.746  47.708  53.985  1.00  0.00     0.210 C 
ENDBRANCH  13  17
BRANCH  14  19
HETATM   19  O   UNL     1      25.505  48.301  50.092  1.00  0.00    -0.339 OA
BRANCH  19  20
HETATM   20  C   UNL     1      24.456  48.556  49.163  1.00  0.00     0.278 C 
BRANCH  20  21
HETATM   21  C   UNL     1      24.918  49.609  48.160  1.00  0.00     0.239 C 
HETATM   22  N   UNL     1      26.239  49.951  48.237  1.00  0.00    -0.368 N 
HETATM   23  H   UNL     1      26.873  49.349  48.756  1.00  0.00     0.159 HD
HETATM   24  H   UNL     1      26.613  50.581  47.542  1.00  0.00     0.159 HD
HETATM   25  O   UNL     1      24.163  50.165  47.369  1.00  0.00    -0.271 OA
ENDBRANCH  20  21
ENDBRANCH  19  20
ENDBRANCH  14  19
ENDBRANCH   7  11
BRANCH   8  26
HETATM   26  C   UNL     1      27.640  43.486  53.925  1.00  0.00     0.252 C 
HETATM   27  N   UNL     1      28.530  44.522  54.021  1.00  0.00    -0.353 N 
HETATM   28  H   UNL     1      29.018  44.841  53.194  1.00  0.00     0.163 HD
HETATM   29  O   UNL     1      26.841  43.178  54.802  1.00  0.00    -0.268 OA
BRANCH  27  30
HETATM   30  C   UNL     1      28.577  45.361  55.195  1.00  0.00     0.161 C 
BRANCH  30  31
HETATM   31  C   UNL     1      29.685  44.929  56.119  1.00  0.00    -0.041 A 
HETATM   32  C   UNL     1      29.876  45.558  57.356  1.00  0.00     0.009 A 
HETATM   33  C   UNL     1      30.903  45.145  58.209  1.00  0.00     0.001 A 
HETATM   34  C   UNL     1      31.749  44.103  57.832  1.00  0.00     0.000 A 
HETATM   35  C   UNL     1      31.571  43.473  56.602  1.00  0.00     0.001 A 
HETATM   36  C   UNL     1      30.544  43.883  55.750  1.00  0.00     0.009 A 
ENDBRANCH  30  31
ENDBRANCH  27  30
ENDBRANCH   8  26
TORSDOF 8
ENDMDL
MODEL 3
REMARK VINA RESULT:      -8.8      2.122      3.470
REMARK  8 active torsions:
REMARK  status: ('A' for Active; 'I' for Inactive)
REMARK    1  A    between atoms: C_7  and  C_8 
REMARK    2  A    between atoms: C_10  and  O_11 
REMARK    3  A    between atoms: C_13  and  O_14 
REMARK    4  A    between atoms: O_14  and  C_15 
REMARK    5  A    between atoms: C_15  and  C_16 
REMARK       I    between atoms: C_16  and  N_17 
REMARK    6  A    between atoms: C_21  and  C_22 
REMARK       I    between atoms: C_22  and  N_23 
REMARK    7  A    between atoms: N_23  and  C_24 
REMARK    8  A    between atoms: C_24  and  C_25 
ROOT
HETATM    1  C   UNL     1      29.747  42.307  53.018  1.00  0.00     0.069 C 
HETATM    2  C   UNL     1      28.375  42.459  52.425  1.00  0.00     0.024 C 
HETATM    3  N   UNL     1      28.131  41.691  51.307  1.00  0.00    -0.312 N 
HETATM    4  C   UNL     1      26.922  41.543  50.698  1.00  0.00     0.321 C 
HETATM    5  O   UNL     1      26.773  40.813  49.725  1.00  0.00    -0.247 OA
HETATM    6  N   UNL     1      25.887  42.231  51.238  1.00  0.00    -0.330 N 
HETATM    7  C   UNL     1      26.011  43.252  52.263  1.00  0.00     0.160 C 
HETATM    8  C   UNL     1      27.375  43.226  52.898  1.00  0.00     0.059 C 
HETATM    9  H   UNL     1      28.865  41.109  50.919  1.00  0.00     0.170 HD
HETATM   10  H   UNL     1      25.004  42.126  50.759  1.00  0.00     0.165 HD
ENDROOT
BRANCH   7  11
HETATM   11  C   UNL     1      25.661  44.608  51.663  1.00  0.00    -0.028 A 
HETATM   12  C   UNL     1      24.617  44.742  50.729  1.00  0.00     0.049 A 
HETATM   13  C   UNL     1      24.291  45.989  50.187  1.00  0.00     0.102 A 
HETATM   14  C   UNL     1      25.030  47.122  50.571  1.00  0.00     0.102 A 
HETATM   15  C   UNL     1      26.059  47.002  51.508  1.00  0.00     0.040 A 
HETATM   16  C   UNL     1      26.377  45.752  52.044  1.00  0.00     0.012 A 
BRANCH  13  17
HETATM   17  O   UNL     1      23.298  46.202  49.262  1.00  0.00    -0.353 OA
HETATM   18  C   UNL     1      22.519  45.076  48.877  1.00  0.00     0.210 C 
ENDBRANCH  13  17
BRANCH  14  19
HETATM   19  O   UNL     1      24.643  48.314  50.018  1.00  0.00    -0.339 OA
BRANCH  19  20
HETATM   20  C   UNL     1      25.592  48.960  49.173  1.00  0.00     0.278 C 
BRANCH  20  21
HETATM   21  C   UNL     1      24.852  49.786  48.126  1.00  0.00     0.239 C 
HETATM   22  N   UNL     1      23.490  49.679  48.151  1.00  0.00    -0.368 N 
HETATM   23  H   UNL     1      23.043  49.277  48.971  1.00  0.00     0.159 HD
HETATM   24  H   UNL     1      22.950  50.269  47.534  1.00  0.00     0.159 HD
HETATM   25  O   UNL     1      25.420  50.462  47.275  1.00  0.00    -0.271 OA
ENDBRANCH  20  21
ENDBRANCH  19  20
ENDBRANCH  14  19
ENDBRANCH   7  11
BRANCH   8  26
HETATM   26  C   UNL     1      27.494  44.069  54.115  1.00  0.00     0.252 C 
HETATM   27  N   UNL     1      28.559  44.928  54.118  1.00  0.00    -0.353 N 
HETATM   28  H   UNL     1      29.107  45.050  53.276  1.00  0.00     0.163 HD
HETATM   29  O   UNL     1      26.641  44.021  54.995  1.00  0.00    -0.268 OA
BRANCH  27  30
HETATM   30  C   UNL     1      28.748  45.880  55.187  1.00  0.00     0.161 C 
BRANCH  30  31
HETATM   31  C   UNL     1      29.721  45.353  56.209  1.00  0.00    -0.041 A 
HETATM   32  C   UNL     1      30.606  44.315  55.892  1.00  0.00     0.009 A 
HETATM   33  C   UNL     1      31.508  43.838  56.846  1.00  0.00     0.001 A 
HETATM   34  C   UNL     1      31.531  44.391  58.125  1.00  0.00     0.000 A 
HETATM   35  C   UNL     1      30.653  45.422  58.454  1.00  0.00     0.001 A 
HETATM   36  C   UNL     1      29.752  45.901  57.501  1.00  0.00     0.009 A 
ENDBRANCH  30  31
ENDBRANCH  27  30
ENDBRANCH   8  26
TORSDOF 8
ENDMDL
MODEL 4
REMARK VINA RESULT:      -8.4      2.914      6.635
REMARK  8 active torsions:
REMARK  status: ('A' for Active; 'I' for Inactive)
REMARK    1  A    between atoms: C_7  and  C_8 
REMARK    2  A    between atoms: C_10  and  O_11 
REMARK    3  A    between atoms: C_13  and  O_14 
REMARK    4  A    between atoms: O_14  and  C_15 
REMARK    5  A    between atoms: C_15  and  C_16 
REMARK       I    between atoms: C_16  and  N_17 
REMARK    6  A    between atoms: C_21  and  C_22 
REMARK       I    between atoms: C_22  and  N_23 
REMARK    7  A    between atoms: N_23  and  C_24 
REMARK    8  A    between atoms: C_24  and  C_25 
ROOT
HETATM    1  C   UNL     1      25.675  44.181  54.744  1.00  0.00     0.069 C 
HETATM    2  C   UNL     1      25.894  44.119  53.260  1.00  0.00     0.024 C 
HETATM    3  N   UNL     1      24.929  44.740  52.498  1.00  0.00    -0.312 N 
HETATM    4  C   UNL     1      24.996  44.949  51.153  1.00  0.00     0.321 C 
HETATM    5  O   UNL     1      24.112  45.542  50.546  1.00  0.00    -0.247 OA
HETATM    6  N   UNL     1      26.102  44.483  50.525  1.00  0.00    -0.330 N 
HETATM    7  C   UNL     1      27.098  43.616  51.128  1.00  0.00     0.160 C 
HETATM    8  C   UNL     1      26.942  43.561  52.624  1.00  0.00     0.059 C 
HETATM    9  H   UNL     1      24.122  45.162  52.943  1.00  0.00     0.170 HD
HETATM   10  H   UNL     1      26.123  44.629  49.526  1.00  0.00     0.165 HD
ENDROOT
BRANCH   7  11
HETATM   11  C   UNL     1      27.027  42.242  50.474  1.00  0.00    -0.028 A 
HETATM   12  C   UNL     1      27.778  41.946  49.321  1.00  0.00     0.049 A 
HETATM   13  C   UNL     1      27.719  40.682  48.727  1.00  0.00     0.102 A 
HETATM   14  C   UNL     1      26.883  39.698  49.283  1.00  0.00     0.102 A 
HETATM   15  C   UNL     1      26.144  39.977  50.435  1.00  0.00     0.040 A 
HETATM   16  C   UNL     1      26.209  41.243  51.022  1.00  0.00     0.012 A 
BRANCH  13  17
HETATM   17  O   UNL     1      28.408  40.318  47.596  1.00  0.00    -0.353 OA
HETATM   18  C   UNL     1      27.999  40.913  46.370  1.00  0.00     0.210 C 
ENDBRANCH  13  17
BRANCH  14  19
HETATM   19  O   UNL     1      26.890  38.476  48.664  1.00  0.00    -0.339 OA
BRANCH  19  20
HETATM   20  C   UNL     1      27.260  37.359  49.468  1.00  0.00     0.278 C 
BRANCH  20  21
HETATM   21  C   UNL     1      28.762  37.406  49.732  1.00  0.00     0.239 C 
HETATM   22  N   UNL     1      29.143  37.084  51.005  1.00  0.00    -0.368 N 
HETATM   23  H   UNL     1      28.478  36.616  51.613  1.00  0.00     0.159 HD
HETATM   24  H   UNL     1      30.130  37.020  51.208  1.00  0.00     0.159 HD
HETATM   25  O   UNL     1      29.583  37.760  48.893  1.00  0.00    -0.271 OA
ENDBRANCH  20  21
ENDBRANCH  19  20
ENDBRANCH  14  19
ENDBRANCH   7  11
BRANCH   8  26
HETATM   26  C   UNL     1      28.069  42.897  53.328  1.00  0.00     0.252 C 
HETATM   27  N   UNL     1      29.161  43.694  53.544  1.00  0.00    -0.353 N 
HETATM   28  H   UNL     1      29.103  44.686  53.355  1.00  0.00     0.163 HD
HETATM   29  O   UNL     1      27.961  41.745  53.733  1.00  0.00    -0.268 OA
BRANCH  27  30
HETATM   30  C   UNL     1      30.293  43.219  54.303  1.00  0.00     0.161 C 
BRANCH  30  31
HETATM   31  C   UNL     1      30.412  43.958  55.609  1.00  0.00    -0.041 A 
HETATM   32  C   UNL     1      29.665  45.119  55.850  1.00  0.00     0.009 A 
HETATM   33  C   UNL     1      29.778  45.794  57.068  1.00  0.00     0.001 A 
HETATM   34  C   UNL     1      30.642  45.317  58.054  1.00  0.00     0.000 A 
HETATM   35  C   UNL     1      31.394  44.167  57.824  1.00  0.00     0.001 A 
HETATM   36  C   UNL     1      31.279  43.491  56.609  1.00  0.00     0.009 A 
ENDBRANCH  30  31
ENDBRANCH  27  30
ENDBRANCH   8  26
TORSDOF 8
ENDMDL
MODEL 5
REMARK VINA RESULT:      -8.3      2.205      5.873
REMARK  8 active torsions:
REMARK  status: ('A' for Active; 'I' for Inactive)
REMARK    1  A    between atoms: C_7  and  C_8 
REMARK    2  A    between atoms: C_10  and  O_11 
REMARK    3  A    between atoms: C_13  and  O_14 
REMARK    4  A    between atoms: O_14  and  C_15 
REMARK    5  A    between atoms: C_15  and  C_16 
REMARK       I    between atoms: C_16  and  N_17 
REMARK    6  A    between atoms: C_21  and  C_22 
REMARK       I    between atoms: C_22  and  N_23 
REMARK    7  A    between atoms: N_23  and  C_24 
REMARK    8  A    between atoms: C_24  and  C_25 
ROOT
HETATM    1  C   UNL     1      25.880  46.090  54.414  1.00  0.00     0.069 C 
HETATM    2  C   UNL     1      26.018  45.971  52.923  1.00  0.00     0.024 C 
HETATM    3  N   UNL     1      25.400  46.964  52.196  1.00  0.00    -0.312 N 
HETATM    4  C   UNL     1      25.521  47.152  50.852  1.00  0.00     0.321 C 
HETATM    5  O   UNL     1      24.967  48.081  50.277  1.00  0.00    -0.247 OA
HETATM    6  N   UNL     1      26.304  46.268  50.187  1.00  0.00    -0.330 N 
HETATM    7  C   UNL     1      26.840  45.044  50.753  1.00  0.00     0.160 C 
HETATM    8  C   UNL     1      26.709  45.029  52.252  1.00  0.00     0.059 C 
HETATM    9  H   UNL     1      24.864  47.683  52.668  1.00  0.00     0.170 HD
HETATM   10  H   UNL     1      26.364  46.412  49.189  1.00  0.00     0.165 HD
ENDROOT
BRANCH   7  11
HETATM   11  C   UNL     1      26.168  43.849  50.087  1.00  0.00    -0.028 A 
HETATM   12  C   UNL     1      26.913  42.927  49.328  1.00  0.00     0.049 A 
HETATM   13  C   UNL     1      26.297  41.826  48.725  1.00  0.00     0.102 A 
HETATM   14  C   UNL     1      24.909  41.649  48.869  1.00  0.00     0.102 A 
HETATM   15  C   UNL     1      24.164  42.550  49.632  1.00  0.00     0.040 A 
HETATM   16  C   UNL     1      24.788  43.647  50.230  1.00  0.00     0.012 A 
BRANCH  13  17
HETATM   17  O   UNL     1      26.948  40.890  47.958  1.00  0.00    -0.353 OA
HETATM   18  C   UNL     1      28.213  40.438  48.424  1.00  0.00     0.210 C 
ENDBRANCH  13  17
BRANCH  14  19
HETATM   19  O   UNL     1      24.375  40.538  48.271  1.00  0.00    -0.339 OA
BRANCH  19  20
HETATM   20  C   UNL     1      23.714  40.744  47.025  1.00  0.00     0.278 C 
BRANCH  20  21
HETATM   21  C   UNL     1      22.206  40.641  47.234  1.00  0.00     0.239 C 
HETATM   22  N   UNL     1      21.740  39.393  47.539  1.00  0.00    -0.368 N 
HETATM   23  H   UNL     1      22.401  38.682  47.840  1.00  0.00     0.159 HD
HETATM   24  H   UNL     1      20.762  39.289  47.767  1.00  0.00     0.159 HD
HETATM   25  O   UNL     1      21.439  41.588  47.088  1.00  0.00    -0.271 OA
ENDBRANCH  20  21
ENDBRANCH  19  20
ENDBRANCH  14  19
ENDBRANCH   7  11
BRANCH   8  26
HETATM   26  C   UNL     1      27.453  43.929  52.916  1.00  0.00     0.252 C 
HETATM   27  N   UNL     1      28.777  44.189  53.148  1.00  0.00    -0.353 N 
HETATM   28  H   UNL     1      29.139  45.122  52.997  1.00  0.00     0.163 HD
HETATM   29  O   UNL     1      26.874  42.912  53.279  1.00  0.00    -0.268 OA
BRANCH  27  30
HETATM   30  C   UNL     1      29.605  43.256  53.875  1.00  0.00     0.161 C 
BRANCH  30  31
HETATM   31  C   UNL     1      30.041  43.839  55.193  1.00  0.00    -0.041 A 
HETATM   32  C   UNL     1      29.541  45.070  55.636  1.00  0.00     0.009 A 
HETATM   33  C   UNL     1      29.946  45.598  56.864  1.00  0.00     0.001 A 
HETATM   34  C   UNL     1      30.857  44.903  57.657  1.00  0.00     0.000 A 
HETATM   35  C   UNL     1      31.365  43.679  57.226  1.00  0.00     0.001 A 
HETATM   36  C   UNL     1      30.959  43.149  56.000  1.00  0.00     0.009 A 
ENDBRANCH  30  31
ENDBRANCH  27  30
ENDBRANCH   8  26
TORSDOF 8
ENDMDL
MODEL 6
REMARK VINA RESULT:      -8.2     11.693     13.657
REMARK  8 active torsions:
REMARK  status: ('A' for Active; 'I' for Inactive)
REMARK    1  A    between atoms: C_7  and  C_8 
REMARK    2  A    between atoms: C_10  and  O_11 
REMARK    3  A    between atoms: C_13  and  O_14 
REMARK    4  A    between atoms: O_14  and  C_15 
REMARK    5  A    between atoms: C_15  and  C_16 
REMARK       I    between atoms: C_16  and  N_17 
REMARK    6  A    between atoms: C_21  and  C_22 
REMARK       I    between atoms: C_22  and  N_23 
REMARK    7  A    between atoms: N_23  and  C_24 
REMARK    8  A    between atoms: C_24  and  C_25 
ROOT
HETATM    1  C   UNL     1      25.815  45.462  39.217  1.00  0.00     0.069 C 
HETATM    2  C   UNL     1      27.254  45.712  38.866  1.00  0.00     0.024 C 
HETATM    3  N   UNL     1      28.049  44.588  38.819  1.00  0.00    -0.312 N 
HETATM    4  C   UNL     1      29.336  44.548  38.373  1.00  0.00     0.321 C 
HETATM    5  O   UNL     1      29.972  43.502  38.328  1.00  0.00    -0.247 OA
HETATM    6  N   UNL     1      29.868  45.724  37.962  1.00  0.00    -0.330 N 
HETATM    7  C   UNL     1      29.257  47.026  38.154  1.00  0.00     0.160 C 
HETATM    8  C   UNL     1      27.813  46.898  38.561  1.00  0.00     0.059 C 
HETATM    9  H   UNL     1      27.663  43.680  39.052  1.00  0.00     0.170 HD
HETATM   10  H   UNL     1      30.830  45.677  37.655  1.00  0.00     0.165 HD
ENDROOT
BRANCH   7  11
HETATM   11  C   UNL     1      30.085  47.826  39.152  1.00  0.00    -0.028 A 
HETATM   12  C   UNL     1      30.698  49.038  38.781  1.00  0.00     0.049 A 
HETATM   13  C   UNL     1      31.450  49.776  39.700  1.00  0.00     0.102 A 
HETATM   14  C   UNL     1      31.607  49.289  41.010  1.00  0.00     0.102 A 
HETATM   15  C   UNL     1      30.991  48.095  41.392  1.00  0.00     0.040 A 
HETATM   16  C   UNL     1      30.242  47.365  40.466  1.00  0.00     0.012 A 
BRANCH  13  17
HETATM   17  O   UNL     1      32.090  50.957  39.415  1.00  0.00    -0.353 OA
HETATM   18  C   UNL     1      32.277  51.276  38.042  1.00  0.00     0.210 C 
ENDBRANCH  13  17
BRANCH  14  19
HETATM   19  O   UNL     1      32.338  50.073  41.864  1.00  0.00    -0.339 OA
BRANCH  19  20
HETATM   20  C   UNL     1      31.795  50.268  43.167  1.00  0.00     0.278 C 
BRANCH  20  21
HETATM   21  C   UNL     1      32.568  51.379  43.871  1.00  0.00     0.239 C 
HETATM   22  N   UNL     1      33.627  51.889  43.174  1.00  0.00    -0.368 N 
HETATM   23  H   UNL     1      33.699  51.695  42.179  1.00  0.00     0.159 HD
HETATM   24  H   UNL     1      34.119  52.682  43.560  1.00  0.00     0.159 HD
HETATM   25  O   UNL     1      32.311  51.765  45.007  1.00  0.00    -0.271 OA
ENDBRANCH  20  21
ENDBRANCH  19  20
ENDBRANCH  14  19
ENDBRANCH   7  11
BRANCH   8  26
HETATM   26  C   UNL     1      27.059  48.177  38.534  1.00  0.00     0.252 C 
HETATM   27  N   UNL     1      27.091  48.888  39.703  1.00  0.00    -0.353 N 
HETATM   28  H   UNL     1      27.711  48.600  40.448  1.00  0.00     0.163 HD
HETATM   29  O   UNL     1      26.524  48.566  37.502  1.00  0.00    -0.268 OA
BRANCH  27  30
HETATM   30  C   UNL     1      26.489  50.197  39.799  1.00  0.00     0.161 C 
BRANCH  30  31
HETATM   31  C   UNL     1      27.541  51.262  39.956  1.00  0.00    -0.041 A 
HETATM   32  C   UNL     1      27.987  51.652  41.225  1.00  0.00     0.009 A 
HETATM   33  C   UNL     1      28.968  52.637  41.360  1.00  0.00     0.001 A 
HETATM   34  C   UNL     1      29.508  53.244  40.227  1.00  0.00     0.000 A 
HETATM   35  C   UNL     1      29.069  52.869  38.959  1.00  0.00     0.001 A 
HETATM   36  C   UNL     1      28.091  51.883  38.824  1.00  0.00     0.009 A 
ENDBRANCH  30  31
ENDBRANCH  27  30
ENDBRANCH   8  26
TORSDOF 8
ENDMDL
MODEL 7
REMARK VINA RESULT:      -8.2      2.117      5.835
REMARK  8 active torsions:
REMARK  status: ('A' for Active; 'I' for Inactive)
REMARK    1  A    between atoms: C_7  and  C_8 
REMARK    2  A    between atoms: C_10  and  O_11 
REMARK    3  A    between atoms: C_13  and  O_14 
REMARK    4  A    between atoms: O_14  and  C_15 
REMARK    5  A    between atoms: C_15  and  C_16 
REMARK       I    between atoms: C_16  and  N_17 
REMARK    6  A    between atoms: C_21  and  C_22 
REMARK       I    between atoms: C_22  and  N_23 
REMARK    7  A    between atoms: N_23  and  C_24 
REMARK    8  A    between atoms: C_24  and  C_25 
ROOT
HETATM    1  C   UNL     1      26.166  47.086  53.695  1.00  0.00     0.069 C 
HETATM    2  C   UNL     1      26.177  46.654  52.256  1.00  0.00     0.024 C 
HETATM    3  N   UNL     1      25.897  47.647  51.344  1.00  0.00    -0.312 N 
HETATM    4  C   UNL     1      26.004  47.531  49.991  1.00  0.00     0.321 C 
HETATM    5  O   UNL     1      25.770  48.472  49.241  1.00  0.00    -0.247 OA
HETATM    6  N   UNL     1      26.402  46.326  49.519  1.00  0.00    -0.330 N 
HETATM    7  C   UNL     1      26.518  45.118  50.315  1.00  0.00     0.160 C 
HETATM    8  C   UNL     1      26.469  45.426  51.787  1.00  0.00     0.059 C 
HETATM    9  H   UNL     1      25.664  48.581  51.663  1.00  0.00     0.170 HD
HETATM   10  H   UNL     1      26.455  46.254  48.512  1.00  0.00     0.165 HD
ENDROOT
BRANCH   7  11
HETATM   11  C   UNL     1      25.445  44.127  49.880  1.00  0.00    -0.028 A 
HETATM   12  C   UNL     1      24.085  44.489  49.867  1.00  0.00     0.049 A 
HETATM   13  C   UNL     1      23.101  43.582  49.460  1.00  0.00     0.102 A 
HETATM   14  C   UNL     1      23.480  42.284  49.073  1.00  0.00     0.102 A 
HETATM   15  C   UNL     1      24.828  41.920  49.069  1.00  0.00     0.040 A 
HETATM   16  C   UNL     1      25.803  42.833  49.478  1.00  0.00     0.012 A 
BRANCH  13  17
HETATM   17  O   UNL     1      21.755  43.851  49.432  1.00  0.00    -0.353 OA
HETATM   18  C   UNL     1      21.314  44.858  48.529  1.00  0.00     0.210 C 
ENDBRANCH  13  17
BRANCH  14  19
HETATM   19  O   UNL     1      22.469  41.454  48.665  1.00  0.00    -0.339 OA
BRANCH  19  20
HETATM   20  C   UNL     1      22.400  41.177  47.268  1.00  0.00     0.278 C 
BRANCH  20  21
HETATM   21  C   UNL     1      22.640  39.688  47.040  1.00  0.00     0.239 C 
HETATM   22  N   UNL     1      21.585  38.872  47.337  1.00  0.00    -0.368 N 
HETATM   23  H   UNL     1      20.663  39.283  47.453  1.00  0.00     0.159 HD
HETATM   24  H   UNL     1      21.664  37.888  47.125  1.00  0.00     0.159 HD
HETATM   25  O   UNL     1      23.714  39.227  46.669  1.00  0.00    -0.271 OA
ENDBRANCH  20  21
ENDBRANCH  19  20
ENDBRANCH  14  19
ENDBRANCH   7  11
BRANCH   8  26
HETATM   26  C   UNL     1      26.827  44.279  52.659  1.00  0.00     0.252 C 
HETATM   27  N   UNL     1      28.168  44.019  52.744  1.00  0.00    -0.353 N 
HETATM   28  H   UNL     1      28.832  44.671  52.347  1.00  0.00     0.163 HD
HETATM   29  O   UNL     1      25.965  43.683  53.295  1.00  0.00    -0.268 OA
BRANCH  27  30
HETATM   30  C   UNL     1      28.677  42.999  53.631  1.00  0.00     0.161 C 
BRANCH  30  31
HETATM   31  C   UNL     1      29.448  43.613  54.770  1.00  0.00    -0.041 A 
HETATM   32  C   UNL     1      29.130  44.891  55.248  1.00  0.00     0.009 A 
HETATM   33  C   UNL     1      29.847  45.449  56.309  1.00  0.00     0.001 A 
HETATM   34  C   UNL     1      30.891  44.736  56.898  1.00  0.00     0.000 A 
HETATM   35  C   UNL     1      31.220  43.467  56.428  1.00  0.00     0.001 A 
HETATM   36  C   UNL     1      30.502  42.907  55.370  1.00  0.00     0.009 A 
ENDBRANCH  30  31
ENDBRANCH  27  30
ENDBRANCH   8  26
TORSDOF 8
ENDMDL
MODEL 8
REMARK VINA RESULT:      -8.0     11.147     13.424
REMARK  8 active torsions:
REMARK  status: ('A' for Active; 'I' for Inactive)
REMARK    1  A    between atoms: C_7  and  C_8 
REMARK    2  A    between atoms: C_10  and  O_11 
REMARK    3  A    between atoms: C_13  and  O_14 
REMARK    4  A    between atoms: O_14  and  C_15 
REMARK    5  A    between atoms: C_15  and  C_16 
REMARK       I    between atoms: C_16  and  N_17 
REMARK    6  A    between atoms: C_21  and  C_22 
REMARK       I    between atoms: C_22  and  N_23 
REMARK    7  A    between atoms: N_23  and  C_24 
REMARK    8  A    between atoms: C_24  and  C_25 
ROOT
HETATM    1  C   UNL     1      26.173  46.054  41.378  1.00  0.00     0.069 C 
HETATM    2  C   UNL     1      27.370  46.184  40.480  1.00  0.00     0.024 C 
HETATM    3  N   UNL     1      27.997  44.999  40.164  1.00  0.00    -0.312 N 
HETATM    4  C   UNL     1      28.996  44.852  39.249  1.00  0.00     0.321 C 
HETATM    5  O   UNL     1      29.484  43.757  38.995  1.00  0.00    -0.247 OA
HETATM    6  N   UNL     1      29.407  45.979  38.620  1.00  0.00    -0.330 N 
HETATM    7  C   UNL     1      29.018  47.328  38.990  1.00  0.00     0.160 C 
HETATM    8  C   UNL     1      27.848  47.319  39.937  1.00  0.00     0.059 C 
HETATM    9  H   UNL     1      27.669  44.126  40.563  1.00  0.00     0.170 HD
HETATM   10  H   UNL     1      30.163  45.853  37.961  1.00  0.00     0.165 HD
ENDROOT
BRANCH   7  11
HETATM   11  C   UNL     1      30.230  48.062  39.552  1.00  0.00    -0.028 A 
HETATM   12  C   UNL     1      30.707  49.242  38.951  1.00  0.00     0.049 A 
HETATM   13  C   UNL     1      31.813  49.920  39.473  1.00  0.00     0.102 A 
HETATM   14  C   UNL     1      32.466  49.402  40.606  1.00  0.00     0.102 A 
HETATM   15  C   UNL     1      31.992  48.240  41.217  1.00  0.00     0.040 A 
HETATM   16  C   UNL     1      30.886  47.570  40.689  1.00  0.00     0.012 A 
BRANCH  13  17
HETATM   17  O   UNL     1      32.349  51.066  38.939  1.00  0.00    -0.353 OA
HETATM   18  C   UNL     1      31.818  51.511  37.697  1.00  0.00     0.210 C 
ENDBRANCH  13  17
BRANCH  14  19
HETATM   19  O   UNL     1      33.529  50.128  41.077  1.00  0.00    -0.339 OA
BRANCH  19  20
HETATM   20  C   UNL     1      33.506  50.462  42.462  1.00  0.00     0.278 C 
BRANCH  20  21
HETATM   21  C   UNL     1      34.510  51.580  42.726  1.00  0.00     0.239 C 
HETATM   22  N   UNL     1      34.567  52.023  44.017  1.00  0.00    -0.368 N 
HETATM   23  H   UNL     1      34.146  51.459  44.750  1.00  0.00     0.159 HD
HETATM   24  H   UNL     1      35.272  52.704  44.260  1.00  0.00     0.159 HD
HETATM   25  O   UNL     1      35.189  52.098  41.845  1.00  0.00    -0.271 OA
ENDBRANCH  20  21
ENDBRANCH  19  20
ENDBRANCH  14  19
ENDBRANCH   7  11
BRANCH   8  26
HETATM   26  C   UNL     1      27.241  48.655  40.163  1.00  0.00     0.252 C 
HETATM   27  N   UNL     1      27.864  49.416  41.115  1.00  0.00    -0.353 N 
HETATM   28  H   UNL     1      28.749  49.113  41.500  1.00  0.00     0.163 HD
HETATM   29  O   UNL     1      26.299  49.039  39.478  1.00  0.00    -0.268 OA
BRANCH  27  30
HETATM   30  C   UNL     1      27.450  50.775  41.374  1.00  0.00     0.161 C 
BRANCH  30  31
HETATM   31  C   UNL     1      28.599  51.731  41.194  1.00  0.00    -0.041 A 
HETATM   32  C   UNL     1      29.738  51.648  42.004  1.00  0.00     0.009 A 
HETATM   33  C   UNL     1      30.802  52.536  41.824  1.00  0.00     0.001 A 
HETATM   34  C   UNL     1      30.733  53.517  40.835  1.00  0.00     0.000 A 
HETATM   35  C   UNL     1      29.603  53.612  40.025  1.00  0.00     0.001 A 
HETATM   36  C   UNL     1      28.542  52.724  40.203  1.00  0.00     0.009 A 
ENDBRANCH  30  31
ENDBRANCH  27  30
ENDBRANCH   8  26
TORSDOF 8
ENDMDL
MODEL 9
REMARK VINA RESULT:      -7.7     17.261     20.132
REMARK  8 active torsions:
REMARK  status: ('A' for Active; 'I' for Inactive)
REMARK    1  A    between atoms: C_7  and  C_8 
REMARK    2  A    between atoms: C_10  and  O_11 
REMARK    3  A    between atoms: C_13  and  O_14 
REMARK    4  A    between atoms: O_14  and  C_15 
REMARK    5  A    between atoms: C_15  and  C_16 
REMARK       I    between atoms: C_16  and  N_17 
REMARK    6  A    between atoms: C_21  and  C_22 
REMARK       I    between atoms: C_22  and  N_23 
REMARK    7  A    between atoms: N_23  and  C_24 
REMARK    8  A    between atoms: C_24  and  C_25 
ROOT
HETATM    1  C   UNL     1      36.116  41.949  65.007  1.00  0.00     0.069 C 
HETATM    2  C   UNL     1      37.411  42.231  64.300  1.00  0.00     0.024 C 
HETATM    3  N   UNL     1      38.122  41.117  63.911  1.00  0.00    -0.312 N 
HETATM    4  C   UNL     1      39.234  41.123  63.124  1.00  0.00     0.321 C 
HETATM    5  O   UNL     1      39.795  40.086  62.790  1.00  0.00    -0.247 OA
HETATM    6  N   UNL     1      39.675  42.336  62.713  1.00  0.00    -0.330 N 
HETATM    7  C   UNL     1      39.187  43.610  63.209  1.00  0.00     0.160 C 
HETATM    8  C   UNL     1      37.908  43.443  63.983  1.00  0.00     0.059 C 
HETATM    9  H   UNL     1      37.782  40.190  64.141  1.00  0.00     0.170 HD
HETATM   10  H   UNL     1      40.512  42.321  62.148  1.00  0.00     0.165 HD
ENDROOT
BRANCH   7  11
HETATM   11  C   UNL     1      40.286  44.287  64.019  1.00  0.00    -0.028 A 
HETATM   12  C   UNL     1      41.063  43.558  64.939  1.00  0.00     0.049 A 
HETATM   13  C   UNL     1      42.077  44.178  65.676  1.00  0.00     0.102 A 
HETATM   14  C   UNL     1      42.311  45.554  65.503  1.00  0.00     0.102 A 
HETATM   15  C   UNL     1      41.555  46.282  64.582  1.00  0.00     0.040 A 
HETATM   16  C   UNL     1      40.544  45.654  63.851  1.00  0.00     0.012 A 
BRANCH  13  17
HETATM   17  O   UNL     1      42.868  43.543  66.602  1.00  0.00    -0.353 OA
HETATM   18  C   UNL     1      42.222  43.016  67.753  1.00  0.00     0.210 C 
ENDBRANCH  13  17
BRANCH  14  19
HETATM   19  O   UNL     1      43.333  46.092  66.240  1.00  0.00    -0.339 OA
BRANCH  19  20
HETATM   20  C   UNL     1      44.270  46.898  65.531  1.00  0.00     0.278 C 
BRANCH  20  21
HETATM   21  C   UNL     1      45.261  45.995  64.804  1.00  0.00     0.239 C 
HETATM   22  N   UNL     1      45.171  46.004  63.440  1.00  0.00    -0.368 N 
HETATM   23  H   UNL     1      44.651  46.750  62.987  1.00  0.00     0.159 HD
HETATM   24  H   UNL     1      45.858  45.487  62.910  1.00  0.00     0.159 HD
HETATM   25  O   UNL     1      46.055  45.260  65.383  1.00  0.00    -0.271 OA
ENDBRANCH  20  21
ENDBRANCH  19  20
ENDBRANCH  14  19
ENDBRANCH   7  11
BRANCH   8  26
HETATM   26  C   UNL     1      37.222  44.719  64.307  1.00  0.00     0.252 C 
HETATM   27  N   UNL     1      37.382  45.147  65.597  1.00  0.00    -0.353 N 
HETATM   28  H   UNL     1      38.043  44.678  66.202  1.00  0.00     0.163 HD
HETATM   29  O   UNL     1      36.629  45.349  63.438  1.00  0.00    -0.268 OA
BRANCH  27  30
HETATM   30  C   UNL     1      36.859  46.420  66.032  1.00  0.00     0.161 C 
BRANCH  30  31
HETATM   31  C   UNL     1      37.907  47.496  65.930  1.00  0.00    -0.041 A 
HETATM   32  C   UNL     1      37.923  48.384  64.847  1.00  0.00     0.009 A 
HETATM   33  C   UNL     1      38.897  49.383  64.764  1.00  0.00     0.001 A 
HETATM   34  C   UNL     1      39.865  49.499  65.761  1.00  0.00     0.000 A 
HETATM   35  C   UNL     1      39.862  48.619  66.840  1.00  0.00     0.001 A 
HETATM   36  C   UNL     1      38.889  47.623  66.925  1.00  0.00     0.009 A 
ENDBRANCH  30  31
ENDBRANCH  27  30
ENDBRANCH   8  26
TORSDOF 8
ENDMDL
MODEL 10
REMARK VINA RESULT:      -7.7      2.776      3.574
REMARK  8 active torsions:
REMARK  status: ('A' for Active; 'I' for Inactive)
REMARK    1  A    between atoms: C_7  and  C_8 
REMARK    2  A    between atoms: C_10  and  O_11 
REMARK    3  A    between atoms: C_13  and  O_14 
REMARK    4  A    between atoms: O_14  and  C_15 
REMARK    5  A    between atoms: C_15  and  C_16 
REMARK       I    between atoms: C_16  and  N_17 
REMARK    6  A    between atoms: C_21  and  C_22 
REMARK       I    between atoms: C_22  and  N_23 
REMARK    7  A    between atoms: N_23  and  C_24 
REMARK    8  A    between atoms: C_24  and  C_25 
ROOT
HETATM    1  C   UNL     1      27.005  41.535  48.749  1.00  0.00     0.069 C 
HETATM    2  C   UNL     1      25.719  42.190  49.164  1.00  0.00     0.024 C 
HETATM    3  N   UNL     1      24.577  41.620  48.646  1.00  0.00    -0.312 N 
HETATM    4  C   UNL     1      23.302  41.940  49.004  1.00  0.00     0.321 C 
HETATM    5  O   UNL     1      22.332  41.364  48.524  1.00  0.00    -0.247 OA
HETATM    6  N   UNL     1      23.163  42.915  49.934  1.00  0.00    -0.330 N 
HETATM    7  C   UNL     1      24.236  43.768  50.410  1.00  0.00     0.160 C 
HETATM    8  C   UNL     1      25.583  43.232  50.007  1.00  0.00     0.059 C 
HETATM    9  H   UNL     1      24.644  40.841  48.002  1.00  0.00     0.170 HD
HETATM   10  H   UNL     1      22.210  43.152  50.169  1.00  0.00     0.165 HD
ENDROOT
BRANCH   7  11
HETATM   11  C   UNL     1      23.996  45.193  49.926  1.00  0.00    -0.028 A 
HETATM   12  C   UNL     1      23.196  45.451  48.797  1.00  0.00     0.049 A 
HETATM   13  C   UNL     1      22.969  46.759  48.358  1.00  0.00     0.102 A 
HETATM   14  C   UNL     1      23.564  47.830  49.049  1.00  0.00     0.102 A 
HETATM   15  C   UNL     1      24.348  47.585  50.178  1.00  0.00     0.040 A 
HETATM   16  C   UNL     1      24.569  46.275  50.609  1.00  0.00     0.012 A 
BRANCH  13  17
HETATM   17  O   UNL     1      22.215  47.094  47.260  1.00  0.00    -0.353 OA
HETATM   18  C   UNL     1      20.920  46.514  47.162  1.00  0.00     0.210 C 
ENDBRANCH  13  17
BRANCH  14  19
HETATM   19  O   UNL     1      23.282  49.086  48.578  1.00  0.00    -0.339 OA
BRANCH  19  20
HETATM   20  C   UNL     1      22.516  49.928  49.436  1.00  0.00     0.278 C 
BRANCH  20  21
HETATM   21  C   UNL     1      21.043  49.826  49.053  1.00  0.00     0.239 C 
HETATM   22  N   UNL     1      20.235  49.232  49.981  1.00  0.00    -0.368 N 
HETATM   23  H   UNL     1      20.580  49.115  50.930  1.00  0.00     0.159 HD
HETATM   24  H   UNL     1      19.240  49.215  49.811  1.00  0.00     0.159 HD
HETATM   25  O   UNL     1      20.600  50.195  47.969  1.00  0.00    -0.271 OA
ENDBRANCH  20  21
ENDBRANCH  19  20
ENDBRANCH  14  19
ENDBRANCH   7  11
BRANCH   8  26
HETATM   26  C   UNL     1      26.728  43.910  50.664  1.00  0.00     0.252 C 
HETATM   27  N   UNL     1      26.839  43.677  52.009  1.00  0.00    -0.353 N 
HETATM   28  H   UNL     1      26.255  42.977  52.446  1.00  0.00     0.163 HD
HETATM   29  O   UNL     1      27.533  44.559  50.005  1.00  0.00    -0.268 OA
BRANCH  27  30
HETATM   30  C   UNL     1      27.959  44.187  52.765  1.00  0.00     0.161 C 
BRANCH  30  31
HETATM   31  C   UNL     1      27.542  45.350  53.624  1.00  0.00    -0.041 A 
HETATM   32  C   UNL     1      26.401  46.101  53.314  1.00  0.00     0.009 A 
HETATM   33  C   UNL     1      26.018  47.175  54.122  1.00  0.00     0.001 A 
HETATM   34  C   UNL     1      26.776  47.510  55.244  1.00  0.00     0.000 A 
HETATM   35  C   UNL     1      27.916  46.774  55.560  1.00  0.00     0.001 A 
HETATM   36  C   UNL     1      28.296  45.699  54.755  1.00  0.00     0.009 A 
ENDBRANCH  30  31
ENDBRANCH  27  30
ENDBRANCH   8  26
TORSDOF 8
ENDMDL
