MODEL 1
REMARK VINA RESULT:      -8.7      0.000      0.000
REMARK  3 active torsions:
REMARK  status: ('A' for Active; 'I' for Inactive)
REMARK    1  A    between atoms: C_3  and  N_4 
REMARK       I    between atoms: N_4  and  C_5 
REMARK    2  A    between atoms: C_5  and  C_6 
REMARK    3  A    between atoms: C_6  and  C_7 
ROOT
HETATM    1  C   UNL     1      26.139  45.422  53.816  1.00  0.00     0.286 C 
HETATM    2  N   UNL     1      26.005  43.901  53.814  1.00  0.00    -0.056 N 
HETATM    3  H   UNL     1      25.493  43.645  54.667  1.00  0.00     0.278 HD
HETATM    4  H   UNL     1      25.350  43.640  53.045  1.00  0.00     0.278 HD
HETATM    5  C   UNL     1      27.264  43.084  53.756  1.00  0.00     0.209 C 
HETATM    6  C   UNL     1      28.276  43.619  54.797  1.00  0.00     0.115 C 
HETATM    7  N   UNL     1      28.420  45.073  54.757  1.00  0.00    -0.353 N 
HETATM    8  C   UNL     1      27.356  45.926  54.607  1.00  0.00     0.249 C 
HETATM    9  O   UNL     1      27.436  47.084  55.001  1.00  0.00    -0.271 OA
HETATM   10  C   UNL     1      27.809  43.027  52.329  1.00  0.00     0.035 C 
HETATM   11  C   UNL     1      29.139  42.283  52.276  1.00  0.00     0.002 C 
HETATM   12  C   UNL     1      30.155  42.911  53.225  1.00  0.00     0.002 C 
HETATM   13  C   UNL     1      29.638  42.929  54.663  1.00  0.00     0.027 C 
HETATM   14  H   UNL     1      29.161  45.488  55.319  1.00  0.00     0.163 HD
ENDROOT
BRANCH   1  15
HETATM   15  C   UNL     1      26.205  46.055  52.416  1.00  0.00     0.146 C 
BRANCH  15  16
HETATM   16  C   UNL     1      24.978  45.819  51.584  1.00  0.00     0.224 C 
HETATM   17  N   UNL     1      24.694  46.558  50.482  1.00  0.00    -0.326 N 
HETATM   18  H   UNL     1      23.839  46.241  50.023  1.00  0.00     0.169 HD
HETATM   19  O   UNL     1      24.232  44.875  51.876  1.00  0.00    -0.273 OA
BRANCH  17  20
HETATM   20  C   UNL     1      25.321  47.632  49.802  1.00  0.00     0.056 A 
HETATM   21  C   UNL     1      26.699  47.823  49.687  1.00  0.00     0.031 A 
HETATM   22  C   UNL     1      27.215  48.916  48.976  1.00  0.00     0.002 A 
HETATM   23  C   UNL     1      26.364  49.837  48.373  1.00  0.00     0.002 A 
HETATM   24  C   UNL     1      24.987  49.674  48.481  1.00  0.00     0.026 A 
HETATM   25  C   UNL     1      24.473  48.584  49.189  1.00  0.00     0.060 A 
HETATM   26 CL   UNL     1      22.749  48.425  49.281  1.00  0.00    -0.082 Cl
ENDBRANCH  17  20
ENDBRANCH  15  16
ENDBRANCH   1  15
TORSDOF 3
ENDMDL
MODEL 2
REMARK VINA RESULT:      -8.4      4.613      7.133
REMARK  3 active torsions:
REMARK  status: ('A' for Active; 'I' for Inactive)
REMARK    1  A    between atoms: C_3  and  N_4 
REMARK       I    between atoms: N_4  and  C_5 
REMARK    2  A    between atoms: C_5  and  C_6 
REMARK    3  A    between atoms: C_6  and  C_7 
ROOT
HETATM    1  C   UNL     1      27.566  44.054  53.093  1.00  0.00     0.286 C 
HETATM    2  N   UNL     1      28.021  44.025  51.636  1.00  0.00    -0.056 N 
HETATM    3  H   UNL     1      27.915  44.980  51.271  1.00  0.00     0.278 HD
HETATM    4  H   UNL     1      29.052  43.870  51.628  1.00  0.00     0.278 HD
HETATM    5  C   UNL     1      27.321  43.083  50.700  1.00  0.00     0.209 C 
HETATM    6  C   UNL     1      25.790  43.224  50.871  1.00  0.00     0.115 C 
HETATM    7  N   UNL     1      25.371  43.209  52.272  1.00  0.00    -0.353 N 
HETATM    8  C   UNL     1      26.050  43.871  53.263  1.00  0.00     0.249 C 
HETATM    9  O   UNL     1      25.470  44.199  54.292  1.00  0.00    -0.271 OA
HETATM   10  C   UNL     1      27.840  41.656  50.878  1.00  0.00     0.035 C 
HETATM   11  C   UNL     1      27.068  40.675  50.002  1.00  0.00     0.002 C 
HETATM   12  C   UNL     1      25.571  40.752  50.284  1.00  0.00     0.002 C 
HETATM   13  C   UNL     1      25.034  42.165  50.061  1.00  0.00     0.027 C 
HETATM   14  H   UNL     1      24.371  43.166  52.462  1.00  0.00     0.163 HD
ENDROOT
BRANCH   1  15
HETATM   15  C   UNL     1      28.260  43.019  53.995  1.00  0.00     0.146 C 
BRANCH  15  16
HETATM   16  C   UNL     1      29.759  43.065  53.932  1.00  0.00     0.224 C 
HETATM   17  N   UNL     1      30.502  43.755  54.833  1.00  0.00    -0.326 N 
HETATM   18  H   UNL     1      31.502  43.652  54.657  1.00  0.00     0.169 HD
HETATM   19  O   UNL     1      30.340  42.397  53.067  1.00  0.00    -0.273 OA
BRANCH  17  20
HETATM   20  C   UNL     1      30.221  44.547  55.974  1.00  0.00     0.056 A 
HETATM   21  C   UNL     1      29.245  45.544  56.047  1.00  0.00     0.031 A 
HETATM   22  C   UNL     1      29.039  46.259  57.236  1.00  0.00     0.002 A 
HETATM   23  C   UNL     1      29.805  45.994  58.367  1.00  0.00     0.002 A 
HETATM   24  C   UNL     1      30.789  45.013  58.316  1.00  0.00     0.026 A 
HETATM   25  C   UNL     1      30.994  44.300  57.132  1.00  0.00     0.060 A 
HETATM   26 CL   UNL     1      32.227  43.080  57.131  1.00  0.00    -0.082 Cl
ENDBRANCH  17  20
ENDBRANCH  15  16
ENDBRANCH   1  15
TORSDOF 3
ENDMDL
MODEL 3
REMARK VINA RESULT:      -8.3      3.663      6.770
REMARK  3 active torsions:
REMARK  status: ('A' for Active; 'I' for Inactive)
REMARK    1  A    between atoms: C_3  and  N_4 
REMARK       I    between atoms: N_4  and  C_5 
REMARK    2  A    between atoms: C_5  and  C_6 
REMARK    3  A    between atoms: C_6  and  C_7 
ROOT
HETATM    1  C   UNL     1      25.843  45.754  53.960  1.00  0.00     0.286 C 
HETATM    2  N   UNL     1      25.078  46.253  52.737  1.00  0.00    -0.056 N 
HETATM    3  H   UNL     1      24.092  46.337  53.014  1.00  0.00     0.278 HD
HETATM    4  H   UNL     1      25.370  47.239  52.560  1.00  0.00     0.278 HD
HETATM    5  C   UNL     1      25.147  45.432  51.482  1.00  0.00     0.209 C 
HETATM    6  C   UNL     1      24.879  43.947  51.820  1.00  0.00     0.115 C 
HETATM    7  N   UNL     1      25.650  43.476  52.970  1.00  0.00    -0.353 N 
HETATM    8  C   UNL     1      25.831  44.225  54.105  1.00  0.00     0.249 C 
HETATM    9  O   UNL     1      26.086  43.674  55.170  1.00  0.00    -0.271 OA
HETATM   10  C   UNL     1      26.464  45.676  50.745  1.00  0.00     0.035 C 
HETATM   11  C   UNL     1      26.586  44.774  49.521  1.00  0.00     0.002 C 
HETATM   12  C   UNL     1      26.439  43.306  49.908  1.00  0.00     0.002 C 
HETATM   13  C   UNL     1      25.104  43.043  50.602  1.00  0.00     0.027 C 
HETATM   14  H   UNL     1      25.628  42.478  53.174  1.00  0.00     0.163 HD
ENDROOT
BRANCH   1  15
HETATM   15  C   UNL     1      27.310  46.213  54.022  1.00  0.00     0.146 C 
BRANCH  15  16
HETATM   16  C   UNL     1      27.682  46.889  55.310  1.00  0.00     0.224 C 
HETATM   17  N   UNL     1      28.645  46.404  56.133  1.00  0.00    -0.326 N 
HETATM   18  H   UNL     1      28.787  47.005  56.945  1.00  0.00     0.169 HD
HETATM   19  O   UNL     1      27.136  47.962  55.599  1.00  0.00    -0.273 OA
BRANCH  17  20
HETATM   20  C   UNL     1      29.521  45.290  56.111  1.00  0.00     0.056 A 
HETATM   21  C   UNL     1      29.548  44.302  55.124  1.00  0.00     0.031 A 
HETATM   22  C   UNL     1      30.470  43.247  55.192  1.00  0.00     0.002 A 
HETATM   23  C   UNL     1      31.374  43.160  56.246  1.00  0.00     0.002 A 
HETATM   24  C   UNL     1      31.359  44.126  57.245  1.00  0.00     0.026 A 
HETATM   25  C   UNL     1      30.442  45.177  57.178  1.00  0.00     0.060 A 
HETATM   26 CL   UNL     1      30.478  46.359  58.447  1.00  0.00    -0.082 Cl
ENDBRANCH  17  20
ENDBRANCH  15  16
ENDBRANCH   1  15
TORSDOF 3
ENDMDL
MODEL 4
REMARK VINA RESULT:      -8.2     12.407     13.433
REMARK  3 active torsions:
REMARK  status: ('A' for Active; 'I' for Inactive)
REMARK    1  A    between atoms: C_3  and  N_4 
REMARK       I    between atoms: N_4  and  C_5 
REMARK    2  A    between atoms: C_5  and  C_6 
REMARK    3  A    between atoms: C_6  and  C_7 
ROOT
HETATM    1  C   UNL     1      32.049  48.793  40.061  1.00  0.00     0.286 C 
HETATM    2  N   UNL     1      32.278  50.282  39.812  1.00  0.00    -0.056 N 
HETATM    3  H   UNL     1      33.066  50.357  39.155  1.00  0.00     0.278 HD
HETATM    4  H   UNL     1      31.466  50.641  39.265  1.00  0.00     0.278 HD
HETATM    5  C   UNL     1      32.568  51.157  40.996  1.00  0.00     0.209 C 
HETATM    6  C   UNL     1      33.659  50.498  41.872  1.00  0.00     0.115 C 
HETATM    7  N   UNL     1      33.401  49.082  42.134  1.00  0.00    -0.353 N 
HETATM    8  C   UNL     1      32.937  48.218  41.176  1.00  0.00     0.249 C 
HETATM    9  O   UNL     1      33.140  47.014  41.284  1.00  0.00    -0.271 OA
HETATM   10  C   UNL     1      31.281  51.493  41.750  1.00  0.00     0.035 C 
HETATM   11  C   UNL     1      31.576  52.301  43.010  1.00  0.00     0.002 C 
HETATM   12  C   UNL     1      32.562  51.565  43.912  1.00  0.00     0.002 C 
HETATM   13  C   UNL     1      33.871  51.267  43.181  1.00  0.00     0.027 C 
HETATM   14  H   UNL     1      34.002  48.612  42.809  1.00  0.00     0.163 HD
ENDROOT
BRANCH   1  15
HETATM   15  C   UNL     1      30.594  48.422  40.393  1.00  0.00     0.146 C 
BRANCH  15  16
HETATM   16  C   UNL     1      29.672  48.459  39.208  1.00  0.00     0.224 C 
HETATM   17  N   UNL     1      28.867  49.519  38.948  1.00  0.00    -0.326 N 
HETATM   18  H   UNL     1      28.332  49.386  38.088  1.00  0.00     0.169 HD
HETATM   19  O   UNL     1      29.696  47.517  38.405  1.00  0.00    -0.273 OA
BRANCH  17  20
HETATM   20  C   UNL     1      28.623  50.773  39.561  1.00  0.00     0.056 A 
HETATM   21  C   UNL     1      27.867  50.975  40.717  1.00  0.00     0.031 A 
HETATM   22  C   UNL     1      27.702  52.262  41.250  1.00  0.00     0.002 A 
HETATM   23  C   UNL     1      28.285  53.366  40.636  1.00  0.00     0.002 A 
HETATM   24  C   UNL     1      29.034  53.191  39.478  1.00  0.00     0.026 A 
HETATM   25  C   UNL     1      29.200  51.910  38.947  1.00  0.00     0.060 A 
HETATM   26 CL   UNL     1      30.154  51.751  37.508  1.00  0.00    -0.082 Cl
ENDBRANCH  17  20
ENDBRANCH  15  16
ENDBRANCH   1  15
TORSDOF 3
ENDMDL
MODEL 5
REMARK VINA RESULT:      -8.1      3.570      6.855
REMARK  3 active torsions:
REMARK  status: ('A' for Active; 'I' for Inactive)
REMARK    1  A    between atoms: C_3  and  N_4 
REMARK       I    between atoms: N_4  and  C_5 
REMARK    2  A    between atoms: C_5  and  C_6 
REMARK    3  A    between atoms: C_6  and  C_7 
ROOT
HETATM    1  C   UNL     1      26.619  42.735  51.133  1.00  0.00     0.286 C 
HETATM    2  N   UNL     1      25.408  43.273  51.892  1.00  0.00    -0.056 N 
HETATM    3  H   UNL     1      24.681  42.548  51.848  1.00  0.00     0.278 HD
HETATM    4  H   UNL     1      25.658  43.312  52.904  1.00  0.00     0.278 HD
HETATM    5  C   UNL     1      24.808  44.570  51.430  1.00  0.00     0.209 C 
HETATM    6  C   UNL     1      24.615  44.533  49.896  1.00  0.00     0.115 C 
HETATM    7  N   UNL     1      25.799  44.054  49.184  1.00  0.00    -0.353 N 
HETATM    8  C   UNL     1      26.555  42.996  49.620  1.00  0.00     0.249 C 
HETATM    9  O   UNL     1      27.240  42.361  48.826  1.00  0.00    -0.271 OA
HETATM   10  C   UNL     1      25.633  45.757  51.927  1.00  0.00     0.035 C 
HETATM   11  C   UNL     1      25.088  47.073  51.383  1.00  0.00     0.002 C 
HETATM   12  C   UNL     1      25.027  47.050  49.859  1.00  0.00     0.002 C 
HETATM   13  C   UNL     1      24.163  45.894  49.353  1.00  0.00     0.027 C 
HETATM   14  H   UNL     1      25.797  44.125  48.168  1.00  0.00     0.163 HD
ENDROOT
BRANCH   1  15
HETATM   15  C   UNL     1      27.971  43.268  51.637  1.00  0.00     0.146 C 
BRANCH  15  16
HETATM   16  C   UNL     1      28.644  42.370  52.635  1.00  0.00     0.224 C 
HETATM   17  N   UNL     1      28.975  42.790  53.881  1.00  0.00    -0.326 N 
HETATM   18  H   UNL     1      29.396  42.042  54.433  1.00  0.00     0.169 HD
HETATM   19  O   UNL     1      28.845  41.187  52.331  1.00  0.00    -0.273 OA
BRANCH  17  20
HETATM   20  C   UNL     1      28.839  44.001  54.605  1.00  0.00     0.056 A 
HETATM   21  C   UNL     1      27.780  44.902  54.482  1.00  0.00     0.031 A 
HETATM   22  C   UNL     1      27.737  46.068  55.261  1.00  0.00     0.002 A 
HETATM   23  C   UNL     1      28.751  46.353  56.170  1.00  0.00     0.002 A 
HETATM   24  C   UNL     1      29.821  45.475  56.304  1.00  0.00     0.026 A 
HETATM   25  C   UNL     1      29.864  44.314  55.529  1.00  0.00     0.060 A 
HETATM   26 CL   UNL     1      31.217  43.251  55.746  1.00  0.00    -0.082 Cl
ENDBRANCH  17  20
ENDBRANCH  15  16
ENDBRANCH   1  15
TORSDOF 3
ENDMDL
MODEL 6
REMARK VINA RESULT:      -7.9      4.369      7.143
REMARK  3 active torsions:
REMARK  status: ('A' for Active; 'I' for Inactive)
REMARK    1  A    between atoms: C_3  and  N_4 
REMARK       I    between atoms: N_4  and  C_5 
REMARK    2  A    between atoms: C_5  and  C_6 
REMARK    3  A    between atoms: C_6  and  C_7 
ROOT
HETATM    1  C   UNL     1      26.959  42.978  51.663  1.00  0.00     0.286 C 
HETATM    2  N   UNL     1      26.224  43.009  53.001  1.00  0.00    -0.056 N 
HETATM    3  H   UNL     1      25.236  42.804  52.804  1.00  0.00     0.278 HD
HETATM    4  H   UNL     1      26.541  42.185  53.557  1.00  0.00     0.278 HD
HETATM    5  C   UNL     1      26.291  44.271  53.812  1.00  0.00     0.209 C 
HETATM    6  C   UNL     1      25.983  45.485  52.905  1.00  0.00     0.115 C 
HETATM    7  N   UNL     1      26.726  45.459  51.646  1.00  0.00    -0.353 N 
HETATM    8  C   UNL     1      26.909  44.316  50.909  1.00  0.00     0.249 C 
HETATM    9  O   UNL     1      27.135  44.390  49.707  1.00  0.00    -0.271 OA
HETATM   10  C   UNL     1      27.624  44.369  54.554  1.00  0.00     0.035 C 
HETATM   11  C   UNL     1      27.742  45.692  55.302  1.00  0.00     0.002 C 
HETATM   12  C   UNL     1      27.555  46.873  54.355  1.00  0.00     0.002 C 
HETATM   13  C   UNL     1      26.204  46.810  53.644  1.00  0.00     0.027 C 
HETATM   14  H   UNL     1      26.678  46.287  51.054  1.00  0.00     0.163 HD
ENDROOT
BRANCH   1  15
HETATM   15  C   UNL     1      28.435  42.558  51.760  1.00  0.00     0.146 C 
BRANCH  15  16
HETATM   16  C   UNL     1      28.649  41.243  52.453  1.00  0.00     0.224 C 
HETATM   17  N   UNL     1      28.719  40.069  51.777  1.00  0.00    -0.326 N 
HETATM   18  H   UNL     1      28.898  39.282  52.402  1.00  0.00     0.169 HD
HETATM   19  O   UNL     1      28.833  41.238  53.677  1.00  0.00    -0.273 OA
BRANCH  17  20
HETATM   20  C   UNL     1      28.643  39.686  50.415  1.00  0.00     0.056 A 
HETATM   21  C   UNL     1      28.032  40.424  49.400  1.00  0.00     0.031 A 
HETATM   22  C   UNL     1      28.027  39.957  48.077  1.00  0.00     0.002 A 
HETATM   23  C   UNL     1      28.627  38.746  47.749  1.00  0.00     0.002 A 
HETATM   24  C   UNL     1      29.234  37.988  48.744  1.00  0.00     0.026 A 
HETATM   25  C   UNL     1      29.239  38.453  50.062  1.00  0.00     0.060 A 
HETATM   26 CL   UNL     1      30.021  37.471  51.259  1.00  0.00    -0.082 Cl
ENDBRANCH  17  20
ENDBRANCH  15  16
ENDBRANCH   1  15
TORSDOF 3
ENDMDL
MODEL 7
REMARK VINA RESULT:      -7.9      3.139      6.490
REMARK  3 active torsions:
REMARK  status: ('A' for Active; 'I' for Inactive)
REMARK    1  A    between atoms: C_3  and  N_4 
REMARK       I    between atoms: N_4  and  C_5 
REMARK    2  A    between atoms: C_5  and  C_6 
REMARK    3  A    between atoms: C_6  and  C_7 
ROOT
HETATM    1  C   UNL     1      26.341  45.947  51.669  1.00  0.00     0.286 C 
HETATM    2  N   UNL     1      26.956  44.858  50.794  1.00  0.00    -0.056 N 
HETATM    3  H   UNL     1      27.638  45.320  50.178  1.00  0.00     0.278 HD
HETATM    4  H   UNL     1      27.546  44.254  51.406  1.00  0.00     0.278 HD
HETATM    5  C   UNL     1      26.034  44.035  49.942  1.00  0.00     0.209 C 
HETATM    6  C   UNL     1      25.060  44.967  49.183  1.00  0.00     0.115 C 
HETATM    7  N   UNL     1      24.450  45.978  50.046  1.00  0.00    -0.353 N 
HETATM    8  C   UNL     1      25.151  46.660  51.009  1.00  0.00     0.249 C 
HETATM    9  O   UNL     1      24.757  47.754  51.396  1.00  0.00    -0.271 OA
HETATM   10  C   UNL     1      25.342  42.957  50.777  1.00  0.00     0.035 C 
HETATM   11  C   UNL     1      24.329  42.179  49.943  1.00  0.00     0.002 C 
HETATM   12  C   UNL     1      23.309  43.117  49.307  1.00  0.00     0.002 C 
HETATM   13  C   UNL     1      23.989  44.169  48.431  1.00  0.00     0.027 C 
HETATM   14  H   UNL     1      23.701  46.544  49.650  1.00  0.00     0.163 HD
ENDROOT
BRANCH   1  15
HETATM   15  C   UNL     1      25.879  45.462  53.054  1.00  0.00     0.146 C 
BRANCH  15  16
HETATM   16  C   UNL     1      26.383  46.302  54.191  1.00  0.00     0.224 C 
HETATM   17  N   UNL     1      27.538  46.021  54.845  1.00  0.00    -0.326 N 
HETATM   18  H   UNL     1      27.742  46.712  55.568  1.00  0.00     0.169 HD
HETATM   19  O   UNL     1      25.757  47.325  54.500  1.00  0.00    -0.273 OA
BRANCH  17  20
HETATM   20  C   UNL     1      28.539  45.024  54.737  1.00  0.00     0.056 A 
HETATM   21  C   UNL     1      28.636  44.083  53.709  1.00  0.00     0.031 A 
HETATM   22  C   UNL     1      29.680  43.147  53.691  1.00  0.00     0.002 A 
HETATM   23  C   UNL     1      30.640  43.133  54.697  1.00  0.00     0.002 A 
HETATM   24  C   UNL     1      30.559  44.053  55.737  1.00  0.00     0.026 A 
HETATM   25  C   UNL     1      29.520  44.986  55.755  1.00  0.00     0.060 A 
HETATM   26 CL   UNL     1      29.476  46.117  57.070  1.00  0.00    -0.082 Cl
ENDBRANCH  17  20
ENDBRANCH  15  16
ENDBRANCH   1  15
TORSDOF 3
ENDMDL
MODEL 8
REMARK VINA RESULT:      -7.9     12.077     13.690
REMARK  3 active torsions:
REMARK  status: ('A' for Active; 'I' for Inactive)
REMARK    1  A    between atoms: C_3  and  N_4 
REMARK       I    between atoms: N_4  and  C_5 
REMARK    2  A    between atoms: C_5  and  C_6 
REMARK    3  A    between atoms: C_6  and  C_7 
ROOT
HETATM    1  C   UNL     1      29.752  47.685  40.998  1.00  0.00     0.286 C 
HETATM    2  N   UNL     1      29.256  49.027  41.532  1.00  0.00    -0.056 N 
HETATM    3  H   UNL     1      28.873  48.852  42.470  1.00  0.00     0.278 HD
HETATM    4  H   UNL     1      30.091  49.625  41.713  1.00  0.00     0.278 HD
HETATM    5  C   UNL     1      28.222  49.764  40.731  1.00  0.00     0.209 C 
HETATM    6  C   UNL     1      27.085  48.793  40.335  1.00  0.00     0.115 C 
HETATM    7  N   UNL     1      27.578  47.530  39.789  1.00  0.00    -0.353 N 
HETATM    8  C   UNL     1      28.653  46.857  40.314  1.00  0.00     0.249 C 
HETATM    9  O   UNL     1      28.769  45.650  40.136  1.00  0.00    -0.271 OA
HETATM   10  C   UNL     1      28.866  50.485  39.546  1.00  0.00     0.035 C 
HETATM   11  C   UNL     1      27.813  51.156  38.671  1.00  0.00     0.002 C 
HETATM   12  C   UNL     1      26.773  50.146  38.196  1.00  0.00     0.002 C 
HETATM   13  C   UNL     1      26.089  49.454  39.375  1.00  0.00     0.027 C 
HETATM   14  H   UNL     1      26.894  46.892  39.385  1.00  0.00     0.163 HD
ENDROOT
BRANCH   1  15
HETATM   15  C   UNL     1      30.930  47.790  40.015  1.00  0.00     0.146 C 
BRANCH  15  16
HETATM   16  C   UNL     1      32.266  47.948  40.682  1.00  0.00     0.224 C 
HETATM   17  N   UNL     1      32.818  49.163  40.921  1.00  0.00    -0.326 N 
HETATM   18  H   UNL     1      33.712  49.084  41.408  1.00  0.00     0.169 HD
HETATM   19  O   UNL     1      32.854  46.936  41.086  1.00  0.00    -0.273 OA
BRANCH  17  20
HETATM   20  C   UNL     1      32.432  50.507  40.692  1.00  0.00     0.056 A 
HETATM   21  C   UNL     1      32.473  51.162  39.460  1.00  0.00     0.031 A 
HETATM   22  C   UNL     1      32.051  52.494  39.341  1.00  0.00     0.002 A 
HETATM   23  C   UNL     1      31.587  53.194  40.450  1.00  0.00     0.002 A 
HETATM   24  C   UNL     1      31.545  52.567  41.691  1.00  0.00     0.026 A 
HETATM   25  C   UNL     1      31.965  51.239  41.809  1.00  0.00     0.060 A 
HETATM   26 CL   UNL     1      31.880  50.505  43.378  1.00  0.00    -0.082 Cl
ENDBRANCH  17  20
ENDBRANCH  15  16
ENDBRANCH   1  15
TORSDOF 3
ENDMDL
MODEL 9
REMARK VINA RESULT:      -7.7     12.212     14.222
REMARK  3 active torsions:
REMARK  status: ('A' for Active; 'I' for Inactive)
REMARK    1  A    between atoms: C_3  and  N_4 
REMARK       I    between atoms: N_4  and  C_5 
REMARK    2  A    between atoms: C_5  and  C_6 
REMARK    3  A    between atoms: C_6  and  C_7 
ROOT
HETATM    1  C   UNL     1      31.274  53.428  40.903  1.00  0.00     0.286 C 
HETATM    2  N   UNL     1      30.106  54.084  40.169  1.00  0.00    -0.056 N 
HETATM    3  H   UNL     1      29.866  54.937  40.692  1.00  0.00     0.278 HD
HETATM    4  H   UNL     1      30.466  54.445  39.259  1.00  0.00     0.278 HD
HETATM    5  C   UNL     1      28.854  53.279  39.979  1.00  0.00     0.209 C 
HETATM    6  C   UNL     1      28.454  52.619  41.320  1.00  0.00     0.115 C 
HETATM    7  N   UNL     1      29.576  51.962  41.988  1.00  0.00    -0.353 N 
HETATM    8  C   UNL     1      30.832  52.510  42.053  1.00  0.00     0.249 C 
HETATM    9  O   UNL     1      31.602  52.177  42.947  1.00  0.00    -0.271 OA
HETATM   10  C   UNL     1      29.013  52.293  38.822  1.00  0.00     0.035 C 
HETATM   11  C   UNL     1      27.782  51.403  38.682  1.00  0.00     0.002 C 
HETATM   12  C   UNL     1      27.487  50.671  39.988  1.00  0.00     0.002 C 
HETATM   13  C   UNL     1      27.279  51.652  41.142  1.00  0.00     0.027 C 
HETATM   14  H   UNL     1      29.368  51.394  42.808  1.00  0.00     0.163 HD
ENDROOT
BRANCH   1  15
HETATM   15  C   UNL     1      32.216  52.616  39.999  1.00  0.00     0.146 C 
BRANCH  15  16
HETATM   16  C   UNL     1      33.079  51.639  40.742  1.00  0.00     0.224 C 
HETATM   17  N   UNL     1      32.768  50.322  40.839  1.00  0.00    -0.326 N 
HETATM   18  H   UNL     1      33.480  49.801  41.353  1.00  0.00     0.169 HD
HETATM   19  O   UNL     1      34.146  52.036  41.228  1.00  0.00    -0.273 OA
BRANCH  17  20
HETATM   20  C   UNL     1      31.716  49.499  40.366  1.00  0.00     0.056 A 
HETATM   21  C   UNL     1      31.322  49.376  39.032  1.00  0.00     0.031 A 
HETATM   22  C   UNL     1      30.274  48.518  38.670  1.00  0.00     0.002 A 
HETATM   23  C   UNL     1      29.601  47.772  39.633  1.00  0.00     0.002 A 
HETATM   24  C   UNL     1      29.969  47.884  40.970  1.00  0.00     0.026 A 
HETATM   25  C   UNL     1      31.013  48.739  41.330  1.00  0.00     0.060 A 
HETATM   26 CL   UNL     1      31.436  48.829  43.010  1.00  0.00    -0.082 Cl
ENDBRANCH  17  20
ENDBRANCH  15  16
ENDBRANCH   1  15
TORSDOF 3
ENDMDL
MODEL 10
REMARK VINA RESULT:      -7.7     11.941     13.635
REMARK  3 active torsions:
REMARK  status: ('A' for Active; 'I' for Inactive)
REMARK    1  A    between atoms: C_3  and  N_4 
REMARK       I    between atoms: N_4  and  C_5 
REMARK    2  A    between atoms: C_5  and  C_6 
REMARK    3  A    between atoms: C_6  and  C_7 
ROOT
HETATM    1  C   UNL     1      31.817  49.461  42.681  1.00  0.00     0.286 C 
HETATM    2  N   UNL     1      30.573  48.598  42.871  1.00  0.00    -0.056 N 
HETATM    3  H   UNL     1      30.886  47.709  43.283  1.00  0.00     0.278 HD
HETATM    4  H   UNL     1      29.998  49.031  43.626  1.00  0.00     0.278 HD
HETATM    5  C   UNL     1      29.740  48.289  41.662  1.00  0.00     0.209 C 
HETATM    6  C   UNL     1      30.656  47.814  40.509  1.00  0.00     0.115 C 
HETATM    7  N   UNL     1      31.821  48.676  40.316  1.00  0.00    -0.353 N 
HETATM    8  C   UNL     1      32.550  49.192  41.357  1.00  0.00     0.249 C 
HETATM    9  O   UNL     1      33.717  49.525  41.185  1.00  0.00    -0.271 OA
HETATM   10  C   UNL     1      28.846  49.476  41.300  1.00  0.00     0.035 C 
HETATM   11  C   UNL     1      28.068  49.209  40.016  1.00  0.00     0.002 C 
HETATM   12  C   UNL     1      29.010  48.864  38.868  1.00  0.00     0.002 C 
HETATM   13  C   UNL     1      29.874  47.648  39.202  1.00  0.00     0.027 C 
HETATM   14  H   UNL     1      32.400  48.507  39.495  1.00  0.00     0.163 HD
ENDROOT
BRANCH   1  15
HETATM   15  C   UNL     1      31.558  50.975  42.765  1.00  0.00     0.146 C 
BRANCH  15  16
HETATM   16  C   UNL     1      32.560  51.806  42.017  1.00  0.00     0.224 C 
HETATM   17  N   UNL     1      32.276  52.389  40.826  1.00  0.00    -0.326 N 
HETATM   18  H   UNL     1      33.061  52.940  40.477  1.00  0.00     0.169 HD
HETATM   19  O   UNL     1      33.663  52.021  42.538  1.00  0.00    -0.273 OA
BRANCH  17  20
HETATM   20  C   UNL     1      31.142  52.444  39.978  1.00  0.00     0.056 A 
HETATM   21  C   UNL     1      29.910  53.012  40.310  1.00  0.00     0.031 A 
HETATM   22  C   UNL     1      28.855  53.027  39.386  1.00  0.00     0.002 A 
HETATM   23  C   UNL     1      29.012  52.473  38.120  1.00  0.00     0.002 A 
HETATM   24  C   UNL     1      30.226  51.893  37.769  1.00  0.00     0.026 A 
HETATM   25  C   UNL     1      31.277  51.878  38.689  1.00  0.00     0.060 A 
HETATM   26 CL   UNL     1      32.772  51.152  38.192  1.00  0.00    -0.082 Cl
ENDBRANCH  17  20
ENDBRANCH  15  16
ENDBRANCH   1  15
TORSDOF 3
ENDMDL
