MODEL 1
REMARK VINA RESULT:     -10.0      0.000      0.000
REMARK  7 active torsions:
REMARK  status: ('A' for Active; 'I' for Inactive)
REMARK    1  A    between atoms: C_8  and  C_9 
REMARK    2  A    between atoms: C_9  and  C_10 
REMARK       I    between atoms: C_10  and  N_11 
REMARK    3  A    between atoms: N_11  and  C_27 
REMARK    4  A    between atoms: N_11  and  C_12 
REMARK    5  A    between atoms: C_12  and  C_13 
REMARK    6  A    between atoms: C_12  and  C_22 
REMARK       I    between atoms: C_13  and  N_14 
REMARK    7  A    between atoms: N_14  and  C_15 
ROOT
HETATM    1  C   UNL     1      26.650  43.176  52.121  1.00  0.00     0.229 C 
HETATM    2  N   UNL     1      25.944  43.642  51.010  1.00  0.00    -0.299 N 
HETATM    3  O   UNL     1      26.916  41.974  52.245  1.00  0.00    -0.273 OA
ENDROOT
BRANCH   2   4
HETATM    4  C   UNL     1      25.895  45.006  50.598  1.00  0.00     0.041 A 
HETATM    5  C   UNL     1      26.943  45.539  49.832  1.00  0.00     0.069 A 
HETATM    6  C   UNL     1      26.910  46.884  49.531  1.00  0.00     0.107 A 
HETATM    7  C   UNL     1      25.889  47.698  49.957  1.00  0.00     0.105 A 
HETATM    8  O   UNL     1      27.849  47.561  48.816  1.00  0.00    -0.323 OA
HETATM    9  O   UNL     1      26.055  48.990  49.563  1.00  0.00    -0.323 OA
HETATM   10  C   UNL     1      24.842  47.213  50.707  1.00  0.00     0.042 A 
HETATM   11  C   UNL     1      27.317  48.901  48.867  1.00  0.00     0.352 A 
HETATM   12  C   UNL     1      24.852  45.852  51.038  1.00  0.00     0.032 A 
ENDBRANCH   2   4
BRANCH   2  13
HETATM   13  C   UNL     1      25.416  42.655  50.033  1.00  0.00     0.225 C 
BRANCH  13  14
HETATM   14  C   UNL     1      26.557  41.939  49.272  1.00  0.00     0.246 C 
HETATM   15  N   UNL     1      26.581  40.561  49.310  1.00  0.00    -0.354 N 
HETATM   16  H   UNL     1      25.643  40.183  49.446  1.00  0.00     0.162 HD
HETATM   17  O   UNL     1      27.317  42.595  48.554  1.00  0.00    -0.271 OA
BRANCH  15  18
HETATM   18  C   UNL     1      27.405  39.734  48.424  1.00  0.00     0.084 C 
HETATM   19  C   UNL     1      28.861  39.527  48.876  1.00  0.00     0.025 C 
HETATM   20  C   UNL     1      28.970  38.685  50.143  1.00  0.00     0.002 C 
HETATM   21  C   UNL     1      28.279  37.337  49.971  1.00  0.00     0.000 C 
HETATM   22  C   UNL     1      26.833  37.500  49.511  1.00  0.00     0.002 C 
HETATM   23  C   UNL     1      26.729  38.362  48.250  1.00  0.00     0.025 C 
ENDBRANCH  15  18
ENDBRANCH  13  14
BRANCH  13  24
HETATM   24  C   UNL     1      24.257  43.219  49.217  1.00  0.00     0.015 A 
HETATM   25  S   UNL     1      22.703  43.309  49.984  1.00  0.00    -0.104 SA
HETATM   26  C   UNL     1      21.986  44.064  48.634  1.00  0.00     0.050 A 
HETATM   27  C   UNL     1      22.882  44.245  47.610  1.00  0.00     0.008 A 
HETATM   28  C   UNL     1      24.179  43.752  47.940  1.00  0.00     0.017 A 
ENDBRANCH  13  24
ENDBRANCH   2  13
BRANCH   1  29
HETATM   29  C   UNL     1      27.016  44.143  53.247  1.00  0.00     0.144 C 
BRANCH  29  30
HETATM   30  C   UNL     1      28.386  43.892  53.813  1.00  0.00    -0.021 A 
HETATM   31  C   UNL     1      28.994  44.485  54.972  1.00  0.00    -0.001 A 
HETATM   32  C   UNL     1      28.594  45.458  55.913  1.00  0.00     0.014 A 
HETATM   33  C   UNL     1      30.256  43.908  55.126  1.00  0.00     0.042 A 
HETATM   34  C   UNL     1      29.463  45.830  56.946  1.00  0.00     0.001 A 
HETATM   35  C   UNL     1      30.715  45.234  57.067  1.00  0.00     0.002 A 
HETATM   36  C   UNL     1      31.133  44.256  56.162  1.00  0.00     0.030 A 
HETATM   37  N   UNL     1      30.411  42.994  54.112  1.00  0.00    -0.365 N 
HETATM   38  H   UNL     1      31.229  42.416  53.983  1.00  0.00     0.165 HD
HETATM   39  C   UNL     1      29.297  42.974  53.319  1.00  0.00     0.097 A 
ENDBRANCH  29  30
ENDBRANCH   1  29
TORSDOF 7
ENDMDL
MODEL 2
REMARK VINA RESULT:      -9.7     11.337     13.788
REMARK  7 active torsions:
REMARK  status: ('A' for Active; 'I' for Inactive)
REMARK    1  A    between atoms: C_8  and  C_9 
REMARK    2  A    between atoms: C_9  and  C_10 
REMARK       I    between atoms: C_10  and  N_11 
REMARK    3  A    between atoms: N_11  and  C_27 
REMARK    4  A    between atoms: N_11  and  C_12 
REMARK    5  A    between atoms: C_12  and  C_13 
REMARK    6  A    between atoms: C_12  and  C_22 
REMARK       I    between atoms: C_13  and  N_14 
REMARK    7  A    between atoms: N_14  and  C_15 
ROOT
HETATM    1  C   UNL     1      28.463  48.884  40.867  1.00  0.00     0.229 C 
HETATM    2  N   UNL     1      28.202  48.127  39.723  1.00  0.00    -0.299 N 
HETATM    3  O   UNL     1      27.999  50.024  40.993  1.00  0.00    -0.273 OA
ENDROOT
BRANCH   2   4
HETATM    4  C   UNL     1      28.380  46.716  39.631  1.00  0.00     0.041 A 
HETATM    5  C   UNL     1      29.115  46.176  38.564  1.00  0.00     0.069 A 
HETATM    6  C   UNL     1      29.189  44.804  38.453  1.00  0.00     0.107 A 
HETATM    7  C   UNL     1      28.569  43.969  39.350  1.00  0.00     0.105 A 
HETATM    8  O   UNL     1      29.844  44.120  37.475  1.00  0.00    -0.323 OA
HETATM    9  O   UNL     1      28.755  42.655  39.051  1.00  0.00    -0.323 OA
HETATM   10  C   UNL     1      27.841  44.459  40.411  1.00  0.00     0.042 A 
HETATM   11  C   UNL     1      29.538  42.760  37.843  1.00  0.00     0.352 A 
HETATM   12  C   UNL     1      27.739  45.850  40.544  1.00  0.00     0.032 A 
ENDBRANCH   2   4
BRANCH   2  13
HETATM   13  C   UNL     1      27.453  48.757  38.605  1.00  0.00     0.225 C 
BRANCH  13  14
HETATM   14  C   UNL     1      27.901  50.218  38.370  1.00  0.00     0.246 C 
HETATM   15  N   UNL     1      29.252  50.485  38.408  1.00  0.00    -0.354 N 
HETATM   16  H   UNL     1      29.794  49.659  38.149  1.00  0.00     0.162 HD
HETATM   17  O   UNL     1      27.069  51.063  38.026  1.00  0.00    -0.271 OA
BRANCH  15  18
HETATM   18  C   UNL     1      29.853  51.733  37.929  1.00  0.00     0.084 C 
HETATM   19  C   UNL     1      29.805  52.913  38.915  1.00  0.00     0.025 C 
HETATM   20  C   UNL     1      30.686  52.690  40.142  1.00  0.00     0.002 C 
HETATM   21  C   UNL     1      32.127  52.401  39.740  1.00  0.00     0.000 C 
HETATM   22  C   UNL     1      32.216  51.243  38.752  1.00  0.00     0.002 C 
HETATM   23  C   UNL     1      31.316  51.463  37.532  1.00  0.00     0.025 C 
ENDBRANCH  15  18
ENDBRANCH  13  14
BRANCH  13  24
HETATM   24  C   UNL     1      25.956  48.471  38.685  1.00  0.00     0.015 A 
HETATM   25  S   UNL     1      25.141  48.040  37.215  1.00  0.00    -0.104 SA
HETATM   26  C   UNL     1      23.655  47.789  38.013  1.00  0.00     0.050 A 
HETATM   27  C   UNL     1      23.749  48.031  39.361  1.00  0.00     0.008 A 
HETATM   28  C   UNL     1      25.064  48.430  39.744  1.00  0.00     0.017 A 
ENDBRANCH  13  24
ENDBRANCH   2  13
BRANCH   1  29
HETATM   29  C   UNL     1      29.410  48.340  41.937  1.00  0.00     0.144 C 
BRANCH  29  30
HETATM   30  C   UNL     1      30.858  48.597  41.624  1.00  0.00    -0.021 A 
HETATM   31  C   UNL     1      31.731  49.588  42.190  1.00  0.00    -0.001 A 
HETATM   32  C   UNL     1      31.574  50.620  43.141  1.00  0.00     0.014 A 
HETATM   33  C   UNL     1      32.992  49.413  41.619  1.00  0.00     0.042 A 
HETATM   34  C   UNL     1      32.660  51.441  43.466  1.00  0.00     0.001 A 
HETATM   35  C   UNL     1      33.904  51.238  42.874  1.00  0.00     0.002 A 
HETATM   36  C   UNL     1      34.095  50.215  41.943  1.00  0.00     0.030 A 
HETATM   37  N   UNL     1      32.900  48.355  40.748  1.00  0.00    -0.365 N 
HETATM   38  H   UNL     1      33.669  47.996  40.200  1.00  0.00     0.165 HD
HETATM   39  C   UNL     1      31.626  47.857  40.742  1.00  0.00     0.097 A 
ENDBRANCH  29  30
ENDBRANCH   1  29
TORSDOF 7
ENDMDL
MODEL 3
REMARK VINA RESULT:      -9.4     10.971     13.373
REMARK  7 active torsions:
REMARK  status: ('A' for Active; 'I' for Inactive)
REMARK    1  A    between atoms: C_8  and  C_9 
REMARK    2  A    between atoms: C_9  and  C_10 
REMARK       I    between atoms: C_10  and  N_11 
REMARK    3  A    between atoms: N_11  and  C_27 
REMARK    4  A    between atoms: N_11  and  C_12 
REMARK    5  A    between atoms: C_12  and  C_13 
REMARK    6  A    between atoms: C_12  and  C_22 
REMARK       I    between atoms: C_13  and  N_14 
REMARK    7  A    between atoms: N_14  and  C_15 
ROOT
HETATM    1  C   UNL     1      29.006  49.370  41.715  1.00  0.00     0.229 C 
HETATM    2  N   UNL     1      28.501  48.854  40.521  1.00  0.00    -0.299 N 
HETATM    3  O   UNL     1      28.660  50.487  42.120  1.00  0.00    -0.273 OA
ENDROOT
BRANCH   2   4
HETATM    4  C   UNL     1      28.551  47.478  40.151  1.00  0.00     0.041 A 
HETATM    5  C   UNL     1      27.730  46.550  40.812  1.00  0.00     0.069 A 
HETATM    6  C   UNL     1      27.871  45.216  40.495  1.00  0.00     0.107 A 
HETATM    7  C   UNL     1      28.781  44.783  39.561  1.00  0.00     0.105 A 
HETATM    8  O   UNL     1      27.170  44.190  41.049  1.00  0.00    -0.323 OA
HETATM    9  O   UNL     1      28.768  43.432  39.409  1.00  0.00    -0.323 OA
HETATM   10  C   UNL     1      29.601  45.662  38.890  1.00  0.00     0.042 A 
HETATM   11  C   UNL     1      27.765  43.059  40.379  1.00  0.00     0.352 A 
HETATM   12  C   UNL     1      29.489  47.024  39.197  1.00  0.00     0.032 A 
ENDBRANCH   2   4
BRANCH   2  13
HETATM   13  C   UNL     1      27.628  49.715  39.682  1.00  0.00     0.225 C 
BRANCH  13  14
HETATM   14  C   UNL     1      26.624  48.876  38.855  1.00  0.00     0.246 C 
HETATM   15  N   UNL     1      25.375  48.661  39.397  1.00  0.00    -0.354 N 
HETATM   16  H   UNL     1      25.119  49.417  40.034  1.00  0.00     0.162 HD
HETATM   17  O   UNL     1      26.911  48.545  37.702  1.00  0.00    -0.271 OA
BRANCH  15  18
HETATM   18  C   UNL     1      24.233  48.147  38.636  1.00  0.00     0.084 C 
HETATM   19  C   UNL     1      23.333  47.149  39.387  1.00  0.00     0.025 C 
HETATM   20  C   UNL     1      22.571  47.796  40.539  1.00  0.00     0.002 C 
HETATM   21  C   UNL     1      21.746  48.983  40.057  1.00  0.00     0.000 C 
HETATM   22  C   UNL     1      22.601  49.992  39.297  1.00  0.00     0.002 C 
HETATM   23  C   UNL     1      23.379  49.334  38.154  1.00  0.00     0.025 C 
ENDBRANCH  15  18
ENDBRANCH  13  14
BRANCH  13  24
HETATM   24  C   UNL     1      28.417  50.801  38.959  1.00  0.00     0.015 A 
HETATM   25  S   UNL     1      30.050  50.438  38.500  1.00  0.00    -0.104 SA
HETATM   26  C   UNL     1      30.256  51.939  37.720  1.00  0.00     0.050 A 
HETATM   27  C   UNL     1      29.129  52.719  37.801  1.00  0.00     0.008 A 
HETATM   28  C   UNL     1      28.080  52.071  38.518  1.00  0.00     0.017 A 
ENDBRANCH  13  24
ENDBRANCH   2  13
BRANCH   1  29
HETATM   29  C   UNL     1      30.073  48.593  42.487  1.00  0.00     0.144 C 
BRANCH  29  30
HETATM   30  C   UNL     1      31.474  48.962  42.084  1.00  0.00    -0.021 A 
HETATM   31  C   UNL     1      32.327  49.971  42.649  1.00  0.00    -0.001 A 
HETATM   32  C   UNL     1      32.184  50.930  43.675  1.00  0.00     0.014 A 
HETATM   33  C   UNL     1      33.548  49.914  41.976  1.00  0.00     0.042 A 
HETATM   34  C   UNL     1      33.240  51.799  43.972  1.00  0.00     0.001 A 
HETATM   35  C   UNL     1      34.443  51.714  43.278  1.00  0.00     0.002 A 
HETATM   36  C   UNL     1      34.623  50.765  42.269  1.00  0.00     0.030 A 
HETATM   37  N   UNL     1      33.452  48.908  41.045  1.00  0.00    -0.365 N 
HETATM   38  H   UNL     1      34.196  48.634  40.419  1.00  0.00     0.165 HD
HETATM   39  C   UNL     1      32.214  48.329  41.101  1.00  0.00     0.097 A 
ENDBRANCH  29  30
ENDBRANCH   1  29
TORSDOF 7
ENDMDL
MODEL 4
REMARK VINA RESULT:      -8.9     17.105     19.532
REMARK  7 active torsions:
REMARK  status: ('A' for Active; 'I' for Inactive)
REMARK    1  A    between atoms: C_8  and  C_9 
REMARK    2  A    between atoms: C_9  and  C_10 
REMARK       I    between atoms: C_10  and  N_11 
REMARK    3  A    between atoms: N_11  and  C_27 
REMARK    4  A    between atoms: N_11  and  C_12 
REMARK    5  A    between atoms: C_12  and  C_13 
REMARK    6  A    between atoms: C_12  and  C_22 
REMARK       I    between atoms: C_13  and  N_14 
REMARK    7  A    between atoms: N_14  and  C_15 
ROOT
HETATM    1  C   UNL     1      37.432  45.155  64.832  1.00  0.00     0.229 C 
HETATM    2  N   UNL     1      37.192  44.110  65.726  1.00  0.00    -0.299 N 
HETATM    3  O   UNL     1      38.509  45.237  64.227  1.00  0.00    -0.273 OA
ENDROOT
BRANCH   2   4
HETATM    4  C   UNL     1      35.901  43.727  66.191  1.00  0.00     0.041 A 
HETATM    5  C   UNL     1      35.479  44.117  67.472  1.00  0.00     0.069 A 
HETATM    6  C   UNL     1      34.263  43.651  67.927  1.00  0.00     0.107 A 
HETATM    7  C   UNL     1      33.470  42.828  67.165  1.00  0.00     0.105 A 
HETATM    8  O   UNL     1      33.715  43.918  69.143  1.00  0.00    -0.323 OA
HETATM    9  O   UNL     1      32.323  42.474  67.804  1.00  0.00    -0.323 OA
HETATM   10  C   UNL     1      33.847  42.426  65.904  1.00  0.00     0.042 A 
HETATM   11  C   UNL     1      32.501  43.144  69.071  1.00  0.00     0.352 A 
HETATM   12  C   UNL     1      35.082  42.874  65.417  1.00  0.00     0.032 A 
ENDBRANCH   2   4
BRANCH   2  13
HETATM   13  C   UNL     1      38.294  43.160  66.029  1.00  0.00     0.225 C 
BRANCH  13  14
HETATM   14  C   UNL     1      39.431  43.841  66.826  1.00  0.00     0.246 C 
HETATM   15  N   UNL     1      40.495  44.348  66.111  1.00  0.00    -0.354 N 
HETATM   16  H   UNL     1      40.209  44.606  65.166  1.00  0.00     0.162 HD
HETATM   17  O   UNL     1      39.297  44.032  68.038  1.00  0.00    -0.271 OA
BRANCH  15  18
HETATM   18  C   UNL     1      41.494  45.261  66.672  1.00  0.00     0.084 C 
HETATM   19  C   UNL     1      42.960  44.821  66.508  1.00  0.00     0.025 C 
HETATM   20  C   UNL     1      43.421  44.840  65.054  1.00  0.00     0.002 C 
HETATM   21  C   UNL     1      43.215  46.215  64.428  1.00  0.00     0.000 C 
HETATM   22  C   UNL     1      41.774  46.693  64.580  1.00  0.00     0.002 C 
HETATM   23  C   UNL     1      41.310  46.653  66.039  1.00  0.00     0.025 C 
ENDBRANCH  15  18
ENDBRANCH  13  14
BRANCH  13  24
HETATM   24  C   UNL     1      38.676  42.319  64.815  1.00  0.00     0.015 A 
HETATM   25  S   UNL     1      39.977  41.187  64.999  1.00  0.00    -0.104 SA
HETATM   26  C   UNL     1      39.793  40.586  63.414  1.00  0.00     0.050 A 
HETATM   27  C   UNL     1      38.781  41.221  62.739  1.00  0.00     0.008 A 
HETATM   28  C   UNL     1      38.147  42.219  63.537  1.00  0.00     0.017 A 
ENDBRANCH  13  24
ENDBRANCH   2  13
BRANCH   1  29
HETATM   29  C   UNL     1      36.395  46.266  64.666  1.00  0.00     0.144 C 
BRANCH  29  30
HETATM   30  C   UNL     1      36.573  47.386  65.654  1.00  0.00    -0.021 A 
HETATM   31  C   UNL     1      37.552  48.438  65.643  1.00  0.00    -0.001 A 
HETATM   32  C   UNL     1      38.636  48.774  64.803  1.00  0.00     0.014 A 
HETATM   33  C   UNL     1      37.293  49.264  66.737  1.00  0.00     0.042 A 
HETATM   34  C   UNL     1      39.424  49.893  65.095  1.00  0.00     0.001 A 
HETATM   35  C   UNL     1      39.138  50.693  66.197  1.00  0.00     0.002 A 
HETATM   36  C   UNL     1      38.062  50.397  67.037  1.00  0.00     0.030 A 
HETATM   37  N   UNL     1      36.198  48.747  67.386  1.00  0.00    -0.365 N 
HETATM   38  H   UNL     1      35.779  49.151  68.212  1.00  0.00     0.165 HD
HETATM   39  C   UNL     1      35.756  47.622  66.746  1.00  0.00     0.097 A 
ENDBRANCH  29  30
ENDBRANCH   1  29
TORSDOF 7
ENDMDL
MODEL 5
REMARK VINA RESULT:      -8.8      9.130     12.670
REMARK  7 active torsions:
REMARK  status: ('A' for Active; 'I' for Inactive)
REMARK    1  A    between atoms: C_8  and  C_9 
REMARK    2  A    between atoms: C_9  and  C_10 
REMARK       I    between atoms: C_10  and  N_11 
REMARK    3  A    between atoms: N_11  and  C_27 
REMARK    4  A    between atoms: N_11  and  C_12 
REMARK    5  A    between atoms: C_12  and  C_13 
REMARK    6  A    between atoms: C_12  and  C_22 
REMARK       I    between atoms: C_13  and  N_14 
REMARK    7  A    between atoms: N_14  and  C_15 
ROOT
HETATM    1  C   UNL     1      17.879  51.295  46.957  1.00  0.00     0.229 C 
HETATM    2  N   UNL     1      16.509  51.215  47.217  1.00  0.00    -0.299 N 
HETATM    3  O   UNL     1      18.420  50.515  46.163  1.00  0.00    -0.273 OA
ENDROOT
BRANCH   2   4
HETATM    4  C   UNL     1      15.740  52.253  47.819  1.00  0.00     0.041 A 
HETATM    5  C   UNL     1      15.630  52.316  49.217  1.00  0.00     0.069 A 
HETATM    6  C   UNL     1      14.804  53.276  49.762  1.00  0.00     0.107 A 
HETATM    7  C   UNL     1      14.098  54.157  48.978  1.00  0.00     0.105 A 
HETATM    8  O   UNL     1      14.572  53.464  51.089  1.00  0.00    -0.323 OA
HETATM    9  O   UNL     1      13.335  55.009  49.713  1.00  0.00    -0.323 OA
HETATM   10  C   UNL     1      14.181  54.129  47.604  1.00  0.00     0.042 A 
HETATM   11  C   UNL     1      13.616  54.543  51.050  1.00  0.00     0.352 A 
HETATM   12  C   UNL     1      15.005  53.158  47.020  1.00  0.00     0.032 A 
ENDBRANCH   2   4
BRANCH   2  13
HETATM   13  C   UNL     1      15.730  50.105  46.611  1.00  0.00     0.225 C 
BRANCH  13  14
HETATM   14  C   UNL     1      15.951  48.774  47.368  1.00  0.00     0.246 C 
HETATM   15  N   UNL     1      17.243  48.449  47.722  1.00  0.00    -0.354 N 
HETATM   16  H   UNL     1      17.810  49.290  47.840  1.00  0.00     0.162 HD
HETATM   17  O   UNL     1      14.977  48.119  47.748  1.00  0.00    -0.271 OA
BRANCH  15  18
HETATM   18  C   UNL     1      17.587  47.392  48.677  1.00  0.00     0.084 C 
HETATM   19  C   UNL     1      17.629  45.966  48.099  1.00  0.00     0.025 C 
HETATM   20  C   UNL     1      18.773  45.766  47.110  1.00  0.00     0.002 C 
HETATM   21  C   UNL     1      20.116  46.113  47.742  1.00  0.00     0.000 C 
HETATM   22  C   UNL     1      20.112  47.517  48.338  1.00  0.00     0.002 C 
HETATM   23  C   UNL     1      18.949  47.719  49.315  1.00  0.00     0.025 C 
ENDBRANCH  15  18
ENDBRANCH  13  14
BRANCH  13  24
HETATM   24  C   UNL     1      15.840  50.089  45.090  1.00  0.00     0.015 A 
HETATM   25  S   UNL     1      16.134  48.562  44.321  1.00  0.00    -0.104 SA
HETATM   26  C   UNL     1      16.043  49.235  42.758  1.00  0.00     0.050 A 
HETATM   27  C   UNL     1      15.805  50.586  42.793  1.00  0.00     0.008 A 
HETATM   28  C   UNL     1      15.698  51.077  44.128  1.00  0.00     0.017 A 
ENDBRANCH  13  24
ENDBRANCH   2  13
BRANCH   1  29
HETATM   29  C   UNL     1      18.741  52.291  47.733  1.00  0.00     0.144 C 
BRANCH  29  30
HETATM   30  C   UNL     1      19.635  51.629  48.745  1.00  0.00    -0.021 A 
HETATM   31  C   UNL     1      20.945  51.072  48.550  1.00  0.00    -0.001 A 
HETATM   32  C   UNL     1      21.800  50.917  47.437  1.00  0.00     0.014 A 
HETATM   33  C   UNL     1      21.394  50.610  49.788  1.00  0.00     0.042 A 
HETATM   34  C   UNL     1      23.045  50.297  47.595  1.00  0.00     0.001 A 
HETATM   35  C   UNL     1      23.459  49.847  48.844  1.00  0.00     0.002 A 
HETATM   36  C   UNL     1      22.643  50.000  49.968  1.00  0.00     0.030 A 
HETATM   37  N   UNL     1      20.407  50.881  50.705  1.00  0.00    -0.365 N 
HETATM   38  H   UNL     1      20.466  50.665  51.689  1.00  0.00     0.165 HD
HETATM   39  C   UNL     1      19.348  51.492  50.092  1.00  0.00     0.097 A 
ENDBRANCH  29  30
ENDBRANCH   1  29
TORSDOF 7
ENDMDL
MODEL 6
REMARK VINA RESULT:      -8.7      5.983      8.315
REMARK  7 active torsions:
REMARK  status: ('A' for Active; 'I' for Inactive)
REMARK    1  A    between atoms: C_8  and  C_9 
REMARK    2  A    between atoms: C_9  and  C_10 
REMARK       I    between atoms: C_10  and  N_11 
REMARK    3  A    between atoms: N_11  and  C_27 
REMARK    4  A    between atoms: N_11  and  C_12 
REMARK    5  A    between atoms: C_12  and  C_13 
REMARK    6  A    between atoms: C_12  and  C_22 
REMARK       I    between atoms: C_13  and  N_14 
REMARK    7  A    between atoms: N_14  and  C_15 
ROOT
HETATM    1  C   UNL     1      21.523  47.675  47.463  1.00  0.00     0.229 C 
HETATM    2  N   UNL     1      20.207  47.489  47.890  1.00  0.00    -0.299 N 
HETATM    3  O   UNL     1      22.038  46.906  46.642  1.00  0.00    -0.273 OA
ENDROOT
BRANCH   2   4
HETATM    4  C   UNL     1      19.419  48.485  48.536  1.00  0.00     0.041 A 
HETATM    5  C   UNL     1      18.944  49.582  47.800  1.00  0.00     0.069 A 
HETATM    6  C   UNL     1      18.265  50.574  48.476  1.00  0.00     0.107 A 
HETATM    7  C   UNL     1      18.048  50.512  49.831  1.00  0.00     0.105 A 
HETATM    8  O   UNL     1      17.754  51.706  47.920  1.00  0.00    -0.323 OA
HETATM    9  O   UNL     1      17.373  51.596  50.299  1.00  0.00    -0.323 OA
HETATM   10  C   UNL     1      18.496  49.452  50.587  1.00  0.00     0.042 A 
HETATM   11  C   UNL     1      17.218  52.364  49.087  1.00  0.00     0.352 A 
HETATM   12  C   UNL     1      19.198  48.433  49.931  1.00  0.00     0.032 A 
ENDBRANCH   2   4
BRANCH   2  13
HETATM   13  C   UNL     1      19.469  46.283  47.430  1.00  0.00     0.225 C 
BRANCH  13  14
HETATM   14  C   UNL     1      20.272  44.988  47.696  1.00  0.00     0.246 C 
HETATM   15  N   UNL     1      20.750  44.299  46.602  1.00  0.00    -0.354 N 
HETATM   16  H   UNL     1      20.900  44.928  45.812  1.00  0.00     0.162 HD
HETATM   17  O   UNL     1      20.577  44.686  48.853  1.00  0.00    -0.271 OA
BRANCH  15  18
HETATM   18  C   UNL     1      21.755  43.235  46.681  1.00  0.00     0.084 C 
HETATM   19  C   UNL     1      21.276  41.838  46.250  1.00  0.00     0.025 C 
HETATM   20  C   UNL     1      20.971  41.755  44.757  1.00  0.00     0.002 C 
HETATM   21  C   UNL     1      22.176  42.175  43.924  1.00  0.00     0.000 C 
HETATM   22  C   UNL     1      22.689  43.553  44.330  1.00  0.00     0.002 C 
HETATM   23  C   UNL     1      22.975  43.636  45.833  1.00  0.00     0.025 C 
ENDBRANCH  15  18
ENDBRANCH  13  14
BRANCH  13  24
HETATM   24  C   UNL     1      18.861  46.476  46.044  1.00  0.00     0.015 A 
HETATM   25  S   UNL     1      17.311  45.758  45.740  1.00  0.00    -0.104 SA
HETATM   26  C   UNL     1      17.222  46.413  44.169  1.00  0.00     0.050 A 
HETATM   27  C   UNL     1      18.334  47.154  43.856  1.00  0.00     0.008 A 
HETATM   28  C   UNL     1      19.277  47.182  44.927  1.00  0.00     0.017 A 
ENDBRANCH  13  24
ENDBRANCH   2  13
BRANCH   1  29
HETATM   29  C   UNL     1      22.373  48.783  48.085  1.00  0.00     0.144 C 
BRANCH  29  30
HETATM   30  C   UNL     1      23.598  48.260  48.783  1.00  0.00    -0.021 A 
HETATM   31  C   UNL     1      24.929  48.800  48.773  1.00  0.00    -0.001 A 
HETATM   32  C   UNL     1      25.547  49.902  48.143  1.00  0.00     0.014 A 
HETATM   33  C   UNL     1      25.715  47.997  49.601  1.00  0.00     0.042 A 
HETATM   34  C   UNL     1      26.911  50.145  48.341  1.00  0.00     0.001 A 
HETATM   35  C   UNL     1      27.664  49.322  49.172  1.00  0.00     0.002 A 
HETATM   36  C   UNL     1      27.078  48.233  49.824  1.00  0.00     0.030 A 
HETATM   37  N   UNL     1      24.900  47.013  50.105  1.00  0.00    -0.365 N 
HETATM   38  H   UNL     1      25.201  46.292  50.745  1.00  0.00     0.165 HD
HETATM   39  C   UNL     1      23.628  47.159  49.622  1.00  0.00     0.097 A 
ENDBRANCH  29  30
ENDBRANCH   1  29
TORSDOF 7
ENDMDL
MODEL 7
REMARK VINA RESULT:      -8.6      9.910     13.427
REMARK  7 active torsions:
REMARK  status: ('A' for Active; 'I' for Inactive)
REMARK    1  A    between atoms: C_8  and  C_9 
REMARK    2  A    between atoms: C_9  and  C_10 
REMARK       I    between atoms: C_10  and  N_11 
REMARK    3  A    between atoms: N_11  and  C_27 
REMARK    4  A    between atoms: N_11  and  C_12 
REMARK    5  A    between atoms: C_12  and  C_13 
REMARK    6  A    between atoms: C_12  and  C_22 
REMARK       I    between atoms: C_13  and  N_14 
REMARK    7  A    between atoms: N_14  and  C_15 
ROOT
HETATM    1  C   UNL     1      17.648  52.100  47.363  1.00  0.00     0.229 C 
HETATM    2  N   UNL     1      16.259  51.972  47.404  1.00  0.00    -0.299 N 
HETATM    3  O   UNL     1      18.279  51.838  46.331  1.00  0.00    -0.273 OA
ENDROOT
BRANCH   2   4
HETATM    4  C   UNL     1      15.423  52.567  48.393  1.00  0.00     0.041 A 
HETATM    5  C   UNL     1      14.805  53.800  48.131  1.00  0.00     0.069 A 
HETATM    6  C   UNL     1      14.079  54.393  49.143  1.00  0.00     0.107 A 
HETATM    7  C   UNL     1      13.950  53.811  50.380  1.00  0.00     0.105 A 
HETATM    8  O   UNL     1      13.433  55.588  49.062  1.00  0.00    -0.323 OA
HETATM    9  O   UNL     1      13.208  54.565  51.234  1.00  0.00    -0.323 OA
HETATM   10  C   UNL     1      14.539  52.602  50.676  1.00  0.00     0.042 A 
HETATM   11  C   UNL     1      12.910  55.705  50.401  1.00  0.00     0.352 A 
HETATM   12  C   UNL     1      15.291  51.980  49.672  1.00  0.00     0.032 A 
ENDBRANCH   2   4
BRANCH   2  13
HETATM   13  C   UNL     1      15.557  51.407  46.223  1.00  0.00     0.225 C 
BRANCH  13  14
HETATM   14  C   UNL     1      16.246  50.120  45.712  1.00  0.00     0.246 C 
HETATM   15  N   UNL     1      16.599  49.171  46.648  1.00  0.00    -0.354 N 
HETATM   16  H   UNL     1      15.990  49.222  47.466  1.00  0.00     0.162 HD
HETATM   17  O   UNL     1      16.336  49.917  44.498  1.00  0.00    -0.271 OA
BRANCH  15  18
HETATM   18  C   UNL     1      16.987  47.798  46.312  1.00  0.00     0.084 C 
HETATM   19  C   UNL     1      18.394  47.636  45.711  1.00  0.00     0.025 C 
HETATM   20  C   UNL     1      19.502  47.951  46.713  1.00  0.00     0.002 C 
HETATM   21  C   UNL     1      19.368  47.098  47.969  1.00  0.00     0.000 C 
HETATM   22  C   UNL     1      17.980  47.222  48.589  1.00  0.00     0.002 C 
HETATM   23  C   UNL     1      16.872  46.924  47.574  1.00  0.00     0.025 C 
ENDBRANCH  15  18
ENDBRANCH  13  14
BRANCH  13  24
HETATM   24  C   UNL     1      15.199  52.481  45.200  1.00  0.00     0.015 A 
HETATM   25  S   UNL     1      13.543  52.588  44.694  1.00  0.00    -0.104 SA
HETATM   26  C   UNL     1      13.842  53.950  43.713  1.00  0.00     0.050 A 
HETATM   27  C   UNL     1      15.162  54.326  43.745  1.00  0.00     0.008 A 
HETATM   28  C   UNL     1      15.940  53.479  44.589  1.00  0.00     0.017 A 
ENDBRANCH  13  24
ENDBRANCH   2  13
BRANCH   1  29
HETATM   29  C   UNL     1      18.415  52.472  48.632  1.00  0.00     0.144 C 
BRANCH  29  30
HETATM   30  C   UNL     1      19.198  51.323  49.203  1.00  0.00    -0.021 A 
HETATM   31  C   UNL     1      20.502  50.855  48.821  1.00  0.00    -0.001 A 
HETATM   32  C   UNL     1      21.443  51.235  47.841  1.00  0.00     0.014 A 
HETATM   33  C   UNL     1      20.830  49.792  49.664  1.00  0.00     0.042 A 
HETATM   34  C   UNL     1      22.650  50.536  47.723  1.00  0.00     0.001 A 
HETATM   35  C   UNL     1      22.943  49.479  48.579  1.00  0.00     0.002 A 
HETATM   36  C   UNL     1      22.040  49.090  49.572  1.00  0.00     0.030 A 
HETATM   37  N   UNL     1      19.778  49.621  50.531  1.00  0.00    -0.365 N 
HETATM   38  H   UNL     1      19.747  48.925  51.262  1.00  0.00     0.165 HD
HETATM   39  C   UNL     1      18.794  50.533  50.266  1.00  0.00     0.097 A 
ENDBRANCH  29  30
ENDBRANCH   1  29
TORSDOF 7
ENDMDL
MODEL 8
REMARK VINA RESULT:      -8.5     10.033     12.941
REMARK  7 active torsions:
REMARK  status: ('A' for Active; 'I' for Inactive)
REMARK    1  A    between atoms: C_8  and  C_9 
REMARK    2  A    between atoms: C_9  and  C_10 
REMARK       I    between atoms: C_10  and  N_11 
REMARK    3  A    between atoms: N_11  and  C_27 
REMARK    4  A    between atoms: N_11  and  C_12 
REMARK    5  A    between atoms: C_12  and  C_13 
REMARK    6  A    between atoms: C_12  and  C_22 
REMARK       I    between atoms: C_13  and  N_14 
REMARK    7  A    between atoms: N_14  and  C_15 
ROOT
HETATM    1  C   UNL     1      26.725  49.538  38.577  1.00  0.00     0.229 C 
HETATM    2  N   UNL     1      27.410  48.368  38.912  1.00  0.00    -0.299 N 
HETATM    3  O   UNL     1      25.504  49.523  38.377  1.00  0.00    -0.273 OA
ENDROOT
BRANCH   2   4
HETATM    4  C   UNL     1      28.709  48.333  39.496  1.00  0.00     0.041 A 
HETATM    5  C   UNL     1      28.850  48.444  40.888  1.00  0.00     0.069 A 
HETATM    6  C   UNL     1      30.124  48.500  41.412  1.00  0.00     0.107 A 
HETATM    7  C   UNL     1      31.240  48.449  40.612  1.00  0.00     0.105 A 
HETATM    8  O   UNL     1      30.437  48.623  42.730  1.00  0.00    -0.323 OA
HETATM    9  O   UNL     1      32.395  48.533  41.325  1.00  0.00    -0.323 OA
HETATM   10  C   UNL     1      31.144  48.337  39.243  1.00  0.00     0.042 A 
HETATM   11  C   UNL     1      31.877  48.675  42.665  1.00  0.00     0.352 A 
HETATM   12  C   UNL     1      29.862  48.288  38.681  1.00  0.00     0.032 A 
ENDBRANCH   2   4
BRANCH   2  13
HETATM   13  C   UNL     1      26.668  47.081  38.912  1.00  0.00     0.225 C 
BRANCH  13  14
HETATM   14  C   UNL     1      25.813  46.916  40.191  1.00  0.00     0.246 C 
HETATM   15  N   UNL     1      25.337  45.655  40.481  1.00  0.00    -0.354 N 
HETATM   16  H   UNL     1      25.947  44.936  40.090  1.00  0.00     0.162 HD
HETATM   17  O   UNL     1      25.696  47.863  40.973  1.00  0.00    -0.271 OA
BRANCH  15  18
HETATM   18  C   UNL     1      24.769  45.275  41.777  1.00  0.00     0.084 C 
HETATM   19  C   UNL     1      23.706  44.163  41.734  1.00  0.00     0.025 C 
HETATM   20  C   UNL     1      24.285  42.811  41.330  1.00  0.00     0.002 C 
HETATM   21  C   UNL     1      25.429  42.404  42.251  1.00  0.00     0.000 C 
HETATM   22  C   UNL     1      26.501  43.487  42.330  1.00  0.00     0.002 C 
HETATM   23  C   UNL     1      25.911  44.846  42.717  1.00  0.00     0.025 C 
ENDBRANCH  15  18
ENDBRANCH  13  14
BRANCH  13  24
HETATM   24  C   UNL     1      27.549  45.911  38.485  1.00  0.00     0.015 A 
HETATM   25  S   UNL     1      27.816  45.685  36.786  1.00  0.00    -0.104 SA
HETATM   26  C   UNL     1      28.876  44.375  37.040  1.00  0.00     0.050 A 
HETATM   27  C   UNL     1      29.032  44.091  38.375  1.00  0.00     0.008 A 
HETATM   28  C   UNL     1      28.264  44.965  39.201  1.00  0.00     0.017 A 
ENDBRANCH  13  24
ENDBRANCH   2  13
BRANCH   1  29
HETATM   29  C   UNL     1      27.503  50.836  38.359  1.00  0.00     0.144 C 
BRANCH  29  30
HETATM   30  C   UNL     1      28.042  51.419  39.636  1.00  0.00    -0.021 A 
HETATM   31  C   UNL     1      29.379  51.862  39.920  1.00  0.00    -0.001 A 
HETATM   32  C   UNL     1      30.589  51.889  39.194  1.00  0.00     0.014 A 
HETATM   33  C   UNL     1      29.387  52.366  41.221  1.00  0.00     0.042 A 
HETATM   34  C   UNL     1      31.751  52.390  39.792  1.00  0.00     0.001 A 
HETATM   35  C   UNL     1      31.722  52.883  41.093  1.00  0.00     0.002 A 
HETATM   36  C   UNL     1      30.536  52.886  41.832  1.00  0.00     0.030 A 
HETATM   37  N   UNL     1      28.109  52.247  41.711  1.00  0.00    -0.365 N 
HETATM   38  H   UNL     1      27.819  52.544  42.632  1.00  0.00     0.165 HD
HETATM   39  C   UNL     1      27.293  51.681  40.770  1.00  0.00     0.097 A 
ENDBRANCH  29  30
ENDBRANCH   1  29
TORSDOF 7
ENDMDL
MODEL 9
REMARK VINA RESULT:      -8.4     11.465     13.616
REMARK  7 active torsions:
REMARK  status: ('A' for Active; 'I' for Inactive)
REMARK    1  A    between atoms: C_8  and  C_9 
REMARK    2  A    between atoms: C_9  and  C_10 
REMARK       I    between atoms: C_10  and  N_11 
REMARK    3  A    between atoms: N_11  and  C_27 
REMARK    4  A    between atoms: N_11  and  C_12 
REMARK    5  A    between atoms: C_12  and  C_13 
REMARK    6  A    between atoms: C_12  and  C_22 
REMARK       I    between atoms: C_13  and  N_14 
REMARK    7  A    between atoms: N_14  and  C_15 
ROOT
HETATM    1  C   UNL     1      26.668  49.783  38.593  1.00  0.00     0.229 C 
HETATM    2  N   UNL     1      27.282  48.568  38.901  1.00  0.00    -0.299 N 
HETATM    3  O   UNL     1      25.446  49.847  38.410  1.00  0.00    -0.273 OA
ENDROOT
BRANCH   2   4
HETATM    4  C   UNL     1      28.585  48.442  39.466  1.00  0.00     0.041 A 
HETATM    5  C   UNL     1      28.755  48.555  40.855  1.00  0.00     0.069 A 
HETATM    6  C   UNL     1      30.038  48.522  41.358  1.00  0.00     0.107 A 
HETATM    7  C   UNL     1      31.135  48.383  40.542  1.00  0.00     0.105 A 
HETATM    8  O   UNL     1      30.380  48.634  42.670  1.00  0.00    -0.323 OA
HETATM    9  O   UNL     1      32.304  48.388  41.237  1.00  0.00    -0.323 OA
HETATM   10  C   UNL     1      31.009  48.266  39.176  1.00  0.00     0.042 A 
HETATM   11  C   UNL     1      31.819  48.580  42.583  1.00  0.00     0.352 A 
HETATM   12  C   UNL     1      29.719  48.306  38.633  1.00  0.00     0.032 A 
ENDBRANCH   2   4
BRANCH   2  13
HETATM   13  C   UNL     1      26.461  47.329  38.895  1.00  0.00     0.225 C 
BRANCH  13  14
HETATM   14  C   UNL     1      25.432  47.321  40.049  1.00  0.00     0.246 C 
HETATM   15  N   UNL     1      24.108  47.528  39.724  1.00  0.00    -0.354 N 
HETATM   16  H   UNL     1      23.916  47.225  38.768  1.00  0.00     0.162 HD
HETATM   17  O   UNL     1      25.792  47.002  41.185  1.00  0.00    -0.271 OA
BRANCH  15  18
HETATM   18  C   UNL     1      22.993  47.268  40.638  1.00  0.00     0.084 C 
HETATM   19  C   UNL     1      21.811  48.249  40.537  1.00  0.00     0.025 C 
HETATM   20  C   UNL     1      21.059  48.130  39.215  1.00  0.00     0.002 C 
HETATM   21  C   UNL     1      20.575  46.703  38.983  1.00  0.00     0.000 C 
HETATM   22  C   UNL     1      21.717  45.697  39.086  1.00  0.00     0.002 C 
HETATM   23  C   UNL     1      22.481  45.834  40.406  1.00  0.00     0.025 C 
ENDBRANCH  15  18
ENDBRANCH  13  14
BRANCH  13  24
HETATM   24  C   UNL     1      27.310  46.079  38.686  1.00  0.00     0.015 A 
HETATM   25  S   UNL     1      27.701  45.637  37.054  1.00  0.00    -0.104 SA
HETATM   26  C   UNL     1      28.666  44.323  37.551  1.00  0.00     0.050 A 
HETATM   27  C   UNL     1      28.698  44.197  38.918  1.00  0.00     0.008 A 
HETATM   28  C   UNL     1      27.914  45.196  39.567  1.00  0.00     0.017 A 
ENDBRANCH  13  24
ENDBRANCH   2  13
BRANCH   1  29
HETATM   29  C   UNL     1      27.523  51.033  38.381  1.00  0.00     0.144 C 
BRANCH  29  30
HETATM   30  C   UNL     1      28.097  51.574  39.661  1.00  0.00    -0.021 A 
HETATM   31  C   UNL     1      29.457  51.946  39.941  1.00  0.00    -0.001 A 
HETATM   32  C   UNL     1      30.663  51.919  39.208  1.00  0.00     0.014 A 
HETATM   33  C   UNL     1      29.498  52.435  41.247  1.00  0.00     0.042 A 
HETATM   34  C   UNL     1      31.852  52.354  39.804  1.00  0.00     0.001 A 
HETATM   35  C   UNL     1      31.856  52.833  41.110  1.00  0.00     0.002 A 
HETATM   36  C   UNL     1      30.676  52.888  41.856  1.00  0.00     0.030 A 
HETATM   37  N   UNL     1      28.219  52.374  41.744  1.00  0.00    -0.365 N 
HETATM   38  H   UNL     1      27.949  52.676  42.669  1.00  0.00     0.165 HD
HETATM   39  C   UNL     1      27.369  51.861  40.802  1.00  0.00     0.097 A 
ENDBRANCH  29  30
ENDBRANCH   1  29
TORSDOF 7
ENDMDL
MODEL 10
REMARK VINA RESULT:      -8.3      9.046     13.032
REMARK  7 active torsions:
REMARK  status: ('A' for Active; 'I' for Inactive)
REMARK    1  A    between atoms: C_8  and  C_9 
REMARK    2  A    between atoms: C_9  and  C_10 
REMARK       I    between atoms: C_10  and  N_11 
REMARK    3  A    between atoms: N_11  and  C_27 
REMARK    4  A    between atoms: N_11  and  C_12 
REMARK    5  A    between atoms: C_12  and  C_13 
REMARK    6  A    between atoms: C_12  and  C_22 
REMARK       I    between atoms: C_13  and  N_14 
REMARK    7  A    between atoms: N_14  and  C_15 
ROOT
HETATM    1  C   UNL     1      18.240  51.236  48.993  1.00  0.00     0.229 C 
HETATM    2  N   UNL     1      17.399  50.989  47.907  1.00  0.00    -0.299 N 
HETATM    3  O   UNL     1      17.790  51.290  50.144  1.00  0.00    -0.273 OA
ENDROOT
BRANCH   2   4
HETATM    4  C   UNL     1      17.844  50.563  46.621  1.00  0.00     0.041 A 
HETATM    5  C   UNL     1      17.747  51.438  45.527  1.00  0.00     0.069 A 
HETATM    6  C   UNL     1      18.099  50.963  44.281  1.00  0.00     0.107 A 
HETATM    7  C   UNL     1      18.536  49.674  44.093  1.00  0.00     0.105 A 
HETATM    8  O   UNL     1      18.050  51.669  43.119  1.00  0.00    -0.323 OA
HETATM    9  O   UNL     1      18.817  49.406  42.789  1.00  0.00    -0.323 OA
HETATM   10  C   UNL     1      18.647  48.787  45.140  1.00  0.00     0.042 A 
HETATM   11  C   UNL     1      18.476  50.667  42.174  1.00  0.00     0.352 A 
HETATM   12  C   UNL     1      18.287  49.237  46.417  1.00  0.00     0.032 A 
ENDBRANCH   2   4
BRANCH   2  13
HETATM   13  C   UNL     1      15.934  50.906  48.141  1.00  0.00     0.225 C 
BRANCH  13  14
HETATM   14  C   UNL     1      15.344  49.584  47.598  1.00  0.00     0.246 C 
HETATM   15  N   UNL     1      14.798  49.601  46.332  1.00  0.00    -0.354 N 
HETATM   16  H   UNL     1      15.232  50.326  45.759  1.00  0.00     0.162 HD
HETATM   17  O   UNL     1      15.495  48.540  48.238  1.00  0.00    -0.271 OA
BRANCH  15  18
HETATM   18  C   UNL     1      14.466  48.395  45.569  1.00  0.00     0.084 C 
HETATM   19  C   UNL     1      12.989  48.255  45.162  1.00  0.00     0.025 C 
HETATM   20  C   UNL     1      12.558  49.301  44.139  1.00  0.00     0.002 C 
HETATM   21  C   UNL     1      13.447  49.260  42.901  1.00  0.00     0.000 C 
HETATM   22  C   UNL     1      14.924  49.386  43.264  1.00  0.00     0.002 C 
HETATM   23  C   UNL     1      15.345  48.346  44.306  1.00  0.00     0.025 C 
ENDBRANCH  15  18
ENDBRANCH  13  14
BRANCH  13  24
HETATM   24  C   UNL     1      15.221  52.207  47.784  1.00  0.00     0.015 A 
HETATM   25  S   UNL     1      14.841  53.296  49.080  1.00  0.00    -0.104 SA
HETATM   26  C   UNL     1      14.206  54.470  48.020  1.00  0.00     0.050 A 
HETATM   27  C   UNL     1      14.260  54.064  46.710  1.00  0.00     0.008 A 
HETATM   28  C   UNL     1      14.833  52.764  46.576  1.00  0.00     0.017 A 
ENDBRANCH  13  24
ENDBRANCH   2  13
BRANCH   1  29
HETATM   29  C   UNL     1      19.720  51.539  48.753  1.00  0.00     0.144 C 
BRANCH  29  30
HETATM   30  C   UNL     1      20.604  50.340  48.953  1.00  0.00    -0.021 A 
HETATM   31  C   UNL     1      22.019  50.227  48.727  1.00  0.00    -0.001 A 
HETATM   32  C   UNL     1      23.019  51.102  48.249  1.00  0.00     0.014 A 
HETATM   33  C   UNL     1      22.402  48.937  49.094  1.00  0.00     0.042 A 
HETATM   34  C   UNL     1      24.340  50.655  48.134  1.00  0.00     0.001 A 
HETATM   35  C   UNL     1      24.686  49.360  48.508  1.00  0.00     0.002 A 
HETATM   36  C   UNL     1      23.722  48.476  49.001  1.00  0.00     0.030 A 
HETATM   37  N   UNL     1      21.274  48.288  49.534  1.00  0.00    -0.365 N 
HETATM   38  H   UNL     1      21.256  47.337  49.875  1.00  0.00     0.165 HD
HETATM   39  C   UNL     1      20.190  49.118  49.456  1.00  0.00     0.097 A 
ENDBRANCH  29  30
ENDBRANCH   1  29
TORSDOF 7
ENDMDL
