MODEL 1
REMARK VINA RESULT:      -9.7      0.000      0.000
REMARK  7 active torsions:
REMARK  status: ('A' for Active; 'I' for Inactive)
REMARK    1  A    between atoms: C_5  and  C_6 
REMARK    2  A    between atoms: C_6  and  C_7 
REMARK    3  A    between atoms: C_7  and  S_8 
REMARK    4  A    between atoms: S_8  and  C_9 
REMARK    5  A    between atoms: C_15  and  C_16 
REMARK    6  A    between atoms: C_16  and  C_17 
REMARK    7  A    between atoms: C_25  and  N_26 
ROOT
HETATM    1  C   UNL     1      24.624  45.204  50.077  1.00  0.00     0.116 A 
HETATM    2  N   UNL     1      23.993  44.020  50.074  1.00  0.00    -0.203 NA
HETATM    3  S   UNL     1      22.531  44.201  49.257  1.00  0.00     0.020 SA
HETATM    4  C   UNL     1      22.748  45.826  48.943  1.00  0.00     0.080 A 
HETATM    5  C   UNL     1      23.918  46.246  49.444  1.00  0.00     0.053 A 
HETATM    6  S   UNL     1      21.874  47.001  48.162  1.00  0.00    -0.074 SA
HETATM    7  C   UNL     1      23.110  48.183  48.526  1.00  0.00     0.084 A 
HETATM    8  C   UNL     1      24.182  47.609  49.212  1.00  0.00     0.062 A 
ENDROOT
BRANCH   1   9
HETATM    9  S   UNL     1      26.189  45.354  50.863  1.00  0.00    -0.101 SA
BRANCH   9  10
HETATM   10  C   UNL     1      25.683  45.928  52.507  1.00  0.00     0.164 C 
BRANCH  10  11
HETATM   11  C   UNL     1      25.779  44.783  53.490  1.00  0.00     0.169 C 
HETATM   12  O   UNL     1      24.775  44.185  53.878  1.00  0.00    -0.291 OA
BRANCH  11  13
HETATM   13  C   UNL     1      27.116  44.376  54.020  1.00  0.00     0.011 A 
HETATM   14  C   UNL     1      27.661  43.106  53.802  1.00  0.00     0.016 A 
HETATM   15  C   UNL     1      28.921  42.784  54.317  1.00  0.00     0.007 A 
HETATM   16  C   UNL     1      29.654  43.724  55.050  1.00  0.00    -0.062 A 
HETATM   17  C   UNL     1      30.995  43.374  55.626  1.00  0.00     0.048 C 
HETATM   18  C   UNL     1      29.098  44.986  55.286  1.00  0.00     0.007 A 
HETATM   19  C   UNL     1      27.839  45.310  54.775  1.00  0.00     0.016 A 
ENDBRANCH  11  13
ENDBRANCH  10  11
ENDBRANCH   9  10
ENDBRANCH   1   9
BRANCH   8  20
HETATM   20  N   UNL     1      25.306  48.259  49.583  1.00  0.00    -0.397 N 
HETATM   21  H   UNL     1      26.229  47.831  49.576  1.00  0.00     0.156 HD
HETATM   22  H   UNL     1      25.262  49.077  50.193  1.00  0.00     0.156 HD
ENDBRANCH   8  20
BRANCH   7  23
HETATM   23  C   UNL     1      22.878  49.542  48.063  1.00  0.00     0.201 C 
HETATM   24  O   UNL     1      23.642  50.128  47.294  1.00  0.00    -0.286 OA
BRANCH  23  25
HETATM   25  C   UNL     1      21.662  50.286  48.509  1.00  0.00     0.015 A 
HETATM   26  C   UNL     1      21.437  50.612  49.852  1.00  0.00     0.016 A 
HETATM   27  C   UNL     1      20.272  51.287  50.227  1.00  0.00     0.007 A 
HETATM   28  C   UNL     1      19.308  51.627  49.271  1.00  0.00    -0.062 A 
HETATM   29  C   UNL     1      18.053  52.352  49.663  1.00  0.00     0.048 C 
HETATM   30  C   UNL     1      19.529  51.290  47.930  1.00  0.00     0.007 A 
HETATM   31  C   UNL     1      20.694  50.620  47.552  1.00  0.00     0.016 A 
ENDBRANCH  23  25
ENDBRANCH   7  23
TORSDOF 7
ENDMDL
MODEL 2
REMARK VINA RESULT:      -9.4      1.462      1.543
REMARK  7 active torsions:
REMARK  status: ('A' for Active; 'I' for Inactive)
REMARK    1  A    between atoms: C_5  and  C_6 
REMARK    2  A    between atoms: C_6  and  C_7 
REMARK    3  A    between atoms: C_7  and  S_8 
REMARK    4  A    between atoms: S_8  and  C_9 
REMARK    5  A    between atoms: C_15  and  C_16 
REMARK    6  A    between atoms: C_16  and  C_17 
REMARK    7  A    between atoms: C_25  and  N_26 
ROOT
HETATM    1  C   UNL     1      23.635  44.744  49.946  1.00  0.00     0.116 A 
HETATM    2  N   UNL     1      23.186  43.568  49.480  1.00  0.00    -0.203 NA
HETATM    3  S   UNL     1      22.284  43.860  48.088  1.00  0.00     0.020 SA
HETATM    4  C   UNL     1      22.484  45.517  48.137  1.00  0.00     0.080 A 
HETATM    5  C   UNL     1      23.232  45.866  49.194  1.00  0.00     0.053 A 
HETATM    6  S   UNL     1      21.994  46.792  47.194  1.00  0.00    -0.074 SA
HETATM    7  C   UNL     1      22.799  47.914  48.266  1.00  0.00     0.084 A 
HETATM    8  C   UNL     1      23.457  47.250  49.303  1.00  0.00     0.062 A 
ENDROOT
BRANCH   1   9
HETATM    9  S   UNL     1      24.614  44.784  51.405  1.00  0.00    -0.101 SA
BRANCH   9  10
HETATM   10  C   UNL     1      25.821  43.482  51.032  1.00  0.00     0.164 C 
BRANCH  10  11
HETATM   11  C   UNL     1      27.212  44.076  51.023  1.00  0.00     0.169 C 
HETATM   12  O   UNL     1      27.611  44.761  50.081  1.00  0.00    -0.291 OA
BRANCH  11  13
HETATM   13  C   UNL     1      28.133  43.811  52.171  1.00  0.00     0.011 A 
HETATM   14  C   UNL     1      29.159  42.862  52.113  1.00  0.00     0.016 A 
HETATM   15  C   UNL     1      29.994  42.662  53.217  1.00  0.00     0.007 A 
HETATM   16  C   UNL     1      29.820  43.408  54.388  1.00  0.00    -0.062 A 
HETATM   17  C   UNL     1      30.697  43.179  55.584  1.00  0.00     0.048 C 
HETATM   18  C   UNL     1      28.779  44.341  54.452  1.00  0.00     0.007 A 
HETATM   19  C   UNL     1      27.943  44.541  53.352  1.00  0.00     0.016 A 
ENDBRANCH  11  13
ENDBRANCH  10  11
ENDBRANCH   9  10
ENDBRANCH   1   9
BRANCH   8  20
HETATM   20  N   UNL     1      24.207  47.845  50.255  1.00  0.00    -0.397 N 
HETATM   21  H   UNL     1      24.199  48.847  50.430  1.00  0.00     0.156 HD
HETATM   22  H   UNL     1      25.049  47.395  50.618  1.00  0.00     0.156 HD
ENDBRANCH   8  20
BRANCH   7  23
HETATM   23  C   UNL     1      22.702  49.327  47.933  1.00  0.00     0.201 C 
HETATM   24  O   UNL     1      23.537  49.912  47.242  1.00  0.00    -0.286 OA
BRANCH  23  25
HETATM   25  C   UNL     1      21.543  50.131  48.423  1.00  0.00     0.015 A 
HETATM   26  C   UNL     1      21.386  50.471  49.772  1.00  0.00     0.016 A 
HETATM   27  C   UNL     1      20.272  51.204  50.189  1.00  0.00     0.007 A 
HETATM   28  C   UNL     1      19.290  51.590  49.270  1.00  0.00    -0.062 A 
HETATM   29  C   UNL     1      18.089  52.378  49.707  1.00  0.00     0.048 C 
HETATM   30  C   UNL     1      19.442  51.241  47.922  1.00  0.00     0.007 A 
HETATM   31  C   UNL     1      20.557  50.512  47.502  1.00  0.00     0.016 A 
ENDBRANCH  23  25
ENDBRANCH   7  23
TORSDOF 7
ENDMDL
MODEL 3
REMARK VINA RESULT:      -9.3      1.754      2.181
REMARK  7 active torsions:
REMARK  status: ('A' for Active; 'I' for Inactive)
REMARK    1  A    between atoms: C_5  and  C_6 
REMARK    2  A    between atoms: C_6  and  C_7 
REMARK    3  A    between atoms: C_7  and  S_8 
REMARK    4  A    between atoms: S_8  and  C_9 
REMARK    5  A    between atoms: C_15  and  C_16 
REMARK    6  A    between atoms: C_16  and  C_17 
REMARK    7  A    between atoms: C_25  and  N_26 
ROOT
HETATM    1  C   UNL     1      25.192  45.270  51.422  1.00  0.00     0.116 A 
HETATM    2  N   UNL     1      25.322  43.981  51.772  1.00  0.00    -0.203 NA
HETATM    3  S   UNL     1      24.323  43.059  50.778  1.00  0.00     0.020 SA
HETATM    4  C   UNL     1      23.730  44.366  49.926  1.00  0.00     0.080 A 
HETATM    5  C   UNL     1      24.277  45.504  50.376  1.00  0.00     0.053 A 
HETATM    6  S   UNL     1      22.657  44.569  48.675  1.00  0.00    -0.074 SA
HETATM    7  C   UNL     1      22.895  46.300  48.732  1.00  0.00     0.084 A 
HETATM    8  C   UNL     1      23.834  46.656  49.701  1.00  0.00     0.062 A 
ENDROOT
BRANCH   1   9
HETATM    9  S   UNL     1      26.106  46.501  52.280  1.00  0.00    -0.101 SA
BRANCH   9  10
HETATM   10  C   UNL     1      26.487  45.621  53.820  1.00  0.00     0.164 C 
BRANCH  10  11
HETATM   11  C   UNL     1      27.629  46.317  54.526  1.00  0.00     0.169 C 
HETATM   12  O   UNL     1      27.681  47.544  54.605  1.00  0.00    -0.291 OA
BRANCH  11  13
HETATM   13  C   UNL     1      28.730  45.503  55.126  1.00  0.00     0.011 A 
HETATM   14  C   UNL     1      29.132  44.271  54.599  1.00  0.00     0.016 A 
HETATM   15  C   UNL     1      30.173  43.555  55.200  1.00  0.00     0.007 A 
HETATM   16  C   UNL     1      30.828  44.061  56.328  1.00  0.00    -0.062 A 
HETATM   17  C   UNL     1      31.929  43.285  56.990  1.00  0.00     0.048 C 
HETATM   18  C   UNL     1      30.411  45.283  56.866  1.00  0.00     0.007 A 
HETATM   19  C   UNL     1      29.370  45.998  56.270  1.00  0.00     0.016 A 
ENDBRANCH  11  13
ENDBRANCH  10  11
ENDBRANCH   9  10
ENDBRANCH   1   9
BRANCH   8  20
HETATM   20  N   UNL     1      24.264  47.914  49.943  1.00  0.00    -0.397 N 
HETATM   21  H   UNL     1      23.858  48.518  50.653  1.00  0.00     0.156 HD
HETATM   22  H   UNL     1      24.773  48.441  49.231  1.00  0.00     0.156 HD
ENDBRANCH   8  20
BRANCH   7  23
HETATM   23  C   UNL     1      22.134  47.100  47.785  1.00  0.00     0.201 C 
HETATM   24  O   UNL     1      22.054  46.824  46.587  1.00  0.00    -0.286 OA
BRANCH  23  25
HETATM   25  C   UNL     1      21.394  48.309  48.255  1.00  0.00     0.015 A 
HETATM   26  C   UNL     1      20.285  48.224  49.105  1.00  0.00     0.016 A 
HETATM   27  C   UNL     1      19.608  49.381  49.499  1.00  0.00     0.007 A 
HETATM   28  C   UNL     1      20.015  50.636  49.032  1.00  0.00    -0.062 A 
HETATM   29  C   UNL     1      19.295  51.886  49.449  1.00  0.00     0.048 C 
HETATM   30  C   UNL     1      21.117  50.721  48.173  1.00  0.00     0.007 A 
HETATM   31  C   UNL     1      21.798  49.565  47.782  1.00  0.00     0.016 A 
ENDBRANCH  23  25
ENDBRANCH   7  23
TORSDOF 7
ENDMDL
MODEL 4
REMARK VINA RESULT:      -9.0      1.963      2.612
REMARK  7 active torsions:
REMARK  status: ('A' for Active; 'I' for Inactive)
REMARK    1  A    between atoms: C_5  and  C_6 
REMARK    2  A    between atoms: C_6  and  C_7 
REMARK    3  A    between atoms: C_7  and  S_8 
REMARK    4  A    between atoms: S_8  and  C_9 
REMARK    5  A    between atoms: C_15  and  C_16 
REMARK    6  A    between atoms: C_16  and  C_17 
REMARK    7  A    between atoms: C_25  and  N_26 
ROOT
HETATM    1  C   UNL     1      25.549  46.932  49.845  1.00  0.00     0.116 A 
HETATM    2  N   UNL     1      26.698  47.626  49.879  1.00  0.00    -0.203 NA
HETATM    3  S   UNL     1      26.430  49.129  49.168  1.00  0.00     0.020 SA
HETATM    4  C   UNL     1      24.825  48.833  48.815  1.00  0.00     0.080 A 
HETATM    5  C   UNL     1      24.475  47.607  49.230  1.00  0.00     0.053 A 
HETATM    6  S   UNL     1      23.598  49.691  48.101  1.00  0.00    -0.074 SA
HETATM    7  C   UNL     1      22.507  48.342  48.318  1.00  0.00     0.084 A 
HETATM    8  C   UNL     1      23.130  47.281  48.978  1.00  0.00     0.062 A 
ENDROOT
BRANCH   1   9
HETATM    9  S   UNL     1      25.495  45.307  50.510  1.00  0.00    -0.101 SA
BRANCH   9  10
HETATM   10  C   UNL     1      27.261  44.896  50.533  1.00  0.00     0.164 C 
BRANCH  10  11
HETATM   11  C   UNL     1      27.470  43.621  51.319  1.00  0.00     0.169 C 
HETATM   12  O   UNL     1      26.931  42.566  50.984  1.00  0.00    -0.291 OA
BRANCH  11  13
HETATM   13  C   UNL     1      28.332  43.641  52.540  1.00  0.00     0.011 A 
HETATM   14  C   UNL     1      28.039  44.428  53.659  1.00  0.00     0.016 A 
HETATM   15  C   UNL     1      28.880  44.402  54.776  1.00  0.00     0.007 A 
HETATM   16  C   UNL     1      30.019  43.589  54.793  1.00  0.00    -0.062 A 
HETATM   17  C   UNL     1      30.938  43.576  55.980  1.00  0.00     0.048 C 
HETATM   18  C   UNL     1      30.323  42.820  53.664  1.00  0.00     0.007 A 
HETATM   19  C   UNL     1      29.486  42.846  52.547  1.00  0.00     0.016 A 
ENDBRANCH  11  13
ENDBRANCH  10  11
ENDBRANCH   9  10
ENDBRANCH   1   9
BRANCH   8  20
HETATM   20  N   UNL     1      22.528  46.125  49.332  1.00  0.00    -0.397 N 
HETATM   21  H   UNL     1      22.803  45.216  48.969  1.00  0.00     0.156 HD
HETATM   22  H   UNL     1      21.578  46.122  49.708  1.00  0.00     0.156 HD
ENDBRANCH   8  20
BRANCH   7  23
HETATM   23  C   UNL     1      21.148  48.510  47.827  1.00  0.00     0.201 C 
HETATM   24  O   UNL     1      20.660  47.796  46.950  1.00  0.00    -0.286 OA
BRANCH  23  25
HETATM   25  C   UNL     1      20.273  49.576  48.400  1.00  0.00     0.015 A 
HETATM   26  C   UNL     1      19.694  49.466  49.670  1.00  0.00     0.016 A 
HETATM   27  C   UNL     1      18.861  50.478  50.155  1.00  0.00     0.007 A 
HETATM   28  C   UNL     1      18.580  51.603  49.371  1.00  0.00    -0.062 A 
HETATM   29  C   UNL     1      17.687  52.696  49.883  1.00  0.00     0.048 C 
HETATM   30  C   UNL     1      19.151  51.708  48.097  1.00  0.00     0.007 A 
HETATM   31  C   UNL     1      19.987  50.700  47.612  1.00  0.00     0.016 A 
ENDBRANCH  23  25
ENDBRANCH   7  23
TORSDOF 7
ENDMDL
MODEL 5
REMARK VINA RESULT:      -8.9      1.758     10.136
REMARK  7 active torsions:
REMARK  status: ('A' for Active; 'I' for Inactive)
REMARK    1  A    between atoms: C_5  and  C_6 
REMARK    2  A    between atoms: C_6  and  C_7 
REMARK    3  A    between atoms: C_7  and  S_8 
REMARK    4  A    between atoms: S_8  and  C_9 
REMARK    5  A    between atoms: C_15  and  C_16 
REMARK    6  A    between atoms: C_16  and  C_17 
REMARK    7  A    between atoms: C_25  and  N_26 
ROOT
HETATM    1  C   UNL     1      24.493  48.066  49.207  1.00  0.00     0.116 A 
HETATM    2  N   UNL     1      25.174  49.133  48.761  1.00  0.00    -0.203 NA
HETATM    3  S   UNL     1      26.820  48.817  48.928  1.00  0.00     0.020 SA
HETATM    4  C   UNL     1      26.604  47.303  49.597  1.00  0.00     0.080 A 
HETATM    5  C   UNL     1      25.298  47.019  49.697  1.00  0.00     0.053 A 
HETATM    6  S   UNL     1      27.612  46.099  50.137  1.00  0.00    -0.074 SA
HETATM    7  C   UNL     1      26.231  45.119  50.573  1.00  0.00     0.084 A 
HETATM    8  C   UNL     1      25.030  45.751  50.244  1.00  0.00     0.062 A 
ENDROOT
BRANCH   1   9
HETATM    9  S   UNL     1      22.735  48.080  49.173  1.00  0.00    -0.101 SA
BRANCH   9  10
HETATM   10  C   UNL     1      22.431  49.642  48.302  1.00  0.00     0.164 C 
BRANCH  10  11
HETATM   11  C   UNL     1      21.961  50.684  49.293  1.00  0.00     0.169 C 
HETATM   12  O   UNL     1      22.748  51.240  50.059  1.00  0.00    -0.291 OA
BRANCH  11  13
HETATM   13  C   UNL     1      20.511  51.037  49.358  1.00  0.00     0.011 A 
HETATM   14  C   UNL     1      19.609  50.374  50.199  1.00  0.00     0.016 A 
HETATM   15  C   UNL     1      18.263  50.752  50.222  1.00  0.00     0.007 A 
HETATM   16  C   UNL     1      17.800  51.796  49.413  1.00  0.00    -0.062 A 
HETATM   17  C   UNL     1      16.351  52.188  49.417  1.00  0.00     0.048 C 
HETATM   18  C   UNL     1      18.698  52.442  48.557  1.00  0.00     0.007 A 
HETATM   19  C   UNL     1      20.043  52.066  48.530  1.00  0.00     0.016 A 
ENDBRANCH  11  13
ENDBRANCH  10  11
ENDBRANCH   9  10
ENDBRANCH   1   9
BRANCH   8  20
HETATM   20  N   UNL     1      23.800  45.219  50.413  1.00  0.00    -0.397 N 
HETATM   21  H   UNL     1      23.601  44.226  50.322  1.00  0.00     0.156 HD
HETATM   22  H   UNL     1      22.962  45.793  50.311  1.00  0.00     0.156 HD
ENDBRANCH   8  20
BRANCH   7  23
HETATM   23  C   UNL     1      26.508  43.821  51.169  1.00  0.00     0.201 C 
HETATM   24  O   UNL     1      25.953  42.784  50.804  1.00  0.00    -0.286 OA
BRANCH  23  25
HETATM   25  C   UNL     1      27.513  43.703  52.267  1.00  0.00     0.015 A 
HETATM   26  C   UNL     1      27.391  44.407  53.472  1.00  0.00     0.016 A 
HETATM   27  C   UNL     1      28.371  44.284  54.461  1.00  0.00     0.007 A 
HETATM   28  C   UNL     1      29.494  43.476  54.254  1.00  0.00    -0.062 A 
HETATM   29  C   UNL     1      30.552  43.339  55.310  1.00  0.00     0.048 C 
HETATM   30  C   UNL     1      29.622  42.782  53.045  1.00  0.00     0.007 A 
HETATM   31  C   UNL     1      28.642  42.899  52.056  1.00  0.00     0.016 A 
ENDBRANCH  23  25
ENDBRANCH   7  23
TORSDOF 7
ENDMDL
MODEL 6
REMARK VINA RESULT:      -8.8      4.397      7.558
REMARK  7 active torsions:
REMARK  status: ('A' for Active; 'I' for Inactive)
REMARK    1  A    between atoms: C_5  and  C_6 
REMARK    2  A    between atoms: C_6  and  C_7 
REMARK    3  A    between atoms: C_7  and  S_8 
REMARK    4  A    between atoms: S_8  and  C_9 
REMARK    5  A    between atoms: C_15  and  C_16 
REMARK    6  A    between atoms: C_16  and  C_17 
REMARK    7  A    between atoms: C_25  and  N_26 
ROOT
HETATM    1  C   UNL     1      25.131  46.140  52.024  1.00  0.00     0.116 A 
HETATM    2  N   UNL     1      24.985  47.403  51.594  1.00  0.00    -0.203 NA
HETATM    3  S   UNL     1      24.573  47.362  49.961  1.00  0.00     0.020 SA
HETATM    4  C   UNL     1      24.615  45.697  49.849  1.00  0.00     0.080 A 
HETATM    5  C   UNL     1      24.934  45.157  51.033  1.00  0.00     0.053 A 
HETATM    6  S   UNL     1      24.345  44.591  48.641  1.00  0.00    -0.074 SA
HETATM    7  C   UNL     1      24.701  43.280  49.742  1.00  0.00     0.084 A 
HETATM    8  C   UNL     1      24.980  43.751  51.026  1.00  0.00     0.062 A 
ENDROOT
BRANCH   1   9
HETATM    9  S   UNL     1      25.569  45.836  53.699  1.00  0.00    -0.101 SA
BRANCH   9  10
HETATM   10  C   UNL     1      27.361  45.604  53.538  1.00  0.00     0.164 C 
BRANCH  10  11
HETATM   11  C   UNL     1      28.051  46.168  54.760  1.00  0.00     0.169 C 
HETATM   12  O   UNL     1      27.764  47.280  55.202  1.00  0.00    -0.291 OA
BRANCH  11  13
HETATM   13  C   UNL     1      29.118  45.369  55.437  1.00  0.00     0.011 A 
HETATM   14  C   UNL     1      29.728  45.779  56.628  1.00  0.00     0.016 A 
HETATM   15  C   UNL     1      30.718  44.987  57.219  1.00  0.00     0.007 A 
HETATM   16  C   UNL     1      31.107  43.777  56.635  1.00  0.00    -0.062 A 
HETATM   17  C   UNL     1      32.186  42.936  57.253  1.00  0.00     0.048 C 
HETATM   18  C   UNL     1      30.512  43.380  55.432  1.00  0.00     0.007 A 
HETATM   19  C   UNL     1      29.525  44.169  54.838  1.00  0.00     0.016 A 
ENDBRANCH  11  13
ENDBRANCH  10  11
ENDBRANCH   9  10
ENDBRANCH   1   9
BRANCH   8  20
HETATM   20  N   UNL     1      25.241  42.974  52.100  1.00  0.00    -0.397 N 
HETATM   21  H   UNL     1      25.123  41.964  52.103  1.00  0.00     0.156 HD
HETATM   22  H   UNL     1      25.245  43.367  53.043  1.00  0.00     0.156 HD
ENDBRANCH   8  20
BRANCH   7  23
HETATM   23  C   UNL     1      24.636  41.931  49.201  1.00  0.00     0.201 C 
HETATM   24  O   UNL     1      23.596  41.431  48.771  1.00  0.00    -0.286 OA
BRANCH  23  25
HETATM   25  C   UNL     1      25.870  41.092  49.138  1.00  0.00     0.015 A 
HETATM   26  C   UNL     1      26.093  40.022  50.015  1.00  0.00     0.016 A 
HETATM   27  C   UNL     1      27.274  39.280  49.934  1.00  0.00     0.007 A 
HETATM   28  C   UNL     1      28.257  39.608  48.994  1.00  0.00    -0.062 A 
HETATM   29  C   UNL     1      29.530  38.817  48.900  1.00  0.00     0.048 C 
HETATM   30  C   UNL     1      28.039  40.684  48.125  1.00  0.00     0.007 A 
HETATM   31  C   UNL     1      26.857  41.425  48.200  1.00  0.00     0.016 A 
ENDBRANCH  23  25
ENDBRANCH   7  23
TORSDOF 7
ENDMDL
MODEL 7
REMARK VINA RESULT:      -8.6      5.671      9.119
REMARK  7 active torsions:
REMARK  status: ('A' for Active; 'I' for Inactive)
REMARK    1  A    between atoms: C_5  and  C_6 
REMARK    2  A    between atoms: C_6  and  C_7 
REMARK    3  A    between atoms: C_7  and  S_8 
REMARK    4  A    between atoms: S_8  and  C_9 
REMARK    5  A    between atoms: C_15  and  C_16 
REMARK    6  A    between atoms: C_16  and  C_17 
REMARK    7  A    between atoms: C_25  and  N_26 
ROOT
HETATM    1  C   UNL     1      25.244  43.713  51.593  1.00  0.00     0.116 A 
HETATM    2  N   UNL     1      24.384  44.376  50.805  1.00  0.00    -0.203 NA
HETATM    3  S   UNL     1      24.360  43.625  49.298  1.00  0.00     0.020 SA
HETATM    4  C   UNL     1      25.488  42.462  49.704  1.00  0.00     0.080 A 
HETATM    5  C   UNL     1      25.889  42.624  50.972  1.00  0.00     0.053 A 
HETATM    6  S   UNL     1      26.193  41.181  48.920  1.00  0.00    -0.074 SA
HETATM    7  C   UNL     1      27.135  40.808  50.345  1.00  0.00     0.084 A 
HETATM    8  C   UNL     1      26.836  41.675  51.397  1.00  0.00     0.062 A 
ENDROOT
BRANCH   1   9
HETATM    9  S   UNL     1      25.504  44.253  53.246  1.00  0.00    -0.101 SA
BRANCH   9  10
HETATM   10  C   UNL     1      27.022  45.225  53.043  1.00  0.00     0.164 C 
BRANCH  10  11
HETATM   11  C   UNL     1      27.438  45.791  54.383  1.00  0.00     0.169 C 
HETATM   12  O   UNL     1      26.831  46.731  54.898  1.00  0.00    -0.291 OA
BRANCH  11  13
HETATM   13  C   UNL     1      28.620  45.213  55.092  1.00  0.00     0.011 A 
HETATM   14  C   UNL     1      29.204  45.823  56.208  1.00  0.00     0.016 A 
HETATM   15  C   UNL     1      30.307  45.232  56.834  1.00  0.00     0.007 A 
HETATM   16  C   UNL     1      30.836  44.027  56.359  1.00  0.00    -0.062 A 
HETATM   17  C   UNL     1      32.034  43.403  57.013  1.00  0.00     0.048 C 
HETATM   18  C   UNL     1      30.265  43.431  55.230  1.00  0.00     0.007 A 
HETATM   19  C   UNL     1      29.165  44.019  54.601  1.00  0.00     0.016 A 
ENDBRANCH  11  13
ENDBRANCH  10  11
ENDBRANCH   9  10
ENDBRANCH   1   9
BRANCH   8  20
HETATM   20  N   UNL     1      27.365  41.603  52.638  1.00  0.00    -0.397 N 
HETATM   21  H   UNL     1      26.812  41.676  53.489  1.00  0.00     0.156 HD
HETATM   22  H   UNL     1      28.353  41.804  52.800  1.00  0.00     0.156 HD
ENDBRANCH   8  20
BRANCH   7  23
HETATM   23  C   UNL     1      28.046  39.677  50.254  1.00  0.00     0.201 C 
HETATM   24  O   UNL     1      29.018  39.539  50.997  1.00  0.00    -0.286 OA
BRANCH  23  25
HETATM   25  C   UNL     1      27.812  38.610  49.235  1.00  0.00     0.015 A 
HETATM   26  C   UNL     1      28.520  38.562  48.028  1.00  0.00     0.016 A 
HETATM   27  C   UNL     1      28.249  37.559  47.093  1.00  0.00     0.007 A 
HETATM   28  C   UNL     1      27.256  36.605  47.340  1.00  0.00    -0.062 A 
HETATM   29  C   UNL     1      26.958  35.524  46.343  1.00  0.00     0.048 C 
HETATM   30  C   UNL     1      26.542  36.660  48.543  1.00  0.00     0.007 A 
HETATM   31  C   UNL     1      26.813  37.659  49.481  1.00  0.00     0.016 A 
ENDBRANCH  23  25
ENDBRANCH   7  23
TORSDOF 7
ENDMDL
MODEL 8
REMARK VINA RESULT:      -8.3      1.943      9.841
REMARK  7 active torsions:
REMARK  status: ('A' for Active; 'I' for Inactive)
REMARK    1  A    between atoms: C_5  and  C_6 
REMARK    2  A    between atoms: C_6  and  C_7 
REMARK    3  A    between atoms: C_7  and  S_8 
REMARK    4  A    between atoms: S_8  and  C_9 
REMARK    5  A    between atoms: C_15  and  C_16 
REMARK    6  A    between atoms: C_16  and  C_17 
REMARK    7  A    between atoms: C_25  and  N_26 
ROOT
HETATM    1  C   UNL     1      22.740  47.723  48.185  1.00  0.00     0.116 A 
HETATM    2  N   UNL     1      23.175  48.952  47.865  1.00  0.00    -0.203 NA
HETATM    3  S   UNL     1      24.570  49.268  48.754  1.00  0.00     0.020 SA
HETATM    4  C   UNL     1      24.563  47.801  49.551  1.00  0.00     0.080 A 
HETATM    5  C   UNL     1      23.518  47.060  49.155  1.00  0.00     0.053 A 
HETATM    6  S   UNL     1      25.536  47.068  50.678  1.00  0.00    -0.074 SA
HETATM    7  C   UNL     1      24.496  45.663  50.684  1.00  0.00     0.084 A 
HETATM    8  C   UNL     1      23.445  45.799  49.775  1.00  0.00     0.062 A 
ENDROOT
BRANCH   1   9
HETATM    9  S   UNL     1      21.287  47.090  47.426  1.00  0.00    -0.101 SA
BRANCH   9  10
HETATM   10  C   UNL     1      20.241  48.572  47.421  1.00  0.00     0.164 C 
BRANCH  10  11
HETATM   11  C   UNL     1      19.507  48.672  48.740  1.00  0.00     0.169 C 
HETATM   12  O   UNL     1      19.543  47.758  49.564  1.00  0.00    -0.291 OA
BRANCH  11  13
HETATM   13  C   UNL     1      18.707  49.897  49.046  1.00  0.00     0.011 A 
HETATM   14  C   UNL     1      19.265  51.037  49.635  1.00  0.00     0.016 A 
HETATM   15  C   UNL     1      18.468  52.157  49.893  1.00  0.00     0.007 A 
HETATM   16  C   UNL     1      17.108  52.155  49.563  1.00  0.00    -0.062 A 
HETATM   17  C   UNL     1      16.243  53.346  49.862  1.00  0.00     0.048 C 
HETATM   18  C   UNL     1      16.547  51.007  48.996  1.00  0.00     0.007 A 
HETATM   19  C   UNL     1      17.340  49.886  48.739  1.00  0.00     0.016 A 
ENDBRANCH  11  13
ENDBRANCH  10  11
ENDBRANCH   9  10
ENDBRANCH   1   9
BRANCH   8  20
HETATM   20  N   UNL     1      22.510  44.858  49.519  1.00  0.00    -0.397 N 
HETATM   21  H   UNL     1      21.519  45.064  49.421  1.00  0.00     0.156 HD
HETATM   22  H   UNL     1      22.682  43.875  49.737  1.00  0.00     0.156 HD
ENDBRANCH   8  20
BRANCH   7  23
HETATM   23  C   UNL     1      24.863  44.575  51.578  1.00  0.00     0.201 C 
HETATM   24  O   UNL     1      24.340  43.462  51.529  1.00  0.00    -0.286 OA
BRANCH  23  25
HETATM   25  C   UNL     1      25.928  44.781  52.605  1.00  0.00     0.015 A 
HETATM   26  C   UNL     1      25.779  45.679  53.668  1.00  0.00     0.016 A 
HETATM   27  C   UNL     1      26.813  45.857  54.591  1.00  0.00     0.007 A 
HETATM   28  C   UNL     1      28.017  45.158  54.453  1.00  0.00    -0.062 A 
HETATM   29  C   UNL     1      29.134  45.342  55.439  1.00  0.00     0.048 C 
HETATM   30  C   UNL     1      28.171  44.267  53.383  1.00  0.00     0.007 A 
HETATM   31  C   UNL     1      27.137  44.085  52.462  1.00  0.00     0.016 A 
ENDBRANCH  23  25
ENDBRANCH   7  23
TORSDOF 7
ENDMDL
MODEL 9
REMARK VINA RESULT:      -8.1      1.933      2.615
REMARK  7 active torsions:
REMARK  status: ('A' for Active; 'I' for Inactive)
REMARK    1  A    between atoms: C_5  and  C_6 
REMARK    2  A    between atoms: C_6  and  C_7 
REMARK    3  A    between atoms: C_7  and  S_8 
REMARK    4  A    between atoms: S_8  and  C_9 
REMARK    5  A    between atoms: C_15  and  C_16 
REMARK    6  A    between atoms: C_16  and  C_17 
REMARK    7  A    between atoms: C_25  and  N_26 
ROOT
HETATM    1  C   UNL     1      25.328  43.150  49.520  1.00  0.00     0.116 A 
HETATM    2  N   UNL     1      24.362  42.250  49.279  1.00  0.00    -0.203 NA
HETATM    3  S   UNL     1      22.957  43.079  48.863  1.00  0.00     0.020 SA
HETATM    4  C   UNL     1      23.637  44.595  49.024  1.00  0.00     0.080 A 
HETATM    5  C   UNL     1      24.924  44.493  49.388  1.00  0.00     0.053 A 
HETATM    6  S   UNL     1      23.102  46.154  48.829  1.00  0.00    -0.074 SA
HETATM    7  C   UNL     1      24.674  46.767  49.286  1.00  0.00     0.084 A 
HETATM    8  C   UNL     1      25.575  45.731  49.537  1.00  0.00     0.062 A 
ENDROOT
BRANCH   1   9
HETATM    9  S   UNL     1      26.931  42.601  49.988  1.00  0.00    -0.101 SA
BRANCH   9  10
HETATM   10  C   UNL     1      26.847  42.822  51.786  1.00  0.00     0.164 C 
BRANCH  10  11
HETATM   11  C   UNL     1      28.188  42.480  52.397  1.00  0.00     0.169 C 
HETATM   12  O   UNL     1      28.848  41.522  51.996  1.00  0.00    -0.291 OA
BRANCH  11  13
HETATM   13  C   UNL     1      28.717  43.308  53.523  1.00  0.00     0.011 A 
HETATM   14  C   UNL     1      28.085  44.475  53.965  1.00  0.00     0.016 A 
HETATM   15  C   UNL     1      28.623  45.207  55.029  1.00  0.00     0.007 A 
HETATM   16  C   UNL     1      29.795  44.782  55.666  1.00  0.00    -0.062 A 
HETATM   17  C   UNL     1      30.390  45.577  56.791  1.00  0.00     0.048 C 
HETATM   18  C   UNL     1      30.438  43.627  55.208  1.00  0.00     0.007 A 
HETATM   19  C   UNL     1      29.903  42.896  54.145  1.00  0.00     0.016 A 
ENDBRANCH  11  13
ENDBRANCH  10  11
ENDBRANCH   9  10
ENDBRANCH   1   9
BRANCH   8  20
HETATM   20  N   UNL     1      26.877  45.893  49.859  1.00  0.00    -0.397 N 
HETATM   21  H   UNL     1      27.514  46.489  49.336  1.00  0.00     0.156 HD
HETATM   22  H   UNL     1      27.370  45.195  50.418  1.00  0.00     0.156 HD
ENDBRANCH   8  20
BRANCH   7  23
HETATM   23  C   UNL     1      24.833  48.213  49.316  1.00  0.00     0.201 C 
HETATM   24  O   UNL     1      25.912  48.764  49.533  1.00  0.00    -0.286 OA
BRANCH  23  25
HETATM   25  C   UNL     1      23.657  49.099  49.062  1.00  0.00     0.015 A 
HETATM   26  C   UNL     1      22.516  49.076  49.872  1.00  0.00     0.016 A 
HETATM   27  C   UNL     1      21.429  49.905  49.581  1.00  0.00     0.007 A 
HETATM   28  C   UNL     1      21.459  50.752  48.468  1.00  0.00    -0.062 A 
HETATM   29  C   UNL     1      20.297  51.647  48.147  1.00  0.00     0.048 C 
HETATM   30  C   UNL     1      22.596  50.767  47.652  1.00  0.00     0.007 A 
HETATM   31  C   UNL     1      23.685  49.942  47.942  1.00  0.00     0.016 A 
ENDBRANCH  23  25
ENDBRANCH   7  23
TORSDOF 7
ENDMDL
MODEL 10
REMARK VINA RESULT:      -8.0      2.484      3.537
REMARK  7 active torsions:
REMARK  status: ('A' for Active; 'I' for Inactive)
REMARK    1  A    between atoms: C_5  and  C_6 
REMARK    2  A    between atoms: C_6  and  C_7 
REMARK    3  A    between atoms: C_7  and  S_8 
REMARK    4  A    between atoms: S_8  and  C_9 
REMARK    5  A    between atoms: C_15  and  C_16 
REMARK    6  A    between atoms: C_16  and  C_17 
REMARK    7  A    between atoms: C_25  and  N_26 
ROOT
HETATM    1  C   UNL     1      23.916  47.758  49.232  1.00  0.00     0.116 A 
HETATM    2  N   UNL     1      24.973  48.578  49.130  1.00  0.00    -0.203 NA
HETATM    3  S   UNL     1      24.447  50.045  48.493  1.00  0.00     0.020 SA
HETATM    4  C   UNL     1      22.853  49.570  48.347  1.00  0.00     0.080 A 
HETATM    5  C   UNL     1      22.701  48.309  48.777  1.00  0.00     0.053 A 
HETATM    6  S   UNL     1      21.453  50.287  47.818  1.00  0.00    -0.074 SA
HETATM    7  C   UNL     1      20.559  48.821  48.147  1.00  0.00     0.084 A 
HETATM    8  C   UNL     1      21.379  47.834  48.697  1.00  0.00     0.062 A 
ENDROOT
BRANCH   1   9
HETATM    9  S   UNL     1      24.133  46.132  49.864  1.00  0.00    -0.101 SA
BRANCH   9  10
HETATM   10  C   UNL     1      25.609  46.368  50.891  1.00  0.00     0.164 C 
BRANCH  10  11
HETATM   11  C   UNL     1      25.504  45.503  52.127  1.00  0.00     0.169 C 
HETATM   12  O   UNL     1      24.535  44.767  52.313  1.00  0.00    -0.291 OA
BRANCH  11  13
HETATM   13  C   UNL     1      26.587  45.553  53.156  1.00  0.00     0.011 A 
HETATM   14  C   UNL     1      27.439  44.472  53.409  1.00  0.00     0.016 A 
HETATM   15  C   UNL     1      28.439  44.579  54.381  1.00  0.00     0.007 A 
HETATM   16  C   UNL     1      28.605  45.764  55.106  1.00  0.00    -0.062 A 
HETATM   17  C   UNL     1      29.661  45.874  56.168  1.00  0.00     0.048 C 
HETATM   18  C   UNL     1      27.738  46.836  54.868  1.00  0.00     0.007 A 
HETATM   19  C   UNL     1      26.737  46.731  53.899  1.00  0.00     0.016 A 
ENDBRANCH  11  13
ENDBRANCH  10  11
ENDBRANCH   9  10
ENDBRANCH   1   9
BRANCH   8  20
HETATM   20  N   UNL     1      20.963  46.614  49.102  1.00  0.00    -0.397 N 
HETATM   21  H   UNL     1      21.119  45.763  48.569  1.00  0.00     0.156 HD
HETATM   22  H   UNL     1      20.200  46.517  49.774  1.00  0.00     0.156 HD
ENDBRANCH   8  20
BRANCH   7  23
HETATM   23  C   UNL     1      19.137  48.835  47.842  1.00  0.00     0.201 C 
HETATM   24  O   UNL     1      18.349  47.998  48.284  1.00  0.00    -0.286 OA
BRANCH  23  25
HETATM   25  C   UNL     1      18.571  49.906  46.969  1.00  0.00     0.015 A 
HETATM   26  C   UNL     1      18.696  49.877  45.574  1.00  0.00     0.016 A 
HETATM   27  C   UNL     1      18.172  50.915  44.799  1.00  0.00     0.007 A 
HETATM   28  C   UNL     1      17.537  52.005  45.404  1.00  0.00    -0.062 A 
HETATM   29  C   UNL     1      16.971  53.124  44.580  1.00  0.00     0.048 C 
HETATM   30  C   UNL     1      17.422  52.039  46.799  1.00  0.00     0.007 A 
HETATM   31  C   UNL     1      17.941  51.001  47.577  1.00  0.00     0.016 A 
ENDBRANCH  23  25
ENDBRANCH   7  23
TORSDOF 7
ENDMDL
