MODEL 1
REMARK VINA RESULT:      -9.0      0.000      0.000
REMARK  9 active torsions:
REMARK  status: ('A' for Active; 'I' for Inactive)
REMARK    1  A    between atoms: C_2  and  C_3 
REMARK    2  A    between atoms: C_3  and  C_4 
REMARK    3  A    between atoms: C_4  and  N_5 
REMARK       I    between atoms: N_5  and  C_6 
REMARK    4  A    between atoms: C_6  and  C_7 
REMARK    5  A    between atoms: C_14  and  S_15 
REMARK    6  A    between atoms: S_15  and  N_16 
REMARK    7  A    between atoms: N_16  and  C_17 
REMARK    8  A    between atoms: C_20  and  O_21 
REMARK    9  A    between atoms: O_21  and  C_22 
ROOT
HETATM    1  C   UNL     1      25.483  45.092  52.394  1.00  0.00     0.098 A 
HETATM    2  C   UNL     1      25.409  46.491  51.884  1.00  0.00     0.201 A 
HETATM    3  O   UNL     1      25.988  47.416  52.449  1.00  0.00    -0.286 OA
HETATM    4  C   UNL     1      24.602  46.749  50.660  1.00  0.00     0.043 A 
HETATM    5  C   UNL     1      23.953  45.668  50.036  1.00  0.00     0.046 A 
HETATM    6  N   UNL     1      24.051  44.386  50.586  1.00  0.00    -0.364 N 
HETATM    7  C   UNL     1      24.485  48.047  50.155  1.00  0.00     0.043 A 
HETATM    8  C   UNL     1      23.669  48.270  49.044  1.00  0.00     0.081 A 
HETATM    9  C   UNL     1      23.017  47.205  48.411  1.00  0.00     0.027 A 
HETATM   10  C   UNL     1      23.158  45.908  48.911  1.00  0.00     0.032 A 
HETATM   11  C   UNL     1      24.813  44.155  51.701  1.00  0.00     0.109 A 
HETATM   12  H   UNL     1      23.706  43.588  50.062  1.00  0.00     0.165 HD
ENDROOT
BRANCH   8  13
HETATM   13  S   UNL     1      23.479  49.922  48.403  1.00  0.00     0.263 S 
HETATM   14  O   UNL     1      23.446  50.831  49.526  1.00  0.00    -0.200 OA
HETATM   15  O   UNL     1      24.445  50.080  47.336  1.00  0.00    -0.200 OA
BRANCH  13  16
HETATM   16  N   UNL     1      21.966  49.866  47.653  1.00  0.00    -0.281 N 
HETATM   17  H   UNL     1      21.872  49.073  47.021  1.00  0.00     0.179 HD
BRANCH  16  18
HETATM   18  C   UNL     1      20.817  50.299  48.366  1.00  0.00     0.042 A 
HETATM   19  C   UNL     1      20.035  49.386  49.067  1.00  0.00     0.033 A 
HETATM   20  C   UNL     1      18.879  49.819  49.719  1.00  0.00     0.039 A 
HETATM   21  C   UNL     1      18.489  51.160  49.665  1.00  0.00     0.068 A 
HETATM   22  C   UNL     1      19.277  52.072  48.962  1.00  0.00     0.039 A 
HETATM   23  C   UNL     1      20.442  51.642  48.314  1.00  0.00     0.033 A 
BRANCH  21  24
HETATM   24  O   UNL     1      17.336  51.442  50.341  1.00  0.00    -0.352 OA
BRANCH  24  25
HETATM   25  C   UNL     1      16.350  52.213  49.657  1.00  0.00     0.171 C 
HETATM   26  C   UNL     1      15.678  51.310  48.638  1.00  0.00     0.034 C 
ENDBRANCH  24  25
ENDBRANCH  21  24
ENDBRANCH  16  18
ENDBRANCH  13  16
ENDBRANCH   8  13
BRANCH   1  27
HETATM   27  C   UNL     1      26.238  44.671  53.609  1.00  0.00     0.257 C 
HETATM   28  N   UNL     1      27.596  44.845  53.542  1.00  0.00    -0.357 N 
HETATM   29  H   UNL     1      27.999  45.186  52.667  1.00  0.00     0.162 HD
HETATM   30  O   UNL     1      25.668  44.209  54.593  1.00  0.00    -0.267 OA
BRANCH  28  31
HETATM   31  C   UNL     1      28.492  44.443  54.604  1.00  0.00     0.123 C 
BRANCH  31  32
HETATM   32  C   UNL     1      29.552  43.447  54.134  1.00  0.00     0.019 C 
BRANCH  32  33
HETATM   33  C   UNL     1      30.663  43.243  55.166  1.00  0.00    -0.003 C 
HETATM   34  C   UNL     1      30.750  44.417  56.127  1.00  0.00     0.005 C 
ENDBRANCH  32  33
ENDBRANCH  31  32
ENDBRANCH  28  31
ENDBRANCH   1  27
TORSDOF 9
ENDMDL
MODEL 2
REMARK VINA RESULT:      -8.7      2.559     10.598
REMARK  9 active torsions:
REMARK  status: ('A' for Active; 'I' for Inactive)
REMARK    1  A    between atoms: C_2  and  C_3 
REMARK    2  A    between atoms: C_3  and  C_4 
REMARK    3  A    between atoms: C_4  and  N_5 
REMARK       I    between atoms: N_5  and  C_6 
REMARK    4  A    between atoms: C_6  and  C_7 
REMARK    5  A    between atoms: C_14  and  S_15 
REMARK    6  A    between atoms: S_15  and  N_16 
REMARK    7  A    between atoms: N_16  and  C_17 
REMARK    8  A    between atoms: C_20  and  O_21 
REMARK    9  A    between atoms: O_21  and  C_22 
ROOT
HETATM    1  C   UNL     1      22.910  47.820  49.203  1.00  0.00     0.098 A 
HETATM    2  C   UNL     1      24.111  47.233  49.865  1.00  0.00     0.201 A 
HETATM    3  O   UNL     1      25.014  47.940  50.307  1.00  0.00    -0.286 OA
HETATM    4  C   UNL     1      24.198  45.752  49.975  1.00  0.00     0.043 A 
HETATM    5  C   UNL     1      23.146  44.971  49.459  1.00  0.00     0.046 A 
HETATM    6  N   UNL     1      22.061  45.593  48.833  1.00  0.00    -0.364 N 
HETATM    7  C   UNL     1      25.314  45.154  50.567  1.00  0.00     0.043 A 
HETATM    8  C   UNL     1      25.399  43.761  50.598  1.00  0.00     0.081 A 
HETATM    9  C   UNL     1      24.360  42.970  50.090  1.00  0.00     0.027 A 
HETATM   10  C   UNL     1      23.239  43.578  49.519  1.00  0.00     0.032 A 
HETATM   11  C   UNL     1      21.981  46.958  48.755  1.00  0.00     0.109 A 
HETATM   12  H   UNL     1      21.241  45.045  48.591  1.00  0.00     0.165 HD
ENDROOT
BRANCH   8  13
HETATM   13  S   UNL     1      26.827  42.977  51.319  1.00  0.00     0.263 S 
HETATM   14  O   UNL     1      26.791  41.576  50.960  1.00  0.00    -0.200 OA
HETATM   15  O   UNL     1      27.973  43.803  51.005  1.00  0.00    -0.200 OA
BRANCH  13  16
HETATM   16  N   UNL     1      26.564  43.160  52.977  1.00  0.00    -0.281 N 
HETATM   17  H   UNL     1      25.900  42.482  53.345  1.00  0.00     0.179 HD
BRANCH  16  18
HETATM   18  C   UNL     1      27.636  43.574  53.813  1.00  0.00     0.042 A 
HETATM   19  C   UNL     1      27.647  44.849  54.370  1.00  0.00     0.033 A 
HETATM   20  C   UNL     1      28.733  45.259  55.145  1.00  0.00     0.039 A 
HETATM   21  C   UNL     1      29.818  44.405  55.360  1.00  0.00     0.068 A 
HETATM   22  C   UNL     1      29.802  43.127  54.801  1.00  0.00     0.039 A 
HETATM   23  C   UNL     1      28.711  42.710  54.030  1.00  0.00     0.033 A 
BRANCH  21  24
HETATM   24  O   UNL     1      30.812  44.936  56.132  1.00  0.00    -0.352 OA
BRANCH  24  25
HETATM   25  C   UNL     1      31.007  44.371  57.427  1.00  0.00     0.171 C 
HETATM   26  C   UNL     1      32.033  43.260  57.302  1.00  0.00     0.034 C 
ENDBRANCH  24  25
ENDBRANCH  21  24
ENDBRANCH  16  18
ENDBRANCH  13  16
ENDBRANCH   8  13
BRANCH   1  27
HETATM   27  C   UNL     1      22.677  49.279  49.006  1.00  0.00     0.257 C 
HETATM   28  N   UNL     1      21.543  49.775  49.595  1.00  0.00    -0.357 N 
HETATM   29  H   UNL     1      20.916  49.120  50.067  1.00  0.00     0.162 HD
HETATM   30  O   UNL     1      23.460  49.975  48.365  1.00  0.00    -0.267 OA
BRANCH  28  31
HETATM   31  C   UNL     1      21.130  51.154  49.464  1.00  0.00     0.123 C 
BRANCH  31  32
HETATM   32  C   UNL     1      20.240  51.389  48.244  1.00  0.00     0.019 C 
BRANCH  32  33
HETATM   33  C   UNL     1      19.117  52.391  48.520  1.00  0.00    -0.003 C 
HETATM   34  C   UNL     1      18.402  52.077  49.823  1.00  0.00     0.005 C 
ENDBRANCH  32  33
ENDBRANCH  31  32
ENDBRANCH  28  31
ENDBRANCH   1  27
TORSDOF 9
ENDMDL
MODEL 3
REMARK VINA RESULT:      -8.1      1.421      1.898
REMARK  9 active torsions:
REMARK  status: ('A' for Active; 'I' for Inactive)
REMARK    1  A    between atoms: C_2  and  C_3 
REMARK    2  A    between atoms: C_3  and  C_4 
REMARK    3  A    between atoms: C_4  and  N_5 
REMARK       I    between atoms: N_5  and  C_6 
REMARK    4  A    between atoms: C_6  and  C_7 
REMARK    5  A    between atoms: C_14  and  S_15 
REMARK    6  A    between atoms: S_15  and  N_16 
REMARK    7  A    between atoms: N_16  and  C_17 
REMARK    8  A    between atoms: C_20  and  O_21 
REMARK    9  A    between atoms: O_21  and  C_22 
ROOT
HETATM    1  C   UNL     1      26.052  44.771  51.916  1.00  0.00     0.098 A 
HETATM    2  C   UNL     1      25.684  46.106  51.363  1.00  0.00     0.201 A 
HETATM    3  O   UNL     1      26.261  47.133  51.717  1.00  0.00    -0.286 OA
HETATM    4  C   UNL     1      24.583  46.173  50.365  1.00  0.00     0.043 A 
HETATM    5  C   UNL     1      23.944  44.979  49.980  1.00  0.00     0.046 A 
HETATM    6  N   UNL     1      24.331  43.766  50.558  1.00  0.00    -0.364 N 
HETATM    7  C   UNL     1      24.187  47.404  49.834  1.00  0.00     0.043 A 
HETATM    8  C   UNL     1      23.108  47.443  48.948  1.00  0.00     0.081 A 
HETATM    9  C   UNL     1      22.463  46.264  48.554  1.00  0.00     0.027 A 
HETATM   10  C   UNL     1      22.881  45.037  49.075  1.00  0.00     0.032 A 
HETATM   11  C   UNL     1      25.359  43.713  51.462  1.00  0.00     0.109 A 
HETATM   12  H   UNL     1      23.974  42.894  50.180  1.00  0.00     0.165 HD
ENDROOT
BRANCH   8  13
HETATM   13  S   UNL     1      22.565  49.005  48.284  1.00  0.00     0.263 S 
HETATM   14  O   UNL     1      23.731  49.704  47.790  1.00  0.00    -0.200 OA
HETATM   15  O   UNL     1      21.432  48.733  47.424  1.00  0.00    -0.200 OA
BRANCH  13  16
HETATM   16  N   UNL     1      21.940  49.797  49.638  1.00  0.00    -0.281 N 
HETATM   17  H   UNL     1      22.626  50.396  50.092  1.00  0.00     0.179 HD
BRANCH  16  18
HETATM   18  C   UNL     1      20.581  50.210  49.640  1.00  0.00     0.042 A 
HETATM   19  C   UNL     1      20.217  51.449  49.120  1.00  0.00     0.033 A 
HETATM   20  C   UNL     1      18.886  51.863  49.178  1.00  0.00     0.039 A 
HETATM   21  C   UNL     1      17.911  51.050  49.764  1.00  0.00     0.068 A 
HETATM   22  C   UNL     1      18.280  49.808  50.283  1.00  0.00     0.039 A 
HETATM   23  C   UNL     1      19.614  49.387  50.219  1.00  0.00     0.033 A 
BRANCH  21  24
HETATM   24  O   UNL     1      16.653  51.580  49.758  1.00  0.00    -0.352 OA
BRANCH  24  25
HETATM   25  C   UNL     1      16.534  52.985  49.975  1.00  0.00     0.171 C 
HETATM   26  C   UNL     1      15.063  53.306  50.160  1.00  0.00     0.034 C 
ENDBRANCH  24  25
ENDBRANCH  21  24
ENDBRANCH  16  18
ENDBRANCH  13  16
ENDBRANCH   8  13
BRANCH   1  27
HETATM   27  C   UNL     1      27.122  44.537  52.928  1.00  0.00     0.257 C 
HETATM   28  N   UNL     1      27.277  45.534  53.855  1.00  0.00    -0.357 N 
HETATM   29  H   UNL     1      26.707  46.377  53.761  1.00  0.00     0.162 HD
HETATM   30  O   UNL     1      27.802  43.515  52.920  1.00  0.00    -0.267 OA
BRANCH  28  31
HETATM   31  C   UNL     1      28.300  45.503  54.877  1.00  0.00     0.123 C 
BRANCH  31  32
HETATM   32  C   UNL     1      28.118  46.601  55.926  1.00  0.00     0.019 C 
BRANCH  32  33
HETATM   33  C   UNL     1      28.686  46.208  57.291  1.00  0.00    -0.003 C 
HETATM   34  C   UNL     1      30.164  45.865  57.198  1.00  0.00     0.005 C 
ENDBRANCH  32  33
ENDBRANCH  31  32
ENDBRANCH  28  31
ENDBRANCH   1  27
TORSDOF 9
ENDMDL
MODEL 4
REMARK VINA RESULT:      -8.0      2.486      3.298
REMARK  9 active torsions:
REMARK  status: ('A' for Active; 'I' for Inactive)
REMARK    1  A    between atoms: C_2  and  C_3 
REMARK    2  A    between atoms: C_3  and  C_4 
REMARK    3  A    between atoms: C_4  and  N_5 
REMARK       I    between atoms: N_5  and  C_6 
REMARK    4  A    between atoms: C_6  and  C_7 
REMARK    5  A    between atoms: C_14  and  S_15 
REMARK    6  A    between atoms: S_15  and  N_16 
REMARK    7  A    between atoms: N_16  and  C_17 
REMARK    8  A    between atoms: C_20  and  O_21 
REMARK    9  A    between atoms: O_21  and  C_22 
ROOT
HETATM    1  C   UNL     1      25.903  46.491  49.821  1.00  0.00     0.098 A 
HETATM    2  C   UNL     1      24.446  46.573  49.515  1.00  0.00     0.201 A 
HETATM    3  O   UNL     1      23.707  45.598  49.629  1.00  0.00    -0.286 OA
HETATM    4  C   UNL     1      23.898  47.878  49.055  1.00  0.00     0.043 A 
HETATM    5  C   UNL     1      24.771  48.975  48.936  1.00  0.00     0.046 A 
HETATM    6  N   UNL     1      26.132  48.816  49.222  1.00  0.00    -0.364 N 
HETATM    7  C   UNL     1      22.543  47.999  48.735  1.00  0.00     0.043 A 
HETATM    8  C   UNL     1      22.070  49.218  48.243  1.00  0.00     0.081 A 
HETATM    9  C   UNL     1      22.926  50.319  48.121  1.00  0.00     0.027 A 
HETATM   10  C   UNL     1      24.275  50.193  48.464  1.00  0.00     0.032 A 
HETATM   11  C   UNL     1      26.622  47.616  49.664  1.00  0.00     0.109 A 
HETATM   12  H   UNL     1      26.731  49.634  49.276  1.00  0.00     0.165 HD
ENDROOT
BRANCH   8  13
HETATM   13  S   UNL     1      20.353  49.386  47.798  1.00  0.00     0.263 S 
HETATM   14  O   UNL     1      20.236  50.524  46.913  1.00  0.00    -0.200 OA
HETATM   15  O   UNL     1      19.883  48.075  47.402  1.00  0.00    -0.200 OA
BRANCH  13  16
HETATM   16  N   UNL     1      19.608  49.718  49.277  1.00  0.00    -0.281 N 
HETATM   17  H   UNL     1      20.278  49.854  50.031  1.00  0.00     0.179 HD
BRANCH  16  18
HETATM   18  C   UNL     1      18.407  50.477  49.299  1.00  0.00     0.042 A 
HETATM   19  C   UNL     1      17.255  49.996  48.684  1.00  0.00     0.033 A 
HETATM   20  C   UNL     1      16.099  50.777  48.669  1.00  0.00     0.039 A 
HETATM   21  C   UNL     1      16.087  52.046  49.256  1.00  0.00     0.068 A 
HETATM   22  C   UNL     1      17.244  52.523  49.872  1.00  0.00     0.039 A 
HETATM   23  C   UNL     1      18.403  51.738  49.897  1.00  0.00     0.033 A 
BRANCH  21  24
HETATM   24  O   UNL     1      14.893  52.702  49.163  1.00  0.00    -0.352 OA
BRANCH  24  25
HETATM   25  C   UNL     1      14.282  53.124  50.381  1.00  0.00     0.171 C 
HETATM   26  C   UNL     1      13.216  54.149  50.038  1.00  0.00     0.034 C 
ENDBRANCH  24  25
ENDBRANCH  21  24
ENDBRANCH  16  18
ENDBRANCH  13  16
ENDBRANCH   8  13
BRANCH   1  27
HETATM   27  C   UNL     1      26.605  45.259  50.282  1.00  0.00     0.257 C 
HETATM   28  N   UNL     1      26.825  45.182  51.632  1.00  0.00    -0.357 N 
HETATM   29  H   UNL     1      26.555  45.978  52.214  1.00  0.00     0.162 HD
HETATM   30  O   UNL     1      26.950  44.382  49.494  1.00  0.00    -0.267 OA
BRANCH  28  31
HETATM   31  C   UNL     1      27.539  44.086  52.250  1.00  0.00     0.123 C 
BRANCH  31  32
HETATM   32  C   UNL     1      27.965  44.395  53.685  1.00  0.00     0.019 C 
BRANCH  32  33
HETATM   33  C   UNL     1      28.946  43.362  54.242  1.00  0.00    -0.003 C 
HETATM   34  C   UNL     1      29.958  42.937  53.191  1.00  0.00     0.005 C 
ENDBRANCH  32  33
ENDBRANCH  31  32
ENDBRANCH  28  31
ENDBRANCH   1  27
TORSDOF 9
ENDMDL
MODEL 5
REMARK VINA RESULT:      -7.9      3.157      5.439
REMARK  9 active torsions:
REMARK  status: ('A' for Active; 'I' for Inactive)
REMARK    1  A    between atoms: C_2  and  C_3 
REMARK    2  A    between atoms: C_3  and  C_4 
REMARK    3  A    between atoms: C_4  and  N_5 
REMARK       I    between atoms: N_5  and  C_6 
REMARK    4  A    between atoms: C_6  and  C_7 
REMARK    5  A    between atoms: C_14  and  S_15 
REMARK    6  A    between atoms: S_15  and  N_16 
REMARK    7  A    between atoms: N_16  and  C_17 
REMARK    8  A    between atoms: C_20  and  O_21 
REMARK    9  A    between atoms: O_21  and  C_22 
ROOT
HETATM    1  C   UNL     1      28.553  42.560  52.896  1.00  0.00     0.098 A 
HETATM    2  C   UNL     1      27.340  43.223  52.338  1.00  0.00     0.201 A 
HETATM    3  O   UNL     1      27.007  44.355  52.682  1.00  0.00    -0.286 OA
HETATM    4  C   UNL     1      26.524  42.472  51.345  1.00  0.00     0.043 A 
HETATM    5  C   UNL     1      26.934  41.178  50.971  1.00  0.00     0.046 A 
HETATM    6  N   UNL     1      28.073  40.614  51.554  1.00  0.00    -0.364 N 
HETATM    7  C   UNL     1      25.366  43.043  50.810  1.00  0.00     0.043 A 
HETATM    8  C   UNL     1      24.585  42.290  49.930  1.00  0.00     0.081 A 
HETATM    9  C   UNL     1      24.980  41.002  49.547  1.00  0.00     0.027 A 
HETATM   10  C   UNL     1      26.151  40.449  50.072  1.00  0.00     0.032 A 
HETATM   11  C   UNL     1      28.828  41.322  52.452  1.00  0.00     0.109 A 
HETATM   12  H   UNL     1      28.449  39.747  51.183  1.00  0.00     0.165 HD
ENDROOT
BRANCH   8  13
HETATM   13  S   UNL     1      23.087  42.985  49.261  1.00  0.00     0.263 S 
HETATM   14  O   UNL     1      22.445  41.964  48.462  1.00  0.00    -0.200 OA
HETATM   15  O   UNL     1      22.391  43.633  50.352  1.00  0.00    -0.200 OA
BRANCH  13  16
HETATM   16  N   UNL     1      23.655  44.228  48.269  1.00  0.00    -0.281 N 
HETATM   17  H   UNL     1      23.541  44.022  47.279  1.00  0.00     0.179 HD
BRANCH  16  18
HETATM   18  C   UNL     1      23.524  45.577  48.695  1.00  0.00     0.042 A 
HETATM   19  C   UNL     1      22.508  46.382  48.187  1.00  0.00     0.033 A 
HETATM   20  C   UNL     1      22.424  47.721  48.575  1.00  0.00     0.039 A 
HETATM   21  C   UNL     1      23.357  48.266  49.461  1.00  0.00     0.068 A 
HETATM   22  C   UNL     1      24.373  47.455  49.968  1.00  0.00     0.039 A 
HETATM   23  C   UNL     1      24.455  46.110  49.587  1.00  0.00     0.033 A 
BRANCH  21  24
HETATM   24  O   UNL     1      23.160  49.587  49.749  1.00  0.00    -0.352 OA
BRANCH  24  25
HETATM   25  C   UNL     1      22.153  50.274  49.008  1.00  0.00     0.171 C 
HETATM   26  C   UNL     1      21.158  50.852  49.998  1.00  0.00     0.034 C 
ENDBRANCH  24  25
ENDBRANCH  21  24
ENDBRANCH  16  18
ENDBRANCH  13  16
ENDBRANCH   8  13
BRANCH   1  27
HETATM   27  C   UNL     1      29.468  43.171  53.903  1.00  0.00     0.257 C 
HETATM   28  N   UNL     1      28.885  44.085  54.741  1.00  0.00    -0.357 N 
HETATM   29  H   UNL     1      27.904  44.327  54.589  1.00  0.00     0.162 HD
HETATM   30  O   UNL     1      30.654  42.862  53.966  1.00  0.00    -0.267 OA
BRANCH  28  31
HETATM   31  C   UNL     1      29.629  44.817  55.743  1.00  0.00     0.123 C 
BRANCH  31  32
HETATM   32  C   UNL     1      29.225  46.290  55.817  1.00  0.00     0.019 C 
BRANCH  32  33
HETATM   33  C   UNL     1      28.017  46.612  54.935  1.00  0.00    -0.003 C 
HETATM   34  C   UNL     1      27.356  47.914  55.355  1.00  0.00     0.005 C 
ENDBRANCH  32  33
ENDBRANCH  31  32
ENDBRANCH  28  31
ENDBRANCH   1  27
TORSDOF 9
ENDMDL
MODEL 6
REMARK VINA RESULT:      -7.7      2.515     10.300
REMARK  9 active torsions:
REMARK  status: ('A' for Active; 'I' for Inactive)
REMARK    1  A    between atoms: C_2  and  C_3 
REMARK    2  A    between atoms: C_3  and  C_4 
REMARK    3  A    between atoms: C_4  and  N_5 
REMARK       I    between atoms: N_5  and  C_6 
REMARK    4  A    between atoms: C_6  and  C_7 
REMARK    5  A    between atoms: C_14  and  S_15 
REMARK    6  A    between atoms: S_15  and  N_16 
REMARK    7  A    between atoms: N_16  and  C_17 
REMARK    8  A    between atoms: C_20  and  O_21 
REMARK    9  A    between atoms: O_21  and  C_22 
ROOT
HETATM    1  C   UNL     1      21.514  49.645  48.176  1.00  0.00     0.098 A 
HETATM    2  C   UNL     1      21.923  48.296  48.659  1.00  0.00     0.201 A 
HETATM    3  O   UNL     1      21.110  47.385  48.796  1.00  0.00    -0.286 OA
HETATM    4  C   UNL     1      23.358  48.072  48.983  1.00  0.00     0.043 A 
HETATM    5  C   UNL     1      24.265  49.135  48.814  1.00  0.00     0.046 A 
HETATM    6  N   UNL     1      23.802  50.381  48.377  1.00  0.00    -0.364 N 
HETATM    7  C   UNL     1      23.788  46.830  49.459  1.00  0.00     0.043 A 
HETATM    8  C   UNL     1      25.128  46.669  49.816  1.00  0.00     0.081 A 
HETATM    9  C   UNL     1      26.042  47.717  49.653  1.00  0.00     0.027 A 
HETATM   10  C   UNL     1      25.607  48.948  49.156  1.00  0.00     0.032 A 
HETATM   11  C   UNL     1      22.482  50.570  48.062  1.00  0.00     0.109 A 
HETATM   12  H   UNL     1      24.469  51.101  48.118  1.00  0.00     0.165 HD
ENDROOT
BRANCH   8  13
HETATM   13  S   UNL     1      25.691  45.104  50.456  1.00  0.00     0.263 S 
HETATM   14  O   UNL     1      24.951  44.059  49.784  1.00  0.00    -0.200 OA
HETATM   15  O   UNL     1      27.139  45.130  50.437  1.00  0.00    -0.200 OA
BRANCH  13  16
HETATM   16  N   UNL     1      25.247  45.177  52.084  1.00  0.00    -0.281 N 
HETATM   17  H   UNL     1      24.582  44.451  52.341  1.00  0.00     0.179 HD
BRANCH  16  18
HETATM   18  C   UNL     1      26.204  45.586  53.051  1.00  0.00     0.042 A 
HETATM   19  C   UNL     1      26.959  44.642  53.742  1.00  0.00     0.033 A 
HETATM   20  C   UNL     1      27.856  45.057  54.727  1.00  0.00     0.039 A 
HETATM   21  C   UNL     1      27.998  46.413  55.038  1.00  0.00     0.068 A 
HETATM   22  C   UNL     1      27.240  47.355  54.342  1.00  0.00     0.039 A 
HETATM   23  C   UNL     1      26.344  46.943  53.347  1.00  0.00     0.033 A 
BRANCH  21  24
HETATM   24  O   UNL     1      28.905  46.676  56.024  1.00  0.00    -0.352 OA
BRANCH  24  25
HETATM   25  C   UNL     1      28.775  45.948  57.244  1.00  0.00     0.171 C 
HETATM   26  C   UNL     1      30.098  46.034  57.982  1.00  0.00     0.034 C 
ENDBRANCH  24  25
ENDBRANCH  21  24
ENDBRANCH  16  18
ENDBRANCH  13  16
ENDBRANCH   8  13
BRANCH   1  27
HETATM   27  C   UNL     1      20.118  50.032  47.821  1.00  0.00     0.257 C 
HETATM   28  N   UNL     1      19.379  50.560  48.847  1.00  0.00    -0.357 N 
HETATM   29  H   UNL     1      19.798  50.598  49.778  1.00  0.00     0.162 HD
HETATM   30  O   UNL     1      19.681  49.888  46.682  1.00  0.00    -0.267 OA
BRANCH  28  31
HETATM   31  C   UNL     1      17.991  50.940  48.699  1.00  0.00     0.123 C 
BRANCH  31  32
HETATM   32  C   UNL     1      17.552  51.978  49.731  1.00  0.00     0.019 C 
BRANCH  32  33
HETATM   33  C   UNL     1      16.179  52.576  49.415  1.00  0.00    -0.003 C 
HETATM   34  C   UNL     1      15.790  53.638  50.430  1.00  0.00     0.005 C 
ENDBRANCH  32  33
ENDBRANCH  31  32
ENDBRANCH  28  31
ENDBRANCH   1  27
TORSDOF 9
ENDMDL
MODEL 7
REMARK VINA RESULT:      -7.6      3.150     10.129
REMARK  9 active torsions:
REMARK  status: ('A' for Active; 'I' for Inactive)
REMARK    1  A    between atoms: C_2  and  C_3 
REMARK    2  A    between atoms: C_3  and  C_4 
REMARK    3  A    between atoms: C_4  and  N_5 
REMARK       I    between atoms: N_5  and  C_6 
REMARK    4  A    between atoms: C_6  and  C_7 
REMARK    5  A    between atoms: C_14  and  S_15 
REMARK    6  A    between atoms: S_15  and  N_16 
REMARK    7  A    between atoms: N_16  and  C_17 
REMARK    8  A    between atoms: C_20  and  O_21 
REMARK    9  A    between atoms: O_21  and  C_22 
ROOT
HETATM    1  C   UNL     1      21.724  46.004  48.236  1.00  0.00     0.098 A 
HETATM    2  C   UNL     1      23.024  45.907  48.959  1.00  0.00     0.201 A 
HETATM    3  O   UNL     1      23.577  46.899  49.429  1.00  0.00    -0.286 OA
HETATM    4  C   UNL     1      23.652  44.565  49.095  1.00  0.00     0.043 A 
HETATM    5  C   UNL     1      22.992  43.449  48.546  1.00  0.00     0.046 A 
HETATM    6  N   UNL     1      21.784  43.622  47.862  1.00  0.00    -0.364 N 
HETATM    7  C   UNL     1      24.881  44.425  49.746  1.00  0.00     0.043 A 
HETATM    8  C   UNL     1      25.477  43.163  49.802  1.00  0.00     0.081 A 
HETATM    9  C   UNL     1      24.833  42.044  49.262  1.00  0.00     0.027 A 
HETATM   10  C   UNL     1      23.594  42.191  48.632  1.00  0.00     0.032 A 
HETATM   11  C   UNL     1      21.205  44.860  47.760  1.00  0.00     0.109 A 
HETATM   12  H   UNL     1      21.239  42.809  47.594  1.00  0.00     0.165 HD
ENDROOT
BRANCH   8  13
HETATM   13  S   UNL     1      27.059  42.967  50.598  1.00  0.00     0.263 S 
HETATM   14  O   UNL     1      27.608  41.695  50.182  1.00  0.00    -0.200 OA
HETATM   15  O   UNL     1      27.791  44.201  50.405  1.00  0.00    -0.200 OA
BRANCH  13  16
HETATM   16  N   UNL     1      26.656  42.920  52.238  1.00  0.00    -0.281 N 
HETATM   17  H   UNL     1      26.024  42.154  52.463  1.00  0.00     0.179 HD
BRANCH  16  18
HETATM   18  C   UNL     1      27.623  43.302  53.206  1.00  0.00     0.042 A 
HETATM   19  C   UNL     1      27.512  44.517  53.874  1.00  0.00     0.033 A 
HETATM   20  C   UNL     1      28.498  44.902  54.784  1.00  0.00     0.039 A 
HETATM   21  C   UNL     1      29.605  44.084  55.024  1.00  0.00     0.068 A 
HETATM   22  C   UNL     1      29.712  42.865  54.352  1.00  0.00     0.039 A 
HETATM   23  C   UNL     1      28.720  42.473  53.446  1.00  0.00     0.033 A 
BRANCH  21  24
HETATM   24  O   UNL     1      30.494  44.585  55.932  1.00  0.00    -0.352 OA
BRANCH  24  25
HETATM   25  C   UNL     1      30.179  45.842  56.529  1.00  0.00     0.171 C 
HETATM   26  C   UNL     1      30.117  45.642  58.032  1.00  0.00     0.034 C 
ENDBRANCH  24  25
ENDBRANCH  21  24
ENDBRANCH  16  18
ENDBRANCH  13  16
ENDBRANCH   8  13
BRANCH   1  27
HETATM   27  C   UNL     1      20.974  47.273  48.006  1.00  0.00     0.257 C 
HETATM   28  N   UNL     1      20.775  48.044  49.121  1.00  0.00    -0.357 N 
HETATM   29  H   UNL     1      21.091  47.683  50.023  1.00  0.00     0.162 HD
HETATM   30  O   UNL     1      20.576  47.591  46.888  1.00  0.00    -0.267 OA
BRANCH  28  31
HETATM   31  C   UNL     1      20.022  49.279  49.097  1.00  0.00     0.123 C 
BRANCH  31  32
HETATM   32  C   UNL     1      20.889  50.490  48.751  1.00  0.00     0.019 C 
BRANCH  32  33
HETATM   33  C   UNL     1      22.316  50.363  49.289  1.00  0.00    -0.003 C 
HETATM   34  C   UNL     1      23.337  50.836  48.267  1.00  0.00     0.005 C 
ENDBRANCH  32  33
ENDBRANCH  31  32
ENDBRANCH  28  31
ENDBRANCH   1  27
TORSDOF 9
ENDMDL
MODEL 8
REMARK VINA RESULT:      -7.6      2.794      3.771
REMARK  9 active torsions:
REMARK  status: ('A' for Active; 'I' for Inactive)
REMARK    1  A    between atoms: C_2  and  C_3 
REMARK    2  A    between atoms: C_3  and  C_4 
REMARK    3  A    between atoms: C_4  and  N_5 
REMARK       I    between atoms: N_5  and  C_6 
REMARK    4  A    between atoms: C_6  and  C_7 
REMARK    5  A    between atoms: C_14  and  S_15 
REMARK    6  A    between atoms: S_15  and  N_16 
REMARK    7  A    between atoms: N_16  and  C_17 
REMARK    8  A    between atoms: C_20  and  O_21 
REMARK    9  A    between atoms: O_21  and  C_22 
ROOT
HETATM    1  C   UNL     1      25.478  44.230  50.245  1.00  0.00     0.098 A 
HETATM    2  C   UNL     1      24.465  45.286  49.961  1.00  0.00     0.201 A 
HETATM    3  O   UNL     1      23.260  45.045  49.975  1.00  0.00    -0.286 OA
HETATM    4  C   UNL     1      24.951  46.658  49.650  1.00  0.00     0.043 A 
HETATM    5  C   UNL     1      26.337  46.901  49.644  1.00  0.00     0.046 A 
HETATM    6  N   UNL     1      27.228  45.853  49.899  1.00  0.00    -0.364 N 
HETATM    7  C   UNL     1      24.041  47.677  49.357  1.00  0.00     0.043 A 
HETATM    8  C   UNL     1      24.527  48.938  49.004  1.00  0.00     0.081 A 
HETATM    9  C   UNL     1      25.903  49.196  48.995  1.00  0.00     0.027 A 
HETATM   10  C   UNL     1      26.804  48.176  49.311  1.00  0.00     0.032 A 
HETATM   11  C   UNL     1      26.770  44.599  50.204  1.00  0.00     0.109 A 
HETATM   12  H   UNL     1      28.214  46.056  50.036  1.00  0.00     0.165 HD
ENDROOT
BRANCH   8  13
HETATM   13  S   UNL     1      23.386  50.244  48.594  1.00  0.00     0.263 S 
HETATM   14  O   UNL     1      23.320  51.144  49.725  1.00  0.00    -0.200 OA
HETATM   15  O   UNL     1      23.739  50.722  47.274  1.00  0.00    -0.200 OA
BRANCH  13  16
HETATM   16  N   UNL     1      21.920  49.425  48.414  1.00  0.00    -0.281 N 
HETATM   17  H   UNL     1      22.019  48.418  48.520  1.00  0.00     0.179 HD
BRANCH  16  18
HETATM   18  C   UNL     1      20.719  50.034  48.867  1.00  0.00     0.042 A 
HETATM   19  C   UNL     1      20.354  51.299  48.414  1.00  0.00     0.033 A 
HETATM   20  C   UNL     1      19.199  51.906  48.909  1.00  0.00     0.039 A 
HETATM   21  C   UNL     1      18.408  51.262  49.865  1.00  0.00     0.068 A 
HETATM   22  C   UNL     1      18.778  49.994  50.315  1.00  0.00     0.039 A 
HETATM   23  C   UNL     1      19.932  49.379  49.815  1.00  0.00     0.033 A 
BRANCH  21  24
HETATM   24  O   UNL     1      17.312  51.973  50.265  1.00  0.00    -0.352 OA
BRANCH  24  25
HETATM   25  C   UNL     1      16.303  52.223  49.288  1.00  0.00     0.171 C 
HETATM   26  C   UNL     1      15.088  52.783  50.005  1.00  0.00     0.034 C 
ENDBRANCH  24  25
ENDBRANCH  21  24
ENDBRANCH  16  18
ENDBRANCH  13  16
ENDBRANCH   8  13
BRANCH   1  27
HETATM   27  C   UNL     1      25.157  42.809  50.563  1.00  0.00     0.257 C 
HETATM   28  N   UNL     1      26.104  41.896  50.180  1.00  0.00    -0.357 N 
HETATM   29  H   UNL     1      26.918  42.230  49.662  1.00  0.00     0.162 HD
HETATM   30  O   UNL     1      24.115  42.498  51.135  1.00  0.00    -0.267 OA
BRANCH  28  31
HETATM   31  C   UNL     1      25.936  40.470  50.359  1.00  0.00     0.123 C 
BRANCH  31  32
HETATM   32  C   UNL     1      26.441  39.664  49.162  1.00  0.00     0.019 C 
BRANCH  32  33
HETATM   33  C   UNL     1      27.416  38.557  49.570  1.00  0.00    -0.003 C 
HETATM   34  C   UNL     1      26.773  37.184  49.460  1.00  0.00     0.005 C 
ENDBRANCH  32  33
ENDBRANCH  31  32
ENDBRANCH  28  31
ENDBRANCH   1  27
TORSDOF 9
ENDMDL
MODEL 9
REMARK VINA RESULT:      -7.5      2.776      9.652
REMARK  9 active torsions:
REMARK  status: ('A' for Active; 'I' for Inactive)
REMARK    1  A    between atoms: C_2  and  C_3 
REMARK    2  A    between atoms: C_3  and  C_4 
REMARK    3  A    between atoms: C_4  and  N_5 
REMARK       I    between atoms: N_5  and  C_6 
REMARK    4  A    between atoms: C_6  and  C_7 
REMARK    5  A    between atoms: C_14  and  S_15 
REMARK    6  A    between atoms: S_15  and  N_16 
REMARK    7  A    between atoms: N_16  and  C_17 
REMARK    8  A    between atoms: C_20  and  O_21 
REMARK    9  A    between atoms: O_21  and  C_22 
ROOT
HETATM    1  C   UNL     1      24.247  49.069  48.844  1.00  0.00     0.098 A 
HETATM    2  C   UNL     1      23.826  47.688  49.215  1.00  0.00     0.201 A 
HETATM    3  O   UNL     1      22.641  47.368  49.273  1.00  0.00    -0.286 OA
HETATM    4  C   UNL     1      24.886  46.691  49.523  1.00  0.00     0.043 A 
HETATM    5  C   UNL     1      26.234  47.088  49.446  1.00  0.00     0.046 A 
HETATM    6  N   UNL     1      26.551  48.409  49.112  1.00  0.00    -0.364 N 
HETATM    7  C   UNL     1      24.541  45.388  49.896  1.00  0.00     0.043 A 
HETATM    8  C   UNL     1      25.555  44.493  50.242  1.00  0.00     0.081 A 
HETATM    9  C   UNL     1      26.901  44.873  50.169  1.00  0.00     0.027 A 
HETATM   10  C   UNL     1      27.235  46.171  49.775  1.00  0.00     0.032 A 
HETATM   11  C   UNL     1      25.568  49.314  48.810  1.00  0.00     0.109 A 
HETATM   12  H   UNL     1      27.516  48.659  48.916  1.00  0.00     0.165 HD
ENDROOT
BRANCH   8  13
HETATM   13  S   UNL     1      25.137  42.837  50.752  1.00  0.00     0.263 S 
HETATM   14  O   UNL     1      23.805  42.871  51.314  1.00  0.00    -0.200 OA
HETATM   15  O   UNL     1      25.465  41.955  49.652  1.00  0.00    -0.200 OA
BRANCH  13  16
HETATM   16  N   UNL     1      26.272  42.513  51.960  1.00  0.00    -0.281 N 
HETATM   17  H   UNL     1      27.004  41.879  51.649  1.00  0.00     0.179 HD
BRANCH  16  18
HETATM   18  C   UNL     1      26.615  43.533  52.888  1.00  0.00     0.042 A 
HETATM   19  C   UNL     1      27.949  43.796  53.188  1.00  0.00     0.033 A 
HETATM   20  C   UNL     1      28.268  44.764  54.141  1.00  0.00     0.039 A 
HETATM   21  C   UNL     1      27.261  45.467  54.809  1.00  0.00     0.068 A 
HETATM   22  C   UNL     1      25.925  45.201  54.504  1.00  0.00     0.039 A 
HETATM   23  C   UNL     1      25.602  44.236  53.542  1.00  0.00     0.033 A 
BRANCH  21  24
HETATM   24  O   UNL     1      27.714  46.379  55.718  1.00  0.00    -0.352 OA
BRANCH  24  25
HETATM   25  C   UNL     1      29.013  46.164  56.268  1.00  0.00     0.171 C 
HETATM   26  C   UNL     1      28.876  46.102  57.778  1.00  0.00     0.034 C 
ENDBRANCH  24  25
ENDBRANCH  21  24
ENDBRANCH  16  18
ENDBRANCH  13  16
ENDBRANCH   8  13
BRANCH   1  27
HETATM   27  C   UNL     1      23.311  50.183  48.518  1.00  0.00     0.257 C 
HETATM   28  N   UNL     1      22.266  50.343  49.390  1.00  0.00    -0.357 N 
HETATM   29  H   UNL     1      22.164  49.671  50.153  1.00  0.00     0.162 HD
HETATM   30  O   UNL     1      23.482  50.901  47.536  1.00  0.00    -0.267 OA
BRANCH  28  31
HETATM   31  C   UNL     1      21.231  51.336  49.202  1.00  0.00     0.123 C 
BRANCH  31  32
HETATM   32  C   UNL     1      19.825  50.754  49.342  1.00  0.00     0.019 C 
BRANCH  32  33
HETATM   33  C   UNL     1      19.488  49.760  48.229  1.00  0.00    -0.003 C 
HETATM   34  C   UNL     1      19.612  50.401  46.857  1.00  0.00     0.005 C 
ENDBRANCH  32  33
ENDBRANCH  31  32
ENDBRANCH  28  31
ENDBRANCH   1  27
TORSDOF 9
ENDMDL
MODEL 10
REMARK VINA RESULT:      -7.4     20.926     22.477
REMARK  9 active torsions:
REMARK  status: ('A' for Active; 'I' for Inactive)
REMARK    1  A    between atoms: C_2  and  C_3 
REMARK    2  A    between atoms: C_3  and  C_4 
REMARK    3  A    between atoms: C_4  and  N_5 
REMARK       I    between atoms: N_5  and  C_6 
REMARK    4  A    between atoms: C_6  and  C_7 
REMARK    5  A    between atoms: C_14  and  S_15 
REMARK    6  A    between atoms: S_15  and  N_16 
REMARK    7  A    between atoms: N_16  and  C_17 
REMARK    8  A    between atoms: C_20  and  O_21 
REMARK    9  A    between atoms: O_21  and  C_22 
ROOT
HETATM    1  C   UNL     1      40.532  39.310  64.266  1.00  0.00     0.098 A 
HETATM    2  C   UNL     1      40.834  40.650  64.845  1.00  0.00     0.201 A 
HETATM    3  O   UNL     1      41.504  40.775  65.868  1.00  0.00    -0.286 OA
HETATM    4  C   UNL     1      40.293  41.851  64.153  1.00  0.00     0.043 A 
HETATM    5  C   UNL     1      39.530  41.674  62.984  1.00  0.00     0.046 A 
HETATM    6  N   UNL     1      39.271  40.383  62.512  1.00  0.00    -0.364 N 
HETATM    7  C   UNL     1      40.531  43.128  64.670  1.00  0.00     0.043 A 
HETATM    8  C   UNL     1      39.957  44.232  64.036  1.00  0.00     0.081 A 
HETATM    9  C   UNL     1      39.197  44.072  62.871  1.00  0.00     0.027 A 
HETATM   10  C   UNL     1      38.983  42.793  62.351  1.00  0.00     0.032 A 
HETATM   11  C   UNL     1      39.790  39.284  63.145  1.00  0.00     0.109 A 
HETATM   12  H   UNL     1      38.847  40.259  61.598  1.00  0.00     0.165 HD
ENDROOT
BRANCH   8  13
HETATM   13  S   UNL     1      40.220  45.866  64.695  1.00  0.00     0.263 S 
HETATM   14  O   UNL     1      40.329  45.751  66.133  1.00  0.00    -0.200 OA
HETATM   15  O   UNL     1      41.269  46.481  63.909  1.00  0.00    -0.200 OA
BRANCH  13  16
HETATM   16  N   UNL     1      38.797  46.676  64.282  1.00  0.00    -0.281 N 
HETATM   17  H   UNL     1      38.066  46.044  63.960  1.00  0.00     0.179 HD
BRANCH  16  18
HETATM   18  C   UNL     1      38.412  47.832  65.014  1.00  0.00     0.042 A 
HETATM   19  C   UNL     1      39.117  49.024  64.875  1.00  0.00     0.033 A 
HETATM   20  C   UNL     1      38.760  50.135  65.640  1.00  0.00     0.039 A 
HETATM   21  C   UNL     1      37.707  50.061  66.557  1.00  0.00     0.068 A 
HETATM   22  C   UNL     1      37.003  48.864  66.692  1.00  0.00     0.039 A 
HETATM   23  C   UNL     1      37.353  47.750  65.919  1.00  0.00     0.033 A 
BRANCH  21  24
HETATM   24  O   UNL     1      37.470  51.218  67.242  1.00  0.00    -0.352 OA
BRANCH  24  25
HETATM   25  C   UNL     1      37.836  52.441  66.605  1.00  0.00     0.171 C 
HETATM   26  C   UNL     1      37.503  53.579  67.553  1.00  0.00     0.034 C 
ENDBRANCH  24  25
ENDBRANCH  21  24
ENDBRANCH  16  18
ENDBRANCH  13  16
ENDBRANCH   8  13
BRANCH   1  27
HETATM   27  C   UNL     1      40.990  38.013  64.843  1.00  0.00     0.257 C 
HETATM   28  N   UNL     1      40.558  37.756  66.118  1.00  0.00    -0.357 N 
HETATM   29  H   UNL     1      40.016  38.475  66.601  1.00  0.00     0.162 HD
HETATM   30  O   UNL     1      41.697  37.238  64.204  1.00  0.00    -0.267 OA
BRANCH  28  31
HETATM   31  C   UNL     1      40.947  36.574  66.855  1.00  0.00     0.123 C 
BRANCH  31  32
HETATM   32  C   UNL     1      39.768  35.643  67.140  1.00  0.00     0.019 C 
BRANCH  32  33
HETATM   33  C   UNL     1      39.621  34.544  66.086  1.00  0.00    -0.003 C 
HETATM   34  C   UNL     1      40.778  33.560  66.146  1.00  0.00     0.005 C 
ENDBRANCH  32  33
ENDBRANCH  31  32
ENDBRANCH  28  31
ENDBRANCH   1  27
TORSDOF 9
ENDMDL
