MODEL 1
REMARK VINA RESULT:      -9.3      0.000      0.000
REMARK  6 active torsions:
REMARK  status: ('A' for Active; 'I' for Inactive)
REMARK    1  A    between atoms: C_2  and  C_3 
REMARK    2  A    between atoms: C_3  and  C_4 
REMARK    3  A    between atoms: C_3  and  C_10 
REMARK    4  A    between atoms: C_10  and  C_11 
REMARK       I    between atoms: C_11  and  N_12 
REMARK    5  A    between atoms: N_12  and  C_13 
REMARK    6  A    between atoms: C_20  and  C_21 
REMARK       I    between atoms: C_21  and  N_22 
ROOT
HETATM    1  C   UNL     1      25.840  47.419  50.601  1.00  0.00     0.035 A 
HETATM    2  C   UNL     1      24.568  47.701  50.086  1.00  0.00     0.046 A 
HETATM    3  C   UNL     1      24.428  48.664  49.061  1.00  0.00     0.030 A 
HETATM    4  C   UNL     1      25.563  49.319  48.597  1.00  0.00     0.063 A 
HETATM    5  N   UNL     1      25.116  50.181  47.634  1.00  0.00    -0.277 N 
HETATM    6  H   UNL     1      25.671  50.825  47.083  1.00  0.00     0.189 HD
HETATM    7  N   UNL     1      23.793  50.135  47.416  1.00  0.00    -0.168 NA
HETATM    8  C   UNL     1      23.352  49.199  48.289  1.00  0.00     0.156 A 
HETATM    9  C   UNL     1      26.843  49.067  49.089  1.00  0.00     0.034 A 
HETATM   10  C   UNL     1      26.957  48.099  50.094  1.00  0.00     0.032 A 
ENDROOT
BRANCH   1  11
HETATM   11  N   UNL     1      26.090  46.468  51.614  1.00  0.00    -0.327 N 
HETATM   12  C   UNL     1      25.999  46.646  52.984  1.00  0.00     0.223 C 
HETATM   13  O   UNL     1      25.652  47.672  53.559  1.00  0.00    -0.273 OA
HETATM   14  H   UNL     1      26.408  45.566  51.289  1.00  0.00     0.169 HD
BRANCH  12  15
HETATM   15  C   UNL     1      26.295  45.390  53.793  1.00  0.00     0.116 C 
BRANCH  15  16
HETATM   16  C   UNL     1      27.501  44.561  53.309  1.00  0.00     0.049 C 
BRANCH  16  17
HETATM   17  C   UNL     1      27.019  43.194  52.840  1.00  0.00    -0.027 C 
HETATM   18  C   UNL     1      26.658  42.821  51.604  1.00  0.00     0.007 C 
ENDBRANCH  16  17
BRANCH  16  19
HETATM   19  C   UNL     1      28.654  44.523  54.302  1.00  0.00    -0.050 A 
HETATM   20  C   UNL     1      28.891  45.572  55.204  1.00  0.00     0.008 A 
HETATM   21  C   UNL     1      29.959  45.511  56.102  1.00  0.00     0.001 A 
HETATM   22  C   UNL     1      30.802  44.402  56.113  1.00  0.00     0.000 A 
HETATM   23  C   UNL     1      30.576  43.350  55.231  1.00  0.00     0.001 A 
HETATM   24  C   UNL     1      29.507  43.408  54.334  1.00  0.00     0.008 A 
ENDBRANCH  16  19
ENDBRANCH  15  16
ENDBRANCH  12  15
ENDBRANCH   1  11
BRANCH   8  25
HETATM   25  C   UNL     1      21.929  48.837  48.357  1.00  0.00     0.270 C 
HETATM   26  N   UNL     1      21.310  49.228  49.514  1.00  0.00    -0.365 N 
HETATM   27  H   UNL     1      21.852  49.728  50.208  1.00  0.00     0.159 HD
HETATM   28  H   UNL     1      20.330  49.037  49.643  1.00  0.00     0.159 HD
HETATM   29  O   UNL     1      21.313  48.247  47.477  1.00  0.00    -0.266 OA
ENDBRANCH   8  25
TORSDOF 6
ENDMDL
MODEL 2
REMARK VINA RESULT:      -8.7      5.350      7.931
REMARK  6 active torsions:
REMARK  status: ('A' for Active; 'I' for Inactive)
REMARK    1  A    between atoms: C_2  and  C_3 
REMARK    2  A    between atoms: C_3  and  C_4 
REMARK    3  A    between atoms: C_3  and  C_10 
REMARK    4  A    between atoms: C_10  and  C_11 
REMARK       I    between atoms: C_11  and  N_12 
REMARK    5  A    between atoms: N_12  and  C_13 
REMARK    6  A    between atoms: C_20  and  C_21 
REMARK       I    between atoms: C_21  and  N_22 
ROOT
HETATM    1  C   UNL     1      27.674  41.932  51.224  1.00  0.00     0.035 A 
HETATM    2  C   UNL     1      28.387  40.742  51.025  1.00  0.00     0.046 A 
HETATM    3  C   UNL     1      27.786  39.679  50.315  1.00  0.00     0.030 A 
HETATM    4  C   UNL     1      26.489  39.837  49.841  1.00  0.00     0.063 A 
HETATM    5  N   UNL     1      26.183  38.659  49.218  1.00  0.00    -0.277 N 
HETATM    6  H   UNL     1      25.314  38.417  48.758  1.00  0.00     0.189 HD
HETATM    7  N   UNL     1      27.171  37.751  49.229  1.00  0.00    -0.168 NA
HETATM    8  C   UNL     1      28.171  38.366  49.902  1.00  0.00     0.156 A 
HETATM    9  C   UNL     1      25.749  41.005  50.022  1.00  0.00     0.034 A 
HETATM   10  C   UNL     1      26.372  42.049  50.717  1.00  0.00     0.032 A 
ENDROOT
BRANCH   1  11
HETATM   11  N   UNL     1      28.187  43.057  51.906  1.00  0.00    -0.327 N 
HETATM   12  C   UNL     1      27.888  43.476  53.191  1.00  0.00     0.223 C 
HETATM   13  O   UNL     1      27.134  42.915  53.979  1.00  0.00    -0.273 OA
HETATM   14  H   UNL     1      28.815  43.636  51.369  1.00  0.00     0.169 HD
BRANCH  12  15
HETATM   15  C   UNL     1      28.659  44.713  53.634  1.00  0.00     0.116 C 
BRANCH  15  16
HETATM   16  C   UNL     1      28.405  45.165  55.085  1.00  0.00     0.049 C 
BRANCH  16  17
HETATM   17  C   UNL     1      27.994  46.631  55.094  1.00  0.00    -0.027 C 
HETATM   18  C   UNL     1      26.945  47.202  54.484  1.00  0.00     0.007 C 
ENDBRANCH  16  17
BRANCH  16  19
HETATM   19  C   UNL     1      29.539  44.816  56.040  1.00  0.00    -0.050 A 
HETATM   20  C   UNL     1      29.748  45.523  57.235  1.00  0.00     0.008 A 
HETATM   21  C   UNL     1      30.797  45.182  58.090  1.00  0.00     0.001 A 
HETATM   22  C   UNL     1      31.650  44.129  57.767  1.00  0.00     0.000 A 
HETATM   23  C   UNL     1      31.451  43.412  56.591  1.00  0.00     0.001 A 
HETATM   24  C   UNL     1      30.400  43.749  55.735  1.00  0.00     0.008 A 
ENDBRANCH  16  19
ENDBRANCH  15  16
ENDBRANCH  12  15
ENDBRANCH   1  11
BRANCH   8  25
HETATM   25  C   UNL     1      29.460  37.696  50.124  1.00  0.00     0.270 C 
HETATM   26  N   UNL     1      29.400  36.653  51.010  1.00  0.00    -0.365 N 
HETATM   27  H   UNL     1      28.506  36.422  51.426  1.00  0.00     0.159 HD
HETATM   28  H   UNL     1      30.233  36.124  51.213  1.00  0.00     0.159 HD
HETATM   29  O   UNL     1      30.514  38.004  49.580  1.00  0.00    -0.266 OA
ENDBRANCH   8  25
TORSDOF 6
ENDMDL
MODEL 3
REMARK VINA RESULT:      -8.7      2.016      2.877
REMARK  6 active torsions:
REMARK  status: ('A' for Active; 'I' for Inactive)
REMARK    1  A    between atoms: C_2  and  C_3 
REMARK    2  A    between atoms: C_3  and  C_4 
REMARK    3  A    between atoms: C_3  and  C_10 
REMARK    4  A    between atoms: C_10  and  C_11 
REMARK       I    between atoms: C_11  and  N_12 
REMARK    5  A    between atoms: N_12  and  C_13 
REMARK    6  A    between atoms: C_20  and  C_21 
REMARK       I    between atoms: C_21  and  N_22 
ROOT
HETATM    1  C   UNL     1      24.725  46.174  50.155  1.00  0.00     0.035 A 
HETATM    2  C   UNL     1      24.213  47.478  50.140  1.00  0.00     0.046 A 
HETATM    3  C   UNL     1      23.140  47.797  49.277  1.00  0.00     0.030 A 
HETATM    4  C   UNL     1      22.626  46.804  48.452  1.00  0.00     0.063 A 
HETATM    5  N   UNL     1      21.625  47.405  47.740  1.00  0.00    -0.277 N 
HETATM    6  H   UNL     1      21.033  46.980  47.037  1.00  0.00     0.189 HD
HETATM    7  N   UNL     1      21.429  48.698  48.040  1.00  0.00    -0.168 NA
HETATM    8  C   UNL     1      22.356  48.956  48.990  1.00  0.00     0.156 A 
HETATM    9  C   UNL     1      23.112  45.497  48.438  1.00  0.00     0.034 A 
HETATM   10  C   UNL     1      24.166  45.203  49.311  1.00  0.00     0.032 A 
ENDROOT
BRANCH   1  11
HETATM   11  N   UNL     1      25.784  45.750  50.987  1.00  0.00    -0.327 N 
HETATM   12  C   UNL     1      25.696  45.044  52.174  1.00  0.00     0.223 C 
HETATM   13  O   UNL     1      24.665  44.634  52.699  1.00  0.00    -0.273 OA
HETATM   14  H   UNL     1      26.706  46.035  50.690  1.00  0.00     0.169 HD
BRANCH  12  15
HETATM   15  C   UNL     1      27.045  44.709  52.797  1.00  0.00     0.116 C 
BRANCH  15  16
HETATM   16  C   UNL     1      27.315  45.348  54.173  1.00  0.00     0.049 C 
BRANCH  16  17
HETATM   17  C   UNL     1      27.160  46.859  54.068  1.00  0.00    -0.027 C 
HETATM   18  C   UNL     1      26.244  47.642  54.656  1.00  0.00     0.007 C 
ENDBRANCH  16  17
BRANCH  16  19
HETATM   19  C   UNL     1      28.615  44.884  54.817  1.00  0.00    -0.050 A 
HETATM   20  C   UNL     1      29.217  43.663  54.477  1.00  0.00     0.008 A 
HETATM   21  C   UNL     1      30.408  43.262  55.086  1.00  0.00     0.001 A 
HETATM   22  C   UNL     1      31.015  44.077  56.040  1.00  0.00     0.000 A 
HETATM   23  C   UNL     1      30.436  45.295  56.381  1.00  0.00     0.001 A 
HETATM   24  C   UNL     1      29.246  45.699  55.771  1.00  0.00     0.008 A 
ENDBRANCH  16  19
ENDBRANCH  15  16
ENDBRANCH  12  15
ENDBRANCH   1  11
BRANCH   8  25
HETATM   25  C   UNL     1      22.464  50.288  49.602  1.00  0.00     0.270 C 
HETATM   26  N   UNL     1      21.384  50.639  50.368  1.00  0.00    -0.365 N 
HETATM   27  H   UNL     1      20.623  49.977  50.463  1.00  0.00     0.159 HD
HETATM   28  H   UNL     1      21.377  51.528  50.840  1.00  0.00     0.159 HD
HETATM   29  O   UNL     1      23.420  51.045  49.471  1.00  0.00    -0.266 OA
ENDBRANCH   8  25
TORSDOF 6
ENDMDL
MODEL 4
REMARK VINA RESULT:      -8.7      2.219      2.692
REMARK  6 active torsions:
REMARK  status: ('A' for Active; 'I' for Inactive)
REMARK    1  A    between atoms: C_2  and  C_3 
REMARK    2  A    between atoms: C_3  and  C_4 
REMARK    3  A    between atoms: C_3  and  C_10 
REMARK    4  A    between atoms: C_10  and  C_11 
REMARK       I    between atoms: C_11  and  N_12 
REMARK    5  A    between atoms: N_12  and  C_13 
REMARK    6  A    between atoms: C_20  and  C_21 
REMARK       I    between atoms: C_21  and  N_22 
ROOT
HETATM    1  C   UNL     1      25.842  45.477  51.310  1.00  0.00     0.035 A 
HETATM    2  C   UNL     1      24.628  45.069  50.741  1.00  0.00     0.046 A 
HETATM    3  C   UNL     1      23.929  45.949  49.885  1.00  0.00     0.030 A 
HETATM    4  C   UNL     1      24.461  47.209  49.637  1.00  0.00     0.063 A 
HETATM    5  N   UNL     1      23.571  47.820  48.798  1.00  0.00    -0.277 N 
HETATM    6  H   UNL     1      23.635  48.756  48.414  1.00  0.00     0.189 HD
HETATM    7  N   UNL     1      22.514  47.066  48.463  1.00  0.00    -0.168 NA
HETATM    8  C   UNL     1      22.720  45.904  49.124  1.00  0.00     0.156 A 
HETATM    9  C   UNL     1      25.664  47.649  50.188  1.00  0.00     0.034 A 
HETATM   10  C   UNL     1      26.345  46.755  51.021  1.00  0.00     0.032 A 
ENDROOT
BRANCH   1  11
HETATM   11  N   UNL     1      26.625  44.672  52.166  1.00  0.00    -0.327 N 
HETATM   12  C   UNL     1      26.843  44.841  53.522  1.00  0.00     0.223 C 
HETATM   13  O   UNL     1      26.360  45.720  54.228  1.00  0.00    -0.273 OA
HETATM   14  H   UNL     1      27.108  43.908  51.715  1.00  0.00     0.169 HD
BRANCH  12  15
HETATM   15  C   UNL     1      27.708  43.757  54.150  1.00  0.00     0.116 C 
BRANCH  15  16
HETATM   16  C   UNL     1      29.229  43.985  54.051  1.00  0.00     0.049 C 
BRANCH  16  17
HETATM   17  C   UNL     1      29.854  42.874  53.218  1.00  0.00    -0.027 C 
HETATM   18  C   UNL     1      29.237  41.876  52.570  1.00  0.00     0.007 C 
ENDBRANCH  16  17
BRANCH  16  19
HETATM   19  C   UNL     1      29.899  44.225  55.397  1.00  0.00    -0.050 A 
HETATM   20  C   UNL     1      29.619  45.361  56.174  1.00  0.00     0.008 A 
HETATM   21  C   UNL     1      30.251  45.556  57.404  1.00  0.00     0.001 A 
HETATM   22  C   UNL     1      31.168  44.620  57.876  1.00  0.00     0.000 A 
HETATM   23  C   UNL     1      31.450  43.485  57.123  1.00  0.00     0.001 A 
HETATM   24  C   UNL     1      30.817  43.286  55.894  1.00  0.00     0.008 A 
ENDBRANCH  16  19
ENDBRANCH  15  16
ENDBRANCH  12  15
ENDBRANCH   1  11
BRANCH   8  25
HETATM   25  C   UNL     1      21.772  44.787  49.008  1.00  0.00     0.270 C 
HETATM   26  N   UNL     1      20.513  45.075  49.462  1.00  0.00    -0.365 N 
HETATM   27  H   UNL     1      20.329  46.004  49.822  1.00  0.00     0.159 HD
HETATM   28  H   UNL     1      19.791  44.374  49.407  1.00  0.00     0.159 HD
HETATM   29  O   UNL     1      22.041  43.684  48.545  1.00  0.00    -0.266 OA
ENDBRANCH   8  25
TORSDOF 6
ENDMDL
MODEL 5
REMARK VINA RESULT:      -8.6      1.748      2.672
REMARK  6 active torsions:
REMARK  status: ('A' for Active; 'I' for Inactive)
REMARK    1  A    between atoms: C_2  and  C_3 
REMARK    2  A    between atoms: C_3  and  C_4 
REMARK    3  A    between atoms: C_3  and  C_10 
REMARK    4  A    between atoms: C_10  and  C_11 
REMARK       I    between atoms: C_11  and  N_12 
REMARK    5  A    between atoms: N_12  and  C_13 
REMARK    6  A    between atoms: C_20  and  C_21 
REMARK       I    between atoms: C_21  and  N_22 
ROOT
HETATM    1  C   UNL     1      25.712  46.570  51.442  1.00  0.00     0.035 A 
HETATM    2  C   UNL     1      25.420  47.656  50.606  1.00  0.00     0.046 A 
HETATM    3  C   UNL     1      24.385  47.541  49.650  1.00  0.00     0.030 A 
HETATM    4  C   UNL     1      23.689  46.342  49.555  1.00  0.00     0.063 A 
HETATM    5  N   UNL     1      22.777  46.529  48.554  1.00  0.00    -0.277 N 
HETATM    6  H   UNL     1      22.101  45.858  48.208  1.00  0.00     0.189 HD
HETATM    7  N   UNL     1      22.804  47.749  47.998  1.00  0.00    -0.168 NA
HETATM    8  C   UNL     1      23.792  48.389  48.665  1.00  0.00     0.156 A 
HETATM    9  C   UNL     1      23.955  45.241  50.368  1.00  0.00     0.034 A 
HETATM   10  C   UNL     1      24.975  45.384  51.316  1.00  0.00     0.032 A 
ENDROOT
BRANCH   1  11
HETATM   11  N   UNL     1      26.714  46.586  52.437  1.00  0.00    -0.327 N 
HETATM   12  C   UNL     1      26.578  46.937  53.769  1.00  0.00     0.223 C 
HETATM   13  O   UNL     1      25.539  47.271  54.327  1.00  0.00    -0.273 OA
HETATM   14  H   UNL     1      27.642  46.349  52.117  1.00  0.00     0.169 HD
BRANCH  12  15
HETATM   15  C   UNL     1      27.860  46.798  54.580  1.00  0.00     0.116 C 
BRANCH  15  16
HETATM   16  C   UNL     1      28.415  45.365  54.698  1.00  0.00     0.049 C 
BRANCH  16  17
HETATM   17  C   UNL     1      27.261  44.371  54.657  1.00  0.00    -0.027 C 
HETATM   18  C   UNL     1      27.117  43.301  53.864  1.00  0.00     0.007 C 
ENDBRANCH  16  17
BRANCH  16  19
HETATM   19  C   UNL     1      29.376  45.177  55.864  1.00  0.00    -0.050 A 
HETATM   20  C   UNL     1      30.390  44.206  55.841  1.00  0.00     0.008 A 
HETATM   21  C   UNL     1      31.256  44.055  56.926  1.00  0.00     0.001 A 
HETATM   22  C   UNL     1      31.124  44.873  58.046  1.00  0.00     0.000 A 
HETATM   23  C   UNL     1      30.131  45.847  58.080  1.00  0.00     0.001 A 
HETATM   24  C   UNL     1      29.265  46.001  56.996  1.00  0.00     0.008 A 
ENDBRANCH  16  19
ENDBRANCH  15  16
ENDBRANCH  12  15
ENDBRANCH   1  11
BRANCH   8  25
HETATM   25  C   UNL     1      24.135  49.784  48.356  1.00  0.00     0.270 C 
HETATM   26  N   UNL     1      23.427  50.706  49.079  1.00  0.00    -0.365 N 
HETATM   27  H   UNL     1      22.750  50.374  49.756  1.00  0.00     0.159 HD
HETATM   28  H   UNL     1      23.606  51.688  48.945  1.00  0.00     0.159 HD
HETATM   29  O   UNL     1      24.979  50.134  47.538  1.00  0.00    -0.266 OA
ENDBRANCH   8  25
TORSDOF 6
ENDMDL
MODEL 6
REMARK VINA RESULT:      -8.6      2.134      2.912
REMARK  6 active torsions:
REMARK  status: ('A' for Active; 'I' for Inactive)
REMARK    1  A    between atoms: C_2  and  C_3 
REMARK    2  A    between atoms: C_3  and  C_4 
REMARK    3  A    between atoms: C_3  and  C_10 
REMARK    4  A    between atoms: C_10  and  C_11 
REMARK       I    between atoms: C_11  and  N_12 
REMARK    5  A    between atoms: N_12  and  C_13 
REMARK    6  A    between atoms: C_20  and  C_21 
REMARK       I    between atoms: C_21  and  N_22 
ROOT
HETATM    1  C   UNL     1      24.698  45.226  51.064  1.00  0.00     0.035 A 
HETATM    2  C   UNL     1      24.706  46.544  50.589  1.00  0.00     0.046 A 
HETATM    3  C   UNL     1      23.869  46.900  49.507  1.00  0.00     0.030 A 
HETATM    4  C   UNL     1      23.065  45.925  48.931  1.00  0.00     0.063 A 
HETATM    5  N   UNL     1      22.392  46.557  47.923  1.00  0.00    -0.277 N 
HETATM    6  H   UNL     1      21.719  46.148  47.285  1.00  0.00     0.189 HD
HETATM    7  N   UNL     1      22.674  47.863  47.799  1.00  0.00    -0.168 NA
HETATM    8  C   UNL     1      23.584  48.093  48.773  1.00  0.00     0.156 A 
HETATM    9  C   UNL     1      23.033  44.603  49.376  1.00  0.00     0.034 A 
HETATM   10  C   UNL     1      23.861  44.278  50.457  1.00  0.00     0.032 A 
ENDROOT
BRANCH   1  11
HETATM   11  N   UNL     1      25.484  44.770  52.145  1.00  0.00    -0.327 N 
HETATM   12  C   UNL     1      26.812  44.383  52.122  1.00  0.00     0.223 C 
HETATM   13  O   UNL     1      27.554  44.399  51.145  1.00  0.00    -0.273 OA
HETATM   14  H   UNL     1      24.996  44.685  53.025  1.00  0.00     0.169 HD
BRANCH  12  15
HETATM   15  C   UNL     1      27.366  43.987  53.484  1.00  0.00     0.116 C 
BRANCH  15  16
HETATM   16  C   UNL     1      28.869  43.651  53.514  1.00  0.00     0.049 C 
BRANCH  16  17
HETATM   17  C   UNL     1      29.070  42.193  53.120  1.00  0.00    -0.027 C 
HETATM   18  C   UNL     1      28.268  41.149  53.370  1.00  0.00     0.007 C 
ENDBRANCH  16  17
BRANCH  16  19
HETATM   19  C   UNL     1      29.562  44.063  54.806  1.00  0.00    -0.050 A 
HETATM   20  C   UNL     1      29.200  45.226  55.504  1.00  0.00     0.008 A 
HETATM   21  C   UNL     1      29.854  45.581  56.685  1.00  0.00     0.001 A 
HETATM   22  C   UNL     1      30.876  44.777  57.188  1.00  0.00     0.000 A 
HETATM   23  C   UNL     1      31.240  43.616  56.513  1.00  0.00     0.001 A 
HETATM   24  C   UNL     1      30.585  43.258  55.333  1.00  0.00     0.008 A 
ENDBRANCH  16  19
ENDBRANCH  15  16
ENDBRANCH  12  15
ENDBRANCH   1  11
BRANCH   8  25
HETATM   25  C   UNL     1      24.147  49.434  48.983  1.00  0.00     0.270 C 
HETATM   26  N   UNL     1      25.424  49.583  48.511  1.00  0.00    -0.365 N 
HETATM   27  H   UNL     1      25.868  48.792  48.059  1.00  0.00     0.159 HD
HETATM   28  H   UNL     1      25.885  50.474  48.596  1.00  0.00     0.159 HD
HETATM   29  O   UNL     1      23.558  50.366  49.520  1.00  0.00    -0.266 OA
ENDBRANCH   8  25
TORSDOF 6
ENDMDL
MODEL 7
REMARK VINA RESULT:      -8.2      3.571      4.628
REMARK  6 active torsions:
REMARK  status: ('A' for Active; 'I' for Inactive)
REMARK    1  A    between atoms: C_2  and  C_3 
REMARK    2  A    between atoms: C_3  and  C_4 
REMARK    3  A    between atoms: C_3  and  C_10 
REMARK    4  A    between atoms: C_10  and  C_11 
REMARK       I    between atoms: C_11  and  N_12 
REMARK    5  A    between atoms: N_12  and  C_13 
REMARK    6  A    between atoms: C_20  and  C_21 
REMARK       I    between atoms: C_21  and  N_22 
ROOT
HETATM    1  C   UNL     1      25.048  42.797  50.767  1.00  0.00     0.035 A 
HETATM    2  C   UNL     1      23.976  43.592  50.342  1.00  0.00     0.046 A 
HETATM    3  C   UNL     1      23.233  43.210  49.202  1.00  0.00     0.030 A 
HETATM    4  C   UNL     1      23.596  42.054  48.521  1.00  0.00     0.063 A 
HETATM    5  N   UNL     1      22.717  41.955  47.479  1.00  0.00    -0.277 N 
HETATM    6  H   UNL     1      22.688  41.233  46.768  1.00  0.00     0.189 HD
HETATM    7  N   UNL     1      21.802  42.935  47.428  1.00  0.00    -0.168 NA
HETATM    8  C   UNL     1      22.105  43.719  48.488  1.00  0.00     0.156 A 
HETATM    9  C   UNL     1      24.658  41.241  48.914  1.00  0.00     0.034 A 
HETATM   10  C   UNL     1      25.370  41.633  50.054  1.00  0.00     0.032 A 
ENDROOT
BRANCH   1  11
HETATM   11  N   UNL     1      25.843  43.082  51.899  1.00  0.00    -0.327 N 
HETATM   12  C   UNL     1      27.010  43.824  51.948  1.00  0.00     0.223 C 
HETATM   13  O   UNL     1      27.544  44.396  51.003  1.00  0.00    -0.273 OA
HETATM   14  H   UNL     1      25.534  42.655  52.760  1.00  0.00     0.169 HD
BRANCH  12  15
HETATM   15  C   UNL     1      27.592  43.973  53.348  1.00  0.00     0.116 C 
BRANCH  15  16
HETATM   16  C   UNL     1      29.078  43.592  53.489  1.00  0.00     0.049 C 
BRANCH  16  17
HETATM   17  C   UNL     1      29.260  42.122  53.135  1.00  0.00    -0.027 C 
HETATM   18  C   UNL     1      28.477  41.086  53.466  1.00  0.00     0.007 C 
ENDBRANCH  16  17
BRANCH  16  19
HETATM   19  C   UNL     1      29.691  44.007  54.820  1.00  0.00    -0.050 A 
HETATM   20  C   UNL     1      30.721  43.270  55.425  1.00  0.00     0.008 A 
HETATM   21  C   UNL     1      31.262  43.674  56.648  1.00  0.00     0.001 A 
HETATM   22  C   UNL     1      30.785  44.820  57.280  1.00  0.00     0.000 A 
HETATM   23  C   UNL     1      29.770  45.567  56.689  1.00  0.00     0.001 A 
HETATM   24  C   UNL     1      29.230  45.166  55.465  1.00  0.00     0.008 A 
ENDBRANCH  16  19
ENDBRANCH  15  16
ENDBRANCH  12  15
ENDBRANCH   1  11
BRANCH   8  25
HETATM   25  C   UNL     1      21.312  44.917  48.796  1.00  0.00     0.270 C 
HETATM   26  N   UNL     1      22.031  46.082  48.772  1.00  0.00    -0.365 N 
HETATM   27  H   UNL     1      23.017  46.038  48.544  1.00  0.00     0.159 HD
HETATM   28  H   UNL     1      21.567  46.957  48.955  1.00  0.00     0.159 HD
HETATM   29  O   UNL     1      20.112  44.919  49.047  1.00  0.00    -0.266 OA
ENDBRANCH   8  25
TORSDOF 6
ENDMDL
MODEL 8
REMARK VINA RESULT:      -8.2      5.658      8.052
REMARK  6 active torsions:
REMARK  status: ('A' for Active; 'I' for Inactive)
REMARK    1  A    between atoms: C_2  and  C_3 
REMARK    2  A    between atoms: C_3  and  C_4 
REMARK    3  A    between atoms: C_3  and  C_10 
REMARK    4  A    between atoms: C_10  and  C_11 
REMARK       I    between atoms: C_11  and  N_12 
REMARK    5  A    between atoms: N_12  and  C_13 
REMARK    6  A    between atoms: C_20  and  C_21 
REMARK       I    between atoms: C_21  and  N_22 
ROOT
HETATM    1  C   UNL     1      27.938  41.874  51.615  1.00  0.00     0.035 A 
HETATM    2  C   UNL     1      28.414  40.598  51.283  1.00  0.00     0.046 A 
HETATM    3  C   UNL     1      28.240  40.109  49.969  1.00  0.00     0.030 A 
HETATM    4  C   UNL     1      27.586  40.906  49.037  1.00  0.00     0.063 A 
HETATM    5  N   UNL     1      27.561  40.172  47.884  1.00  0.00    -0.277 N 
HETATM    6  H   UNL     1      27.156  40.441  46.995  1.00  0.00     0.189 HD
HETATM    7  N   UNL     1      28.156  38.973  47.975  1.00  0.00    -0.168 NA
HETATM    8  C   UNL     1      28.584  38.918  49.258  1.00  0.00     0.156 A 
HETATM    9  C   UNL     1      27.097  42.178  49.333  1.00  0.00     0.034 A 
HETATM   10  C   UNL     1      27.293  42.646  50.637  1.00  0.00     0.032 A 
ENDROOT
BRANCH   1  11
HETATM   11  N   UNL     1      28.073  42.461  52.892  1.00  0.00    -0.327 N 
HETATM   12  C   UNL     1      29.242  42.818  53.540  1.00  0.00     0.223 C 
HETATM   13  O   UNL     1      30.379  42.712  53.093  1.00  0.00    -0.273 OA
HETATM   14  H   UNL     1      27.208  42.594  53.398  1.00  0.00     0.169 HD
BRANCH  12  15
HETATM   15  C   UNL     1      29.023  43.473  54.898  1.00  0.00     0.116 C 
BRANCH  15  16
HETATM   16  C   UNL     1      29.396  44.966  54.980  1.00  0.00     0.049 C 
BRANCH  16  17
HETATM   17  C   UNL     1      30.235  45.210  56.227  1.00  0.00    -0.027 C 
HETATM   18  C   UNL     1      31.010  44.339  56.888  1.00  0.00     0.007 C 
ENDBRANCH  16  17
BRANCH  16  19
HETATM   19  C   UNL     1      28.205  45.902  54.820  1.00  0.00    -0.050 A 
HETATM   20  C   UNL     1      26.960  45.447  54.359  1.00  0.00     0.008 A 
HETATM   21  C   UNL     1      25.886  46.329  54.221  1.00  0.00     0.001 A 
HETATM   22  C   UNL     1      26.041  47.676  54.543  1.00  0.00     0.000 A 
HETATM   23  C   UNL     1      27.267  48.141  55.009  1.00  0.00     0.001 A 
HETATM   24  C   UNL     1      28.341  47.260  55.151  1.00  0.00     0.008 A 
ENDBRANCH  16  19
ENDBRANCH  15  16
ENDBRANCH  12  15
ENDBRANCH   1  11
BRANCH   8  25
HETATM   25  C   UNL     1      29.311  37.746  49.765  1.00  0.00     0.270 C 
HETATM   26  N   UNL     1      28.505  36.787  50.319  1.00  0.00    -0.365 N 
HETATM   27  H   UNL     1      27.504  36.944  50.330  1.00  0.00     0.159 HD
HETATM   28  H   UNL     1      28.915  35.941  50.679  1.00  0.00     0.159 HD
HETATM   29  O   UNL     1      30.526  37.597  49.710  1.00  0.00    -0.266 OA
ENDBRANCH   8  25
TORSDOF 6
ENDMDL
MODEL 9
REMARK VINA RESULT:      -8.1      3.430      8.457
REMARK  6 active torsions:
REMARK  status: ('A' for Active; 'I' for Inactive)
REMARK    1  A    between atoms: C_2  and  C_3 
REMARK    2  A    between atoms: C_3  and  C_4 
REMARK    3  A    between atoms: C_3  and  C_10 
REMARK    4  A    between atoms: C_10  and  C_11 
REMARK       I    between atoms: C_11  and  N_12 
REMARK    5  A    between atoms: N_12  and  C_13 
REMARK    6  A    between atoms: C_20  and  C_21 
REMARK       I    between atoms: C_21  and  N_22 
ROOT
HETATM    1  C   UNL     1      28.061  44.828  53.582  1.00  0.00     0.035 A 
HETATM    2  C   UNL     1      28.429  45.294  54.850  1.00  0.00     0.046 A 
HETATM    3  C   UNL     1      29.493  44.670  55.541  1.00  0.00     0.030 A 
HETATM    4  C   UNL     1      30.141  43.596  54.944  1.00  0.00     0.063 A 
HETATM    5  N   UNL     1      31.097  43.205  55.840  1.00  0.00    -0.277 N 
HETATM    6  H   UNL     1      31.758  42.443  55.739  1.00  0.00     0.189 HD
HETATM    7  N   UNL     1      31.142  43.940  56.962  1.00  0.00    -0.168 NA
HETATM    8  C   UNL     1      30.158  44.852  56.793  1.00  0.00     0.156 A 
HETATM    9  C   UNL     1      29.800  43.104  53.685  1.00  0.00     0.034 A 
HETATM   10  C   UNL     1      28.752  43.747  53.016  1.00  0.00     0.032 A 
ENDROOT
BRANCH   1  11
HETATM   11  N   UNL     1      27.024  45.389  52.804  1.00  0.00    -0.327 N 
HETATM   12  C   UNL     1      25.725  44.931  52.670  1.00  0.00     0.223 C 
HETATM   13  O   UNL     1      25.237  43.959  53.238  1.00  0.00    -0.273 OA
HETATM   14  H   UNL     1      27.286  46.196  52.256  1.00  0.00     0.169 HD
BRANCH  12  15
HETATM   15  C   UNL     1      24.849  45.805  51.782  1.00  0.00     0.116 C 
BRANCH  15  16
HETATM   16  C   UNL     1      25.182  45.763  50.278  1.00  0.00     0.049 C 
BRANCH  16  17
HETATM   17  C   UNL     1      26.108  44.586  49.997  1.00  0.00    -0.027 C 
HETATM   18  C   UNL     1      25.820  43.435  49.374  1.00  0.00     0.007 C 
ENDBRANCH  16  17
BRANCH  16  19
HETATM   19  C   UNL     1      25.661  47.096  49.721  1.00  0.00    -0.050 A 
HETATM   20  C   UNL     1      24.765  48.114  49.356  1.00  0.00     0.008 A 
HETATM   21  C   UNL     1      25.233  49.326  48.846  1.00  0.00     0.001 A 
HETATM   22  C   UNL     1      26.602  49.541  48.696  1.00  0.00     0.000 A 
HETATM   23  C   UNL     1      27.504  48.546  49.061  1.00  0.00     0.001 A 
HETATM   24  C   UNL     1      27.038  47.334  49.574  1.00  0.00     0.008 A 
ENDBRANCH  16  19
ENDBRANCH  15  16
ENDBRANCH  12  15
ENDBRANCH   1  11
BRANCH   8  25
HETATM   25  C   UNL     1      29.885  45.872  57.816  1.00  0.00     0.270 C 
HETATM   26  N   UNL     1      30.994  46.274  58.511  1.00  0.00    -0.365 N 
HETATM   27  H   UNL     1      31.889  45.864  58.273  1.00  0.00     0.159 HD
HETATM   28  H   UNL     1      30.905  46.982  59.222  1.00  0.00     0.159 HD
HETATM   29  O   UNL     1      28.781  46.351  58.052  1.00  0.00    -0.266 OA
ENDBRANCH   8  25
TORSDOF 6
ENDMDL
MODEL 10
REMARK VINA RESULT:      -8.1      4.078      9.343
REMARK  6 active torsions:
REMARK  status: ('A' for Active; 'I' for Inactive)
REMARK    1  A    between atoms: C_2  and  C_3 
REMARK    2  A    between atoms: C_3  and  C_4 
REMARK    3  A    between atoms: C_3  and  C_10 
REMARK    4  A    between atoms: C_10  and  C_11 
REMARK       I    between atoms: C_11  and  N_12 
REMARK    5  A    between atoms: N_12  and  C_13 
REMARK    6  A    between atoms: C_20  and  C_21 
REMARK       I    between atoms: C_21  and  N_22 
ROOT
HETATM    1  C   UNL     1      22.348  48.935  49.130  1.00  0.00     0.035 A 
HETATM    2  C   UNL     1      23.494  48.190  49.437  1.00  0.00     0.046 A 
HETATM    3  C   UNL     1      24.765  48.674  49.052  1.00  0.00     0.030 A 
HETATM    4  C   UNL     1      24.843  49.878  48.362  1.00  0.00     0.063 A 
HETATM    5  N   UNL     1      26.174  50.073  48.122  1.00  0.00    -0.277 N 
HETATM    6  H   UNL     1      26.601  50.851  47.633  1.00  0.00     0.189 HD
HETATM    7  N   UNL     1      26.975  49.112  48.608  1.00  0.00    -0.168 NA
HETATM    8  C   UNL     1      26.119  48.240  49.189  1.00  0.00     0.156 A 
HETATM    9  C   UNL     1      23.724  50.643  48.036  1.00  0.00     0.034 A 
HETATM   10  C   UNL     1      22.478  50.149  48.441  1.00  0.00     0.032 A 
ENDROOT
BRANCH   1  11
HETATM   11  N   UNL     1      21.036  48.548  49.481  1.00  0.00    -0.327 N 
HETATM   12  C   UNL     1      20.151  47.786  48.739  1.00  0.00     0.223 C 
HETATM   13  O   UNL     1      20.372  47.283  47.641  1.00  0.00    -0.273 OA
HETATM   14  H   UNL     1      20.703  48.909  50.363  1.00  0.00     0.169 HD
BRANCH  12  15
HETATM   15  C   UNL     1      18.826  47.517  49.439  1.00  0.00     0.116 C 
BRANCH  15  16
HETATM   16  C   UNL     1      17.666  48.450  49.040  1.00  0.00     0.049 C 
BRANCH  16  17
HETATM   17  C   UNL     1      16.903  47.838  47.872  1.00  0.00    -0.027 C 
HETATM   18  C   UNL     1      15.668  48.131  47.444  1.00  0.00     0.007 C 
ENDBRANCH  16  17
BRANCH  16  19
HETATM   19  C   UNL     1      18.090  49.898  48.835  1.00  0.00    -0.050 A 
HETATM   20  C   UNL     1      18.361  50.419  47.560  1.00  0.00     0.008 A 
HETATM   21  C   UNL     1      18.750  51.751  47.403  1.00  0.00     0.001 A 
HETATM   22  C   UNL     1      18.871  52.581  48.516  1.00  0.00     0.000 A 
HETATM   23  C   UNL     1      18.598  52.082  49.786  1.00  0.00     0.001 A 
HETATM   24  C   UNL     1      18.206  50.751  49.945  1.00  0.00     0.008 A 
ENDBRANCH  16  19
ENDBRANCH  15  16
ENDBRANCH  12  15
ENDBRANCH   1  11
BRANCH   8  25
HETATM   25  C   UNL     1      26.611  47.029  49.862  1.00  0.00     0.270 C 
HETATM   26  N   UNL     1      26.254  46.941  51.181  1.00  0.00    -0.365 N 
HETATM   27  H   UNL     1      25.691  47.681  51.580  1.00  0.00     0.159 HD
HETATM   28  H   UNL     1      26.534  46.137  51.719  1.00  0.00     0.159 HD
HETATM   29  O   UNL     1      27.276  46.150  49.325  1.00  0.00    -0.266 OA
ENDBRANCH   8  25
TORSDOF 6
ENDMDL
