MODEL 1
REMARK VINA RESULT:      -8.9      0.000      0.000
REMARK  3 active torsions:
REMARK  status: ('A' for Active; 'I' for Inactive)
REMARK    1  A    between atoms: C_5  and  C_6 
REMARK    2  A    between atoms: C_8  and  N_9 
REMARK       I    between atoms: N_9  and  C_10 
REMARK    3  A    between atoms: C_10  and  C_11 
ROOT
HETATM    1  C   UNL     1      28.499  43.701  53.758  1.00  0.00     0.010 A 
HETATM    2  C   UNL     1      27.849  44.748  53.094  1.00  0.00     0.044 A 
HETATM    3  C   UNL     1      26.973  44.490  52.039  1.00  0.00     0.035 A 
HETATM    4  C   UNL     1      26.768  43.164  51.644  1.00  0.00     0.029 A 
HETATM    5  C   UNL     1      27.426  42.116  52.295  1.00  0.00     0.003 A 
HETATM    6  C   UNL     1      28.290  42.380  53.358  1.00  0.00     0.015 A 
ENDROOT
BRANCH   3   7
HETATM    7  N   UNL     1      26.248  45.492  51.362  1.00  0.00    -0.323 N 
HETATM    8  C   UNL     1      26.511  46.032  50.120  1.00  0.00     0.259 C 
HETATM    9  O   UNL     1      27.389  45.624  49.359  1.00  0.00    -0.267 OA
HETATM   10  H   UNL     1      25.473  45.900  51.879  1.00  0.00     0.169 HD
BRANCH   8  11
HETATM   11  C   UNL     1      25.620  47.173  49.705  1.00  0.00     0.070 A 
HETATM   12  C   UNL     1      26.045  48.540  49.225  1.00  0.00     0.116 A 
HETATM   13  S   UNL     1      27.611  49.130  49.065  1.00  0.00    -0.059 SA
HETATM   14  N   UNL     1      25.026  49.406  48.871  1.00  0.00    -0.356 N 
HETATM   15  C   UNL     1      23.693  49.097  48.930  1.00  0.00     0.089 A 
HETATM   16  H   UNL     1      25.299  50.326  48.537  1.00  0.00     0.166 HD
HETATM   17  C   UNL     1      23.305  47.892  49.355  1.00  0.00     0.018 A 
HETATM   18  C   UNL     1      24.295  46.917  49.743  1.00  0.00     0.022 A 
ENDBRANCH   8  11
ENDBRANCH   3   7
BRANCH   1  19
HETATM   19  C   UNL     1      29.394  44.018  54.917  1.00  0.00     0.116 A 
HETATM   20  N   UNL     1      30.429  43.300  55.377  1.00  0.00    -0.344 N 
HETATM   21  C   UNL     1      31.003  43.877  56.501  1.00  0.00     0.029 A 
HETATM   22  H   UNL     1      30.731  42.424  54.966  1.00  0.00     0.167 HD
HETATM   23  C   UNL     1      32.134  43.271  57.227  1.00  0.00     0.070 C 
HETATM   24  C   UNL     1      30.295  45.041  56.723  1.00  0.00     0.029 A 
HETATM   25  N   UNL     1      29.329  45.081  55.733  1.00  0.00    -0.344 N 
HETATM   26  C   UNL     1      30.429  46.084  57.755  1.00  0.00     0.070 C 
HETATM   27  H   UNL     1      28.643  45.825  55.631  1.00  0.00     0.167 HD
ENDBRANCH   1  19
TORSDOF 3
ENDMDL
MODEL 2
REMARK VINA RESULT:      -8.7      1.712      1.889
REMARK  3 active torsions:
REMARK  status: ('A' for Active; 'I' for Inactive)
REMARK    1  A    between atoms: C_5  and  C_6 
REMARK    2  A    between atoms: C_8  and  N_9 
REMARK       I    between atoms: N_9  and  C_10 
REMARK    3  A    between atoms: C_10  and  C_11 
ROOT
HETATM    1  C   UNL     1      28.898  43.274  53.538  1.00  0.00     0.010 A 
HETATM    2  C   UNL     1      27.976  44.144  52.945  1.00  0.00     0.044 A 
HETATM    3  C   UNL     1      27.225  43.744  51.840  1.00  0.00     0.035 A 
HETATM    4  C   UNL     1      27.423  42.459  51.322  1.00  0.00     0.029 A 
HETATM    5  C   UNL     1      28.353  41.592  51.902  1.00  0.00     0.003 A 
HETATM    6  C   UNL     1      29.090  41.994  53.015  1.00  0.00     0.015 A 
ENDROOT
BRANCH   3   7
HETATM    7  N   UNL     1      26.243  44.550  51.227  1.00  0.00    -0.323 N 
HETATM    8  C   UNL     1      26.390  45.370  50.127  1.00  0.00     0.259 C 
HETATM    9  O   UNL     1      27.410  45.432  49.441  1.00  0.00    -0.267 OA
HETATM   10  H   UNL     1      25.337  44.567  51.689  1.00  0.00     0.169 HD
BRANCH   8  11
HETATM   11  C   UNL     1      25.185  46.200  49.770  1.00  0.00     0.070 A 
HETATM   12  C   UNL     1      23.791  45.706  49.461  1.00  0.00     0.116 A 
HETATM   13  S   UNL     1      23.254  44.115  49.411  1.00  0.00    -0.059 SA
HETATM   14  N   UNL     1      22.846  46.680  49.193  1.00  0.00    -0.356 N 
HETATM   15  C   UNL     1      23.099  48.025  49.194  1.00  0.00     0.089 A 
HETATM   16  H   UNL     1      21.902  46.361  48.992  1.00  0.00     0.166 HD
HETATM   17  C   UNL     1      24.327  48.474  49.465  1.00  0.00     0.018 A 
HETATM   18  C   UNL     1      25.383  47.535  49.761  1.00  0.00     0.022 A 
ENDBRANCH   8  11
ENDBRANCH   3   7
BRANCH   1  19
HETATM   19  C   UNL     1      29.649  43.726  54.753  1.00  0.00     0.116 A 
HETATM   20  N   UNL     1      30.702  43.135  55.337  1.00  0.00    -0.344 N 
HETATM   21  C   UNL     1      31.113  43.811  56.476  1.00  0.00     0.029 A 
HETATM   22  H   UNL     1      31.123  42.277  54.997  1.00  0.00     0.167 HD
HETATM   23  C   UNL     1      32.225  43.352  57.327  1.00  0.00     0.070 C 
HETATM   24  C   UNL     1      30.279  44.908  56.577  1.00  0.00     0.029 A 
HETATM   25  N   UNL     1      29.408  44.810  55.506  1.00  0.00    -0.344 N 
HETATM   26  C   UNL     1      30.217  46.000  57.564  1.00  0.00     0.070 C 
HETATM   27  H   UNL     1      28.666  45.477  55.308  1.00  0.00     0.167 HD
ENDBRANCH   1  19
TORSDOF 3
ENDMDL
MODEL 3
REMARK VINA RESULT:      -8.6      2.938      9.286
REMARK  3 active torsions:
REMARK  status: ('A' for Active; 'I' for Inactive)
REMARK    1  A    between atoms: C_5  and  C_6 
REMARK    2  A    between atoms: C_8  and  N_9 
REMARK       I    between atoms: N_9  and  C_10 
REMARK    3  A    between atoms: C_10  and  C_11 
ROOT
HETATM    1  C   UNL     1      23.814  49.125  49.220  1.00  0.00     0.010 A 
HETATM    2  C   UNL     1      24.150  48.011  49.999  1.00  0.00     0.044 A 
HETATM    3  C   UNL     1      25.477  47.598  50.119  1.00  0.00     0.035 A 
HETATM    4  C   UNL     1      26.468  48.307  49.431  1.00  0.00     0.029 A 
HETATM    5  C   UNL     1      26.135  49.411  48.640  1.00  0.00     0.003 A 
HETATM    6  C   UNL     1      24.808  49.827  48.536  1.00  0.00     0.015 A 
ENDROOT
BRANCH   3   7
HETATM    7  N   UNL     1      25.890  46.518  50.927  1.00  0.00    -0.323 N 
HETATM    8  C   UNL     1      25.934  46.462  52.304  1.00  0.00     0.259 C 
HETATM    9  O   UNL     1      25.506  47.345  53.048  1.00  0.00    -0.267 OA
HETATM   10  H   UNL     1      26.247  45.707  50.427  1.00  0.00     0.169 HD
BRANCH   8  11
HETATM   11  C   UNL     1      26.530  45.207  52.885  1.00  0.00     0.070 A 
HETATM   12  C   UNL     1      26.234  43.781  52.483  1.00  0.00     0.116 A 
HETATM   13  S   UNL     1      25.149  43.249  51.315  1.00  0.00    -0.059 SA
HETATM   14  N   UNL     1      26.942  42.800  53.152  1.00  0.00    -0.356 N 
HETATM   15  C   UNL     1      27.870  43.045  54.129  1.00  0.00     0.089 A 
HETATM   16  H   UNL     1      26.759  41.836  52.885  1.00  0.00     0.166 HD
HETATM   17  C   UNL     1      28.140  44.301  54.494  1.00  0.00     0.018 A 
HETATM   18  C   UNL     1      27.454  45.396  53.851  1.00  0.00     0.022 A 
ENDBRANCH   8  11
ENDBRANCH   3   7
BRANCH   1  19
HETATM   19  C   UNL     1      22.383  49.565  49.157  1.00  0.00     0.116 A 
HETATM   20  N   UNL     1      21.903  50.739  48.725  1.00  0.00    -0.344 N 
HETATM   21  C   UNL     1      20.523  50.817  48.855  1.00  0.00     0.029 A 
HETATM   22  H   UNL     1      22.488  51.491  48.375  1.00  0.00     0.167 HD
HETATM   23  C   UNL     1      19.747  52.014  48.489  1.00  0.00     0.070 C 
HETATM   24  C   UNL     1      20.131  49.596  49.367  1.00  0.00     0.029 A 
HETATM   25  N   UNL     1      21.298  48.872  49.533  1.00  0.00    -0.344 N 
HETATM   26  C   UNL     1      18.802  49.066  49.719  1.00  0.00     0.070 C 
HETATM   27  H   UNL     1      21.338  47.923  49.899  1.00  0.00     0.167 HD
ENDBRANCH   1  19
TORSDOF 3
ENDMDL
MODEL 4
REMARK VINA RESULT:      -8.5      2.279      8.157
REMARK  3 active torsions:
REMARK  status: ('A' for Active; 'I' for Inactive)
REMARK    1  A    between atoms: C_5  and  C_6 
REMARK    2  A    between atoms: C_8  and  N_9 
REMARK       I    between atoms: N_9  and  C_10 
REMARK    3  A    between atoms: C_10  and  C_11 
ROOT
HETATM    1  C   UNL     1      24.957  46.045  50.906  1.00  0.00     0.010 A 
HETATM    2  C   UNL     1      25.950  46.101  51.891  1.00  0.00     0.044 A 
HETATM    3  C   UNL     1      26.294  44.964  52.624  1.00  0.00     0.035 A 
HETATM    4  C   UNL     1      25.615  43.768  52.369  1.00  0.00     0.029 A 
HETATM    5  C   UNL     1      24.612  43.711  51.396  1.00  0.00     0.003 A 
HETATM    6  C   UNL     1      24.284  44.847  50.658  1.00  0.00     0.015 A 
ENDROOT
BRANCH   3   7
HETATM    7  N   UNL     1      27.318  44.939  53.593  1.00  0.00    -0.323 N 
HETATM    8  C   UNL     1      28.524  44.272  53.531  1.00  0.00     0.259 C 
HETATM    9  O   UNL     1      28.931  43.667  52.539  1.00  0.00    -0.267 OA
HETATM   10  H   UNL     1      27.114  45.429  54.461  1.00  0.00     0.169 HD
BRANCH   8  11
HETATM   11  C   UNL     1      29.371  44.343  54.774  1.00  0.00     0.070 A 
HETATM   12  C   UNL     1      29.300  45.376  55.874  1.00  0.00     0.116 A 
HETATM   13  S   UNL     1      28.281  46.709  55.964  1.00  0.00    -0.059 SA
HETATM   14  N   UNL     1      30.171  45.199  56.934  1.00  0.00    -0.356 N 
HETATM   15  C   UNL     1      31.067  44.168  57.034  1.00  0.00     0.089 A 
HETATM   16  H   UNL     1      30.127  45.882  57.685  1.00  0.00     0.166 HD
HETATM   17  C   UNL     1      31.141  43.250  56.068  1.00  0.00     0.018 A 
HETATM   18  C   UNL     1      30.269  43.345  54.922  1.00  0.00     0.022 A 
ENDBRANCH   8  11
ENDBRANCH   3   7
BRANCH   1  19
HETATM   19  C   UNL     1      24.652  47.276  50.108  1.00  0.00     0.116 A 
HETATM   20  N   UNL     1      25.502  48.015  49.381  1.00  0.00    -0.344 N 
HETATM   21  C   UNL     1      24.878  49.116  48.812  1.00  0.00     0.029 A 
HETATM   22  H   UNL     1      26.490  47.806  49.288  1.00  0.00     0.167 HD
HETATM   23  C   UNL     1      25.593  50.113  47.995  1.00  0.00     0.070 C 
HETATM   24  C   UNL     1      23.552  49.025  49.187  1.00  0.00     0.029 A 
HETATM   25  N   UNL     1      23.468  47.890  49.974  1.00  0.00    -0.344 N 
HETATM   26  C   UNL     1      22.393  49.887  48.896  1.00  0.00     0.070 C 
HETATM   27  H   UNL     1      22.610  47.554  50.406  1.00  0.00     0.167 HD
ENDBRANCH   1  19
TORSDOF 3
ENDMDL
MODEL 5
REMARK VINA RESULT:      -8.4      3.957      6.846
REMARK  3 active torsions:
REMARK  status: ('A' for Active; 'I' for Inactive)
REMARK    1  A    between atoms: C_5  and  C_6 
REMARK    2  A    between atoms: C_8  and  N_9 
REMARK       I    between atoms: N_9  and  C_10 
REMARK    3  A    between atoms: C_10  and  C_11 
ROOT
HETATM    1  C   UNL     1      25.856  47.893  49.686  1.00  0.00     0.010 A 
HETATM    2  C   UNL     1      24.511  48.253  49.535  1.00  0.00     0.044 A 
HETATM    3  C   UNL     1      24.150  49.355  48.759  1.00  0.00     0.035 A 
HETATM    4  C   UNL     1      25.159  50.107  48.148  1.00  0.00     0.029 A 
HETATM    5  C   UNL     1      26.504  49.759  48.308  1.00  0.00     0.003 A 
HETATM    6  C   UNL     1      26.856  48.648  49.073  1.00  0.00     0.015 A 
ENDROOT
BRANCH   3   7
HETATM    7  N   UNL     1      22.814  49.742  48.524  1.00  0.00    -0.323 N 
HETATM    8  C   UNL     1      21.979  50.448  49.364  1.00  0.00     0.259 C 
HETATM    9  O   UNL     1      22.332  50.947  50.433  1.00  0.00    -0.267 OA
HETATM   10  H   UNL     1      22.408  49.410  47.653  1.00  0.00     0.169 HD
BRANCH   8  11
HETATM   11  C   UNL     1      20.562  50.615  48.882  1.00  0.00     0.070 A 
HETATM   12  C   UNL     1      19.515  49.538  48.722  1.00  0.00     0.116 A 
HETATM   13  S   UNL     1      19.685  47.892  49.015  1.00  0.00    -0.059 SA
HETATM   14  N   UNL     1      18.270  49.958  48.290  1.00  0.00    -0.356 N 
HETATM   15  C   UNL     1      17.947  51.259  48.008  1.00  0.00     0.089 A 
HETATM   16  H   UNL     1      17.554  49.244  48.187  1.00  0.00     0.166 HD
HETATM   17  C   UNL     1      18.864  52.220  48.144  1.00  0.00     0.018 A 
HETATM   18  C   UNL     1      20.193  51.882  48.594  1.00  0.00     0.022 A 
ENDBRANCH   8  11
ENDBRANCH   3   7
BRANCH   1  19
HETATM   19  C   UNL     1      26.197  46.674  50.488  1.00  0.00     0.116 A 
HETATM   20  N   UNL     1      26.133  46.520  51.818  1.00  0.00    -0.344 N 
HETATM   21  C   UNL     1      26.572  45.266  52.219  1.00  0.00     0.029 A 
HETATM   22  H   UNL     1      25.828  47.250  52.453  1.00  0.00     0.167 HD
HETATM   23  C   UNL     1      26.640  44.851  53.631  1.00  0.00     0.070 C 
HETATM   24  C   UNL     1      26.893  44.597  51.055  1.00  0.00     0.029 A 
HETATM   25  N   UNL     1      26.647  45.496  50.031  1.00  0.00    -0.344 N 
HETATM   26  C   UNL     1      27.406  43.236  50.820  1.00  0.00     0.070 C 
HETATM   27  H   UNL     1      26.792  45.294  49.045  1.00  0.00     0.167 HD
ENDBRANCH   1  19
TORSDOF 3
ENDMDL
MODEL 6
REMARK VINA RESULT:      -8.2      3.264      4.387
REMARK  3 active torsions:
REMARK  status: ('A' for Active; 'I' for Inactive)
REMARK    1  A    between atoms: C_5  and  C_6 
REMARK    2  A    between atoms: C_8  and  N_9 
REMARK       I    between atoms: N_9  and  C_10 
REMARK    3  A    between atoms: C_10  and  C_11 
ROOT
HETATM    1  C   UNL     1      27.485  45.657  54.149  1.00  0.00     0.010 A 
HETATM    2  C   UNL     1      27.067  44.636  53.286  1.00  0.00     0.044 A 
HETATM    3  C   UNL     1      26.065  44.865  52.341  1.00  0.00     0.035 A 
HETATM    4  C   UNL     1      25.472  46.131  52.284  1.00  0.00     0.029 A 
HETATM    5  C   UNL     1      25.876  47.148  53.153  1.00  0.00     0.003 A 
HETATM    6  C   UNL     1      26.887  46.916  54.085  1.00  0.00     0.015 A 
ENDROOT
BRANCH   3   7
HETATM    7  N   UNL     1      25.634  43.898  51.409  1.00  0.00    -0.323 N 
HETATM    8  C   UNL     1      26.057  43.733  50.107  1.00  0.00     0.259 C 
HETATM    9  O   UNL     1      26.979  44.367  49.592  1.00  0.00    -0.267 OA
HETATM   10  H   UNL     1      24.883  43.289  51.724  1.00  0.00     0.169 HD
BRANCH   8  11
HETATM   11  C   UNL     1      25.328  42.678  49.316  1.00  0.00     0.070 A 
HETATM   12  C   UNL     1      25.513  41.182  49.397  1.00  0.00     0.116 A 
HETATM   13  S   UNL     1      26.594  40.333  50.364  1.00  0.00    -0.059 SA
HETATM   14  N   UNL     1      24.693  40.422  48.583  1.00  0.00    -0.356 N 
HETATM   15  C   UNL     1      23.750  40.939  47.735  1.00  0.00     0.089 A 
HETATM   16  H   UNL     1      24.801  39.412  48.635  1.00  0.00     0.166 HD
HETATM   17  C   UNL     1      23.578  42.261  47.654  1.00  0.00     0.018 A 
HETATM   18  C   UNL     1      24.385  43.139  48.467  1.00  0.00     0.022 A 
ENDBRANCH   8  11
ENDBRANCH   3   7
BRANCH   1  19
HETATM   19  C   UNL     1      28.597  45.383  55.115  1.00  0.00     0.116 A 
HETATM   20  N   UNL     1      29.498  44.391  55.071  1.00  0.00    -0.344 N 
HETATM   21  C   UNL     1      30.356  44.420  56.161  1.00  0.00     0.029 A 
HETATM   22  H   UNL     1      29.523  43.688  54.341  1.00  0.00     0.167 HD
HETATM   23  C   UNL     1      31.416  43.419  56.378  1.00  0.00     0.070 C 
HETATM   24  C   UNL     1      29.977  45.522  56.902  1.00  0.00     0.029 A 
HETATM   25  N   UNL     1      28.904  46.073  56.223  1.00  0.00    -0.344 N 
HETATM   26  C   UNL     1      30.504  46.083  58.158  1.00  0.00     0.070 C 
HETATM   27  H   UNL     1      28.400  46.903  56.525  1.00  0.00     0.167 HD
ENDBRANCH   1  19
TORSDOF 3
ENDMDL
MODEL 7
REMARK VINA RESULT:      -8.2      1.807      2.081
REMARK  3 active torsions:
REMARK  status: ('A' for Active; 'I' for Inactive)
REMARK    1  A    between atoms: C_5  and  C_6 
REMARK    2  A    between atoms: C_8  and  N_9 
REMARK       I    between atoms: N_9  and  C_10 
REMARK    3  A    between atoms: C_10  and  C_11 
ROOT
HETATM    1  C   UNL     1      28.848  42.715  53.357  1.00  0.00     0.010 A 
HETATM    2  C   UNL     1      27.844  43.410  52.671  1.00  0.00     0.044 A 
HETATM    3  C   UNL     1      27.149  42.810  51.621  1.00  0.00     0.035 A 
HETATM    4  C   UNL     1      27.486  41.503  51.251  1.00  0.00     0.029 A 
HETATM    5  C   UNL     1      28.497  40.810  51.924  1.00  0.00     0.003 A 
HETATM    6  C   UNL     1      29.178  41.411  52.982  1.00  0.00     0.015 A 
ENDROOT
BRANCH   3   7
HETATM    7  N   UNL     1      26.095  43.434  50.923  1.00  0.00    -0.323 N 
HETATM    8  C   UNL     1      26.186  44.382  49.925  1.00  0.00     0.259 C 
HETATM    9  O   UNL     1      27.244  44.750  49.414  1.00  0.00    -0.267 OA
HETATM   10  H   UNL     1      25.157  43.193  51.236  1.00  0.00     0.169 HD
BRANCH   8  11
HETATM   11  C   UNL     1      24.876  44.948  49.445  1.00  0.00     0.070 A 
HETATM   12  C   UNL     1      24.279  46.293  49.787  1.00  0.00     0.116 A 
HETATM   13  S   UNL     1      24.915  47.468  50.806  1.00  0.00    -0.059 SA
HETATM   14  N   UNL     1      23.070  46.593  49.187  1.00  0.00    -0.356 N 
HETATM   15  C   UNL     1      22.407  45.762  48.324  1.00  0.00     0.089 A 
HETATM   16  H   UNL     1      22.662  47.499  49.401  1.00  0.00     0.166 HD
HETATM   17  C   UNL     1      22.924  44.570  48.015  1.00  0.00     0.018 A 
HETATM   18  C   UNL     1      24.185  44.166  48.588  1.00  0.00     0.022 A 
ENDBRANCH   8  11
ENDBRANCH   3   7
BRANCH   1  19
HETATM   19  C   UNL     1      29.536  43.379  54.510  1.00  0.00     0.116 A 
HETATM   20  N   UNL     1      30.579  42.922  55.219  1.00  0.00    -0.344 N 
HETATM   21  C   UNL     1      30.925  43.784  56.250  1.00  0.00     0.029 A 
HETATM   22  H   UNL     1      31.035  42.035  55.037  1.00  0.00     0.167 HD
HETATM   23  C   UNL     1      32.012  43.502  57.203  1.00  0.00     0.070 C 
HETATM   24  C   UNL     1      30.059  44.855  56.143  1.00  0.00     0.029 A 
HETATM   25  N   UNL     1      29.235  44.559  55.071  1.00  0.00    -0.344 N 
HETATM   26  C   UNL     1      29.928  46.087  56.939  1.00  0.00     0.070 C 
HETATM   27  H   UNL     1      28.485  45.162  54.741  1.00  0.00     0.167 HD
ENDBRANCH   1  19
TORSDOF 3
ENDMDL
MODEL 8
REMARK VINA RESULT:      -8.1      3.849      6.071
REMARK  3 active torsions:
REMARK  status: ('A' for Active; 'I' for Inactive)
REMARK    1  A    between atoms: C_5  and  C_6 
REMARK    2  A    between atoms: C_8  and  N_9 
REMARK       I    between atoms: N_9  and  C_10 
REMARK    3  A    between atoms: C_10  and  C_11 
ROOT
HETATM    1  C   UNL     1      28.429  44.083  53.730  1.00  0.00     0.010 A 
HETATM    2  C   UNL     1      28.644  42.999  52.871  1.00  0.00     0.044 A 
HETATM    3  C   UNL     1      27.850  42.818  51.738  1.00  0.00     0.035 A 
HETATM    4  C   UNL     1      26.821  43.731  51.485  1.00  0.00     0.029 A 
HETATM    5  C   UNL     1      26.593  44.806  52.348  1.00  0.00     0.003 A 
HETATM    6  C   UNL     1      27.399  44.990  53.470  1.00  0.00     0.015 A 
ENDROOT
BRANCH   3   7
HETATM    7  N   UNL     1      28.046  41.779  50.804  1.00  0.00    -0.323 N 
HETATM    8  C   UNL     1      27.250  40.671  50.594  1.00  0.00     0.259 C 
HETATM    9  O   UNL     1      26.163  40.485  51.142  1.00  0.00    -0.267 OA
HETATM   10  H   UNL     1      28.906  41.830  50.264  1.00  0.00     0.169 HD
BRANCH   8  11
HETATM   11  C   UNL     1      27.778  39.672  49.599  1.00  0.00     0.070 A 
HETATM   12  C   UNL     1      27.195  39.327  48.249  1.00  0.00     0.116 A 
HETATM   13  S   UNL     1      25.804  39.951  47.543  1.00  0.00    -0.059 SA
HETATM   14  N   UNL     1      27.892  38.392  47.506  1.00  0.00    -0.356 N 
HETATM   15  C   UNL     1      29.048  37.782  47.916  1.00  0.00     0.089 A 
HETATM   16  H   UNL     1      27.516  38.157  46.591  1.00  0.00     0.166 HD
HETATM   17  C   UNL     1      29.572  38.077  49.108  1.00  0.00     0.018 A 
HETATM   18  C   UNL     1      28.919  39.045  49.957  1.00  0.00     0.022 A 
ENDBRANCH   8  11
ENDBRANCH   3   7
BRANCH   1  19
HETATM   19  C   UNL     1      29.335  44.269  54.909  1.00  0.00     0.116 A 
HETATM   20  N   UNL     1      30.345  43.479  55.302  1.00  0.00    -0.344 N 
HETATM   21  C   UNL     1      30.939  43.936  56.469  1.00  0.00     0.029 A 
HETATM   22  H   UNL     1      30.616  42.631  54.816  1.00  0.00     0.167 HD
HETATM   23  C   UNL     1      32.048  43.232  57.137  1.00  0.00     0.070 C 
HETATM   24  C   UNL     1      30.272  45.102  56.792  1.00  0.00     0.029 A 
HETATM   25  N   UNL     1      29.307  45.259  55.813  1.00  0.00    -0.344 N 
HETATM   26  C   UNL     1      30.443  46.047  57.909  1.00  0.00     0.070 C 
HETATM   27  H   UNL     1      28.648  46.033  55.777  1.00  0.00     0.167 HD
ENDBRANCH   1  19
TORSDOF 3
ENDMDL
MODEL 9
REMARK VINA RESULT:      -7.7      3.952      8.162
REMARK  3 active torsions:
REMARK  status: ('A' for Active; 'I' for Inactive)
REMARK    1  A    between atoms: C_5  and  C_6 
REMARK    2  A    between atoms: C_8  and  N_9 
REMARK       I    between atoms: N_9  and  C_10 
REMARK    3  A    between atoms: C_10  and  C_11 
ROOT
HETATM    1  C   UNL     1      27.070  41.675  49.861  1.00  0.00     0.010 A 
HETATM    2  C   UNL     1      27.864  41.945  50.982  1.00  0.00     0.044 A 
HETATM    3  C   UNL     1      27.979  43.244  51.480  1.00  0.00     0.035 A 
HETATM    4  C   UNL     1      27.299  44.277  50.825  1.00  0.00     0.029 A 
HETATM    5  C   UNL     1      26.517  44.014  49.697  1.00  0.00     0.003 A 
HETATM    6  C   UNL     1      26.395  42.712  49.215  1.00  0.00     0.015 A 
ENDROOT
BRANCH   3   7
HETATM    7  N   UNL     1      28.719  43.577  52.633  1.00  0.00    -0.323 N 
HETATM    8  C   UNL     1      28.397  43.316  53.949  1.00  0.00     0.259 C 
HETATM    9  O   UNL     1      27.432  42.639  54.304  1.00  0.00    -0.267 OA
HETATM   10  H   UNL     1      29.562  44.123  52.471  1.00  0.00     0.169 HD
BRANCH   8  11
HETATM   11  C   UNL     1      29.334  43.896  54.975  1.00  0.00     0.070 A 
HETATM   12  C   UNL     1      29.269  45.267  55.604  1.00  0.00     0.116 A 
HETATM   13  S   UNL     1      28.156  46.487  55.292  1.00  0.00    -0.059 SA
HETATM   14  N   UNL     1      30.236  45.549  56.552  1.00  0.00    -0.356 N 
HETATM   15  C   UNL     1      31.218  44.676  56.939  1.00  0.00     0.089 A 
HETATM   16  H   UNL     1      30.197  46.466  56.990  1.00  0.00     0.166 HD
HETATM   17  C   UNL     1      31.287  43.462  56.388  1.00  0.00     0.018 A 
HETATM   18  C   UNL     1      30.319  43.072  55.391  1.00  0.00     0.022 A 
ENDBRANCH   8  11
ENDBRANCH   3   7
BRANCH   1  19
HETATM   19  C   UNL     1      26.935  40.259  49.389  1.00  0.00     0.116 A 
HETATM   20  N   UNL     1      26.490  39.828  48.200  1.00  0.00    -0.344 N 
HETATM   21  C   UNL     1      26.457  38.443  48.128  1.00  0.00     0.029 A 
HETATM   22  H   UNL     1      26.186  40.448  47.457  1.00  0.00     0.167 HD
HETATM   23  C   UNL     1      25.973  37.711  46.944  1.00  0.00     0.070 C 
HETATM   24  C   UNL     1      26.946  37.997  49.340  1.00  0.00     0.029 A 
HETATM   25  N   UNL     1      27.221  39.140  50.070  1.00  0.00    -0.344 N 
HETATM   26  C   UNL     1      27.160  36.638  49.867  1.00  0.00     0.070 C 
HETATM   27  H   UNL     1      27.596  39.139  51.016  1.00  0.00     0.167 HD
ENDBRANCH   1  19
TORSDOF 3
ENDMDL
MODEL 10
REMARK VINA RESULT:      -7.7      4.848      6.590
REMARK  3 active torsions:
REMARK  status: ('A' for Active; 'I' for Inactive)
REMARK    1  A    between atoms: C_5  and  C_6 
REMARK    2  A    between atoms: C_8  and  N_9 
REMARK       I    between atoms: N_9  and  C_10 
REMARK    3  A    between atoms: C_10  and  C_11 
ROOT
HETATM    1  C   UNL     1      26.008  45.617  49.628  1.00  0.00     0.010 A 
HETATM    2  C   UNL     1      24.700  46.106  49.727  1.00  0.00     0.044 A 
HETATM    3  C   UNL     1      24.448  47.479  49.722  1.00  0.00     0.035 A 
HETATM    4  C   UNL     1      25.531  48.361  49.634  1.00  0.00     0.029 A 
HETATM    5  C   UNL     1      26.840  47.877  49.549  1.00  0.00     0.003 A 
HETATM    6  C   UNL     1      27.082  46.504  49.541  1.00  0.00     0.015 A 
ENDROOT
BRANCH   3   7
HETATM    7  N   UNL     1      23.154  48.037  49.767  1.00  0.00    -0.323 N 
HETATM    8  C   UNL     1      22.472  48.674  48.751  1.00  0.00     0.259 C 
HETATM    9  O   UNL     1      22.876  48.754  47.591  1.00  0.00    -0.267 OA
HETATM   10  H   UNL     1      22.696  48.011  50.675  1.00  0.00     0.169 HD
BRANCH   8  11
HETATM   11  C   UNL     1      21.142  49.267  49.133  1.00  0.00     0.070 A 
HETATM   12  C   UNL     1      19.804  48.568  49.171  1.00  0.00     0.116 A 
HETATM   13  S   UNL     1      19.470  46.970  48.770  1.00  0.00    -0.059 SA
HETATM   14  N   UNL     1      18.729  49.331  49.591  1.00  0.00    -0.356 N 
HETATM   15  C   UNL     1      18.813  50.646  49.963  1.00  0.00     0.089 A 
HETATM   16  H   UNL     1      17.825  48.870  49.630  1.00  0.00     0.166 HD
HETATM   17  C   UNL     1      19.990  51.276  49.932  1.00  0.00     0.018 A 
HETATM   18  C   UNL     1      21.173  50.563  49.511  1.00  0.00     0.022 A 
ENDBRANCH   8  11
ENDBRANCH   3   7
BRANCH   1  19
HETATM   19  C   UNL     1      26.230  44.136  49.588  1.00  0.00     0.116 A 
HETATM   20  N   UNL     1      27.111  43.417  50.299  1.00  0.00    -0.344 N 
HETATM   21  C   UNL     1      27.071  42.070  49.968  1.00  0.00     0.029 A 
HETATM   22  H   UNL     1      27.749  43.822  50.975  1.00  0.00     0.167 HD
HETATM   23  C   UNL     1      27.963  41.066  50.575  1.00  0.00     0.070 C 
HETATM   24  C   UNL     1      26.078  41.952  49.016  1.00  0.00     0.029 A 
HETATM   25  N   UNL     1      25.598  43.235  48.821  1.00  0.00    -0.344 N 
HETATM   26  C   UNL     1      25.560  40.783  48.285  1.00  0.00     0.070 C 
HETATM   27  H   UNL     1      24.854  43.476  48.171  1.00  0.00     0.167 HD
ENDBRANCH   1  19
TORSDOF 3
ENDMDL
