MODEL 1
REMARK VINA RESULT:      -8.1      0.000      0.000
REMARK  8 active torsions:
REMARK  status: ('A' for Active; 'I' for Inactive)
REMARK    1  A    between atoms: C_2  and  C_3 
REMARK    2  A    between atoms: C_3  and  C_4 
REMARK    3  A    between atoms: C_8  and  C_9 
REMARK       I    between atoms: C_9  and  N_10 
REMARK    4  A    between atoms: N_10  and  C_11 
REMARK    5  A    between atoms: N_10  and  C_17 
REMARK    6  A    between atoms: C_17  and  C_18 
REMARK    7  A    between atoms: C_18  and  O_19 
REMARK    8  A    between atoms: C_18  and  C_20 
ROOT
HETATM    1  C   UNL     1      25.517  42.775  50.756  1.00  0.00     0.272 C 
HETATM    2  N   UNL     1      25.899  43.489  51.897  1.00  0.00    -0.339 N 
HETATM    3  O   UNL     1      24.487  43.040  50.141  1.00  0.00    -0.266 OA
ENDROOT
BRANCH   2   4
HETATM    4  C   UNL     1      25.091  44.651  52.357  1.00  0.00     0.087 C 
HETATM    5  C   UNL     1      25.053  44.770  53.891  1.00  0.00     0.025 C 
HETATM    6  C   UNL     1      26.005  45.796  54.492  1.00  0.00     0.002 C 
HETATM    7  C   UNL     1      25.885  47.141  53.793  1.00  0.00     0.000 C 
HETATM    8  C   UNL     1      26.195  47.025  52.310  1.00  0.00     0.002 C 
HETATM    9  C   UNL     1      25.341  45.973  51.602  1.00  0.00     0.025 C 
ENDBRANCH   2   4
BRANCH   2  10
HETATM   10  C   UNL     1      26.910  42.999  52.860  1.00  0.00     0.163 C 
BRANCH  10  11
HETATM   11  C   UNL     1      28.346  43.475  52.546  1.00  0.00     0.169 C 
BRANCH  11  12
HETATM   12  O   UNL     1      29.061  42.464  51.826  1.00  0.00    -0.389 OA
HETATM   13  H   UNL     1      29.543  41.938  52.490  1.00  0.00     0.210 HD
ENDBRANCH  11  12
BRANCH  11  14
HETATM   14  C   UNL     1      29.111  43.796  53.815  1.00  0.00    -0.028 A 
HETATM   15  C   UNL     1      30.128  42.943  54.265  1.00  0.00     0.010 A 
HETATM   16  C   UNL     1      30.834  43.241  55.433  1.00  0.00     0.001 A 
HETATM   17  C   UNL     1      30.536  44.392  56.159  1.00  0.00     0.000 A 
HETATM   18  C   UNL     1      29.534  45.253  55.718  1.00  0.00     0.001 A 
HETATM   19  C   UNL     1      28.827  44.959  54.551  1.00  0.00     0.010 A 
ENDBRANCH  11  14
ENDBRANCH  10  11
ENDBRANCH   2  10
BRANCH   1  20
HETATM   20  C   UNL     1      26.312  41.663  50.292  1.00  0.00     0.119 A 
HETATM   21  N   UNL     1      27.430  41.880  49.529  1.00  0.00    -0.273 N 
HETATM   22  N   UNL     1      28.078  40.762  49.169  1.00  0.00    -0.179 NA
HETATM   23  H   UNL     1      27.791  42.779  49.225  1.00  0.00     0.189 HD
HETATM   24  C   UNL     1      27.434  39.793  49.830  1.00  0.00     0.057 A 
HETATM   25  C   UNL     1      26.325  40.305  50.547  1.00  0.00     0.065 A 
BRANCH  24  26
HETATM   26  C   UNL     1      27.929  38.386  49.775  1.00  0.00     0.061 C 
BRANCH  26  27
HETATM   27  C   UNL     1      29.456  38.318  49.732  1.00  0.00     0.002 C 
HETATM   28  C   UNL     1      30.030  37.781  51.033  1.00  0.00     0.005 C 
ENDBRANCH  26  27
ENDBRANCH  24  26
ENDBRANCH   1  20
TORSDOF 8
ENDMDL
MODEL 2
REMARK VINA RESULT:      -7.8      1.529      5.928
REMARK  8 active torsions:
REMARK  status: ('A' for Active; 'I' for Inactive)
REMARK    1  A    between atoms: C_2  and  C_3 
REMARK    2  A    between atoms: C_3  and  C_4 
REMARK    3  A    between atoms: C_8  and  C_9 
REMARK       I    between atoms: C_9  and  N_10 
REMARK    4  A    between atoms: N_10  and  C_11 
REMARK    5  A    between atoms: N_10  and  C_17 
REMARK    6  A    between atoms: C_17  and  C_18 
REMARK    7  A    between atoms: C_18  and  O_19 
REMARK    8  A    between atoms: C_18  and  C_20 
ROOT
HETATM    1  C   UNL     1      25.565  42.051  49.281  1.00  0.00     0.272 C 
HETATM    2  N   UNL     1      26.746  41.318  49.438  1.00  0.00    -0.339 N 
HETATM    3  O   UNL     1      24.774  41.815  48.372  1.00  0.00    -0.266 OA
ENDROOT
BRANCH   2   4
HETATM    4  C   UNL     1      27.040  40.171  48.537  1.00  0.00     0.087 C 
HETATM    5  C   UNL     1      28.519  40.120  48.114  1.00  0.00     0.025 C 
HETATM    6  C   UNL     1      29.386  39.130  48.880  1.00  0.00     0.002 C 
HETATM    7  C   UNL     1      28.742  37.754  48.936  1.00  0.00     0.000 C 
HETATM    8  C   UNL     1      27.381  37.807  49.611  1.00  0.00     0.002 C 
HETATM    9  C   UNL     1      26.434  38.818  48.966  1.00  0.00     0.025 C 
ENDBRANCH   2   4
BRANCH   2  10
HETATM   10  C   UNL     1      27.881  41.776  50.272  1.00  0.00     0.163 C 
BRANCH  10  11
HETATM   11  C   UNL     1      27.951  41.086  51.653  1.00  0.00     0.169 C 
BRANCH  11  12
HETATM   12  O   UNL     1      26.659  40.606  52.038  1.00  0.00    -0.389 OA
HETATM   13  H   UNL     1      26.216  41.339  52.502  1.00  0.00     0.210 HD
ENDBRANCH  11  12
BRANCH  11  14
HETATM   14  C   UNL     1      28.450  42.041  52.720  1.00  0.00    -0.028 A 
HETATM   15  C   UNL     1      29.824  42.186  52.956  1.00  0.00     0.010 A 
HETATM   16  C   UNL     1      30.283  43.067  53.937  1.00  0.00     0.001 A 
HETATM   17  C   UNL     1      29.378  43.814  54.689  1.00  0.00     0.000 A 
HETATM   18  C   UNL     1      28.010  43.686  54.458  1.00  0.00     0.001 A 
HETATM   19  C   UNL     1      27.548  42.807  53.478  1.00  0.00     0.010 A 
ENDBRANCH  11  14
ENDBRANCH  10  11
ENDBRANCH   2  10
BRANCH   1  20
HETATM   20  C   UNL     1      25.265  43.149  50.168  1.00  0.00     0.119 A 
HETATM   21  N   UNL     1      24.644  42.920  51.369  1.00  0.00    -0.273 N 
HETATM   22  N   UNL     1      24.427  44.025  52.098  1.00  0.00    -0.179 NA
HETATM   23  H   UNL     1      24.345  42.022  51.735  1.00  0.00     0.189 HD
HETATM   24  C   UNL     1      25.046  44.989  51.407  1.00  0.00     0.057 A 
HETATM   25  C   UNL     1      25.586  44.492  50.196  1.00  0.00     0.065 A 
BRANCH  24  26
HETATM   26  C   UNL     1      25.126  46.376  51.954  1.00  0.00     0.061 C 
BRANCH  26  27
HETATM   27  C   UNL     1      26.392  46.590  52.786  1.00  0.00     0.002 C 
HETATM   28  C   UNL     1      26.063  47.051  54.197  1.00  0.00     0.005 C 
ENDBRANCH  26  27
ENDBRANCH  24  26
ENDBRANCH   1  20
TORSDOF 8
ENDMDL
MODEL 3
REMARK VINA RESULT:      -7.7     12.301     14.261
REMARK  8 active torsions:
REMARK  status: ('A' for Active; 'I' for Inactive)
REMARK    1  A    between atoms: C_2  and  C_3 
REMARK    2  A    between atoms: C_3  and  C_4 
REMARK    3  A    between atoms: C_8  and  C_9 
REMARK       I    between atoms: C_9  and  N_10 
REMARK    4  A    between atoms: N_10  and  C_11 
REMARK    5  A    between atoms: N_10  and  C_17 
REMARK    6  A    between atoms: C_17  and  C_18 
REMARK    7  A    between atoms: C_18  and  O_19 
REMARK    8  A    between atoms: C_18  and  C_20 
ROOT
HETATM    1  C   UNL     1      26.711  49.688  39.775  1.00  0.00     0.272 C 
HETATM    2  N   UNL     1      27.373  48.469  39.957  1.00  0.00    -0.339 N 
HETATM    3  O   UNL     1      25.561  49.741  39.347  1.00  0.00    -0.266 OA
ENDROOT
BRANCH   2   4
HETATM    4  C   UNL     1      26.663  47.186  39.700  1.00  0.00     0.087 C 
HETATM    5  C   UNL     1      27.549  46.160  38.970  1.00  0.00     0.025 C 
HETATM    6  C   UNL     1      28.176  45.091  39.854  1.00  0.00     0.002 C 
HETATM    7  C   UNL     1      27.141  44.439  40.757  1.00  0.00     0.000 C 
HETATM    8  C   UNL     1      26.472  45.461  41.661  1.00  0.00     0.002 C 
HETATM    9  C   UNL     1      25.854  46.626  40.889  1.00  0.00     0.025 C 
ENDBRANCH   2   4
BRANCH   2  10
HETATM   10  C   UNL     1      28.840  48.358  40.123  1.00  0.00     0.163 C 
BRANCH  10  11
HETATM   11  C   UNL     1      29.289  48.236  41.596  1.00  0.00     0.169 C 
BRANCH  11  12
HETATM   12  O   UNL     1      28.364  48.909  42.458  1.00  0.00    -0.389 OA
HETATM   13  H   UNL     1      28.026  49.675  41.960  1.00  0.00     0.210 HD
ENDBRANCH  11  12
BRANCH  11  14
HETATM   14  C   UNL     1      30.666  48.835  41.805  1.00  0.00    -0.028 A 
HETATM   15  C   UNL     1      31.779  48.301  41.140  1.00  0.00     0.010 A 
HETATM   16  C   UNL     1      33.047  48.854  41.330  1.00  0.00     0.001 A 
HETATM   17  C   UNL     1      33.217  49.946  42.180  1.00  0.00     0.000 A 
HETATM   18  C   UNL     1      32.117  50.492  42.839  1.00  0.00     0.001 A 
HETATM   19  C   UNL     1      30.849  49.941  42.650  1.00  0.00     0.010 A 
ENDBRANCH  11  14
ENDBRANCH  10  11
ENDBRANCH   2  10
BRANCH   1  20
HETATM   20  C   UNL     1      27.389  50.933  40.047  1.00  0.00     0.119 A 
HETATM   21  N   UNL     1      27.158  51.606  41.219  1.00  0.00    -0.273 N 
HETATM   22  N   UNL     1      27.854  52.746  41.346  1.00  0.00    -0.179 NA
HETATM   23  H   UNL     1      26.529  51.327  41.965  1.00  0.00     0.189 HD
HETATM   24  C   UNL     1      28.662  52.747  40.281  1.00  0.00     0.057 A 
HETATM   25  C   UNL     1      28.412  51.635  39.440  1.00  0.00     0.065 A 
BRANCH  24  26
HETATM   26  C   UNL     1      29.688  53.818  40.114  1.00  0.00     0.061 C 
BRANCH  26  27
HETATM   27  C   UNL     1      30.971  53.508  40.889  1.00  0.00     0.002 C 
HETATM   28  C   UNL     1      31.987  52.783  40.021  1.00  0.00     0.005 C 
ENDBRANCH  26  27
ENDBRANCH  24  26
ENDBRANCH   1  20
TORSDOF 8
ENDMDL
MODEL 4
REMARK VINA RESULT:      -7.6     13.870     15.349
REMARK  8 active torsions:
REMARK  status: ('A' for Active; 'I' for Inactive)
REMARK    1  A    between atoms: C_2  and  C_3 
REMARK    2  A    between atoms: C_3  and  C_4 
REMARK    3  A    between atoms: C_8  and  C_9 
REMARK       I    between atoms: C_9  and  N_10 
REMARK    4  A    between atoms: N_10  and  C_11 
REMARK    5  A    between atoms: N_10  and  C_17 
REMARK    6  A    between atoms: C_17  and  C_18 
REMARK    7  A    between atoms: C_18  and  O_19 
REMARK    8  A    between atoms: C_18  and  C_20 
ROOT
HETATM    1  C   UNL     1      30.328  50.607  38.625  1.00  0.00     0.272 C 
HETATM    2  N   UNL     1      30.161  49.400  39.313  1.00  0.00    -0.339 N 
HETATM    3  O   UNL     1      29.608  50.916  37.679  1.00  0.00    -0.266 OA
ENDROOT
BRANCH   2   4
HETATM    4  C   UNL     1      29.046  48.483  38.954  1.00  0.00     0.087 C 
HETATM    5  C   UNL     1      29.547  47.133  38.409  1.00  0.00     0.025 C 
HETATM    6  C   UNL     1      29.546  45.982  39.406  1.00  0.00     0.002 C 
HETATM    7  C   UNL     1      28.209  45.869  40.121  1.00  0.00     0.000 C 
HETATM    8  C   UNL     1      27.875  47.145  40.877  1.00  0.00     0.002 C 
HETATM    9  C   UNL     1      27.906  48.389  39.990  1.00  0.00     0.025 C 
ENDBRANCH   2   4
BRANCH   2  10
HETATM   10  C   UNL     1      31.194  48.824  40.203  1.00  0.00     0.163 C 
BRANCH  10  11
HETATM   11  C   UNL     1      31.052  49.258  41.679  1.00  0.00     0.169 C 
BRANCH  11  12
HETATM   12  O   UNL     1      29.912  50.110  41.841  1.00  0.00    -0.389 OA
HETATM   13  H   UNL     1      29.950  50.456  42.751  1.00  0.00     0.210 HD
ENDBRANCH  11  12
BRANCH  11  14
HETATM   14  C   UNL     1      32.283  50.004  42.155  1.00  0.00    -0.028 A 
HETATM   15  C   UNL     1      32.179  50.978  43.157  1.00  0.00     0.010 A 
HETATM   16  C   UNL     1      33.314  51.663  43.597  1.00  0.00     0.001 A 
HETATM   17  C   UNL     1      34.562  51.379  43.047  1.00  0.00     0.000 A 
HETATM   18  C   UNL     1      34.681  50.406  42.057  1.00  0.00     0.001 A 
HETATM   19  C   UNL     1      33.549  49.720  41.616  1.00  0.00     0.010 A 
ENDBRANCH  11  14
ENDBRANCH  10  11
ENDBRANCH   2  10
BRANCH   1  20
HETATM   20  C   UNL     1      31.394  51.511  38.986  1.00  0.00     0.119 A 
HETATM   21  N   UNL     1      31.216  52.425  39.992  1.00  0.00    -0.273 N 
HETATM   22  N   UNL     1      32.285  53.200  40.228  1.00  0.00    -0.179 NA
HETATM   23  H   UNL     1      30.377  52.560  40.547  1.00  0.00     0.189 HD
HETATM   24  C   UNL     1      33.234  52.684  39.439  1.00  0.00     0.057 A 
HETATM   25  C   UNL     1      32.727  51.626  38.645  1.00  0.00     0.065 A 
BRANCH  24  26
HETATM   26  C   UNL     1      34.629  53.212  39.493  1.00  0.00     0.061 C 
BRANCH  26  27
HETATM   27  C   UNL     1      35.662  52.133  39.166  1.00  0.00     0.002 C 
HETATM   28  C   UNL     1      36.982  52.387  39.877  1.00  0.00     0.005 C 
ENDBRANCH  26  27
ENDBRANCH  24  26
ENDBRANCH   1  20
TORSDOF 8
ENDMDL
MODEL 5
REMARK VINA RESULT:      -7.5     15.662     17.751
REMARK  8 active torsions:
REMARK  status: ('A' for Active; 'I' for Inactive)
REMARK    1  A    between atoms: C_2  and  C_3 
REMARK    2  A    between atoms: C_3  and  C_4 
REMARK    3  A    between atoms: C_8  and  C_9 
REMARK       I    between atoms: C_9  and  N_10 
REMARK    4  A    between atoms: N_10  and  C_11 
REMARK    5  A    between atoms: N_10  and  C_17 
REMARK    6  A    between atoms: C_17  and  C_18 
REMARK    7  A    between atoms: C_18  and  O_19 
REMARK    8  A    between atoms: C_18  and  C_20 
ROOT
HETATM    1  C   UNL     1      37.212  45.738  64.170  1.00  0.00     0.272 C 
HETATM    2  N   UNL     1      37.794  46.755  64.936  1.00  0.00    -0.339 N 
HETATM    3  O   UNL     1      36.029  45.773  63.842  1.00  0.00    -0.266 OA
ENDROOT
BRANCH   2   4
HETATM    4  C   UNL     1      36.998  47.954  65.315  1.00  0.00     0.087 C 
HETATM    5  C   UNL     1      36.573  47.934  66.794  1.00  0.00     0.025 C 
HETATM    6  C   UNL     1      37.421  48.783  67.732  1.00  0.00     0.002 C 
HETATM    7  C   UNL     1      37.605  50.192  67.191  1.00  0.00     0.000 C 
HETATM    8  C   UNL     1      38.280  50.179  65.829  1.00  0.00     0.002 C 
HETATM    9  C   UNL     1      37.552  49.303  64.810  1.00  0.00     0.025 C 
ENDBRANCH   2   4
BRANCH   2  10
HETATM   10  C   UNL     1      39.083  46.599  65.647  1.00  0.00     0.163 C 
BRANCH  10  11
HETATM   11  C   UNL     1      40.283  47.215  64.895  1.00  0.00     0.169 C 
BRANCH  11  12
HETATM   12  O   UNL     1      40.690  46.362  63.819  1.00  0.00    -0.389 OA
HETATM   13  H   UNL     1      41.383  46.841  63.330  1.00  0.00     0.210 HD
ENDBRANCH  11  12
BRANCH  11  14
HETATM   14  C   UNL     1      41.466  47.423  65.820  1.00  0.00    -0.028 A 
HETATM   15  C   UNL     1      42.763  47.102  65.396  1.00  0.00     0.010 A 
HETATM   16  C   UNL     1      43.853  47.297  66.247  1.00  0.00     0.001 A 
HETATM   17  C   UNL     1      43.660  47.816  67.526  1.00  0.00     0.000 A 
HETATM   18  C   UNL     1      42.378  48.148  67.957  1.00  0.00     0.001 A 
HETATM   19  C   UNL     1      41.287  47.955  67.108  1.00  0.00     0.010 A 
ENDBRANCH  11  14
ENDBRANCH  10  11
ENDBRANCH   2  10
BRANCH   1  20
HETATM   20  C   UNL     1      37.987  44.585  63.781  1.00  0.00     0.119 A 
HETATM   21  N   UNL     1      38.796  44.636  62.675  1.00  0.00    -0.273 N 
HETATM   22  N   UNL     1      39.463  43.498  62.427  1.00  0.00    -0.179 NA
HETATM   23  H   UNL     1      38.925  45.428  62.053  1.00  0.00     0.189 HD
HETATM   24  C   UNL     1      39.179  42.726  63.481  1.00  0.00     0.057 A 
HETATM   25  C   UNL     1      38.263  43.360  64.356  1.00  0.00     0.065 A 
BRANCH  24  26
HETATM   26  C   UNL     1      39.829  41.391  63.634  1.00  0.00     0.061 C 
BRANCH  26  27
HETATM   27  C   UNL     1      39.277  40.368  62.640  1.00  0.00     0.002 C 
HETATM   28  C   UNL     1      39.821  38.974  62.911  1.00  0.00     0.005 C 
ENDBRANCH  26  27
ENDBRANCH  24  26
ENDBRANCH   1  20
TORSDOF 8
ENDMDL
MODEL 6
REMARK VINA RESULT:      -7.4      1.897      4.283
REMARK  8 active torsions:
REMARK  status: ('A' for Active; 'I' for Inactive)
REMARK    1  A    between atoms: C_2  and  C_3 
REMARK    2  A    between atoms: C_3  and  C_4 
REMARK    3  A    between atoms: C_8  and  C_9 
REMARK       I    between atoms: C_9  and  N_10 
REMARK    4  A    between atoms: N_10  and  C_11 
REMARK    5  A    between atoms: N_10  and  C_17 
REMARK    6  A    between atoms: C_17  and  C_18 
REMARK    7  A    between atoms: C_18  and  O_19 
REMARK    8  A    between atoms: C_18  and  C_20 
ROOT
HETATM    1  C   UNL     1      27.238  42.480  53.266  1.00  0.00     0.272 C 
HETATM    2  N   UNL     1      27.076  43.855  53.062  1.00  0.00    -0.339 N 
HETATM    3  O   UNL     1      27.202  41.985  54.390  1.00  0.00    -0.266 OA
ENDROOT
BRANCH   2   4
HETATM    4  C   UNL     1      26.781  44.753  54.211  1.00  0.00     0.087 C 
HETATM    5  C   UNL     1      28.047  45.142  54.995  1.00  0.00     0.025 C 
HETATM    6  C   UNL     1      28.619  46.517  54.676  1.00  0.00     0.002 C 
HETATM    7  C   UNL     1      27.543  47.590  54.726  1.00  0.00     0.000 C 
HETATM    8  C   UNL     1      26.428  47.303  53.733  1.00  0.00     0.002 C 
HETATM    9  C   UNL     1      25.812  45.916  53.912  1.00  0.00     0.025 C 
ENDBRANCH   2   4
BRANCH   2  10
HETATM   10  C   UNL     1      27.458  44.539  51.805  1.00  0.00     0.163 C 
BRANCH  10  11
HETATM   11  C   UNL     1      26.388  44.437  50.696  1.00  0.00     0.169 C 
BRANCH  11  12
HETATM   12  O   UNL     1      26.921  43.769  49.547  1.00  0.00    -0.389 OA
HETATM   13  H   UNL     1      27.027  42.832  49.794  1.00  0.00     0.210 HD
ENDBRANCH  11  12
BRANCH  11  14
HETATM   14  C   UNL     1      25.901  45.809  50.272  1.00  0.00    -0.028 A 
HETATM   15  C   UNL     1      24.530  46.103  50.264  1.00  0.00     0.010 A 
HETATM   16  C   UNL     1      24.081  47.367  49.877  1.00  0.00     0.001 A 
HETATM   17  C   UNL     1      24.994  48.351  49.499  1.00  0.00     0.000 A 
HETATM   18  C   UNL     1      26.359  48.075  49.512  1.00  0.00     0.001 A 
HETATM   19  C   UNL     1      26.810  46.812  49.899  1.00  0.00     0.010 A 
ENDBRANCH  11  14
ENDBRANCH  10  11
ENDBRANCH   2  10
BRANCH   1  20
HETATM   20  C   UNL     1      27.501  41.603  52.151  1.00  0.00     0.119 A 
HETATM   21  N   UNL     1      26.465  41.080  51.422  1.00  0.00    -0.273 N 
HETATM   22  N   UNL     1      26.848  40.284  50.411  1.00  0.00    -0.179 NA
HETATM   23  H   UNL     1      25.474  41.236  51.578  1.00  0.00     0.189 HD
HETATM   24  C   UNL     1      28.180  40.399  50.402  1.00  0.00     0.057 A 
HETATM   25  C   UNL     1      28.636  41.214  51.468  1.00  0.00     0.065 A 
BRANCH  24  26
HETATM   26  C   UNL     1      28.987  39.737  49.335  1.00  0.00     0.061 C 
BRANCH  26  27
HETATM   27  C   UNL     1      29.015  38.216  49.501  1.00  0.00     0.002 C 
HETATM   28  C   UNL     1      29.891  37.797  50.671  1.00  0.00     0.005 C 
ENDBRANCH  26  27
ENDBRANCH  24  26
ENDBRANCH   1  20
TORSDOF 8
ENDMDL
MODEL 7
REMARK VINA RESULT:      -7.4     14.417     16.111
REMARK  8 active torsions:
REMARK  status: ('A' for Active; 'I' for Inactive)
REMARK    1  A    between atoms: C_2  and  C_3 
REMARK    2  A    between atoms: C_3  and  C_4 
REMARK    3  A    between atoms: C_8  and  C_9 
REMARK       I    between atoms: C_9  and  N_10 
REMARK    4  A    between atoms: N_10  and  C_11 
REMARK    5  A    between atoms: N_10  and  C_17 
REMARK    6  A    between atoms: C_17  and  C_18 
REMARK    7  A    between atoms: C_18  and  O_19 
REMARK    8  A    between atoms: C_18  and  C_20 
ROOT
HETATM    1  C   UNL     1      34.587  52.297  39.713  1.00  0.00     0.272 C 
HETATM    2  N   UNL     1      35.090  51.800  40.920  1.00  0.00    -0.339 N 
HETATM    3  O   UNL     1      35.243  53.052  39.001  1.00  0.00    -0.266 OA
ENDROOT
BRANCH   2   4
HETATM    4  C   UNL     1      36.481  52.122  41.340  1.00  0.00     0.087 C 
HETATM    5  C   UNL     1      36.526  53.078  42.546  1.00  0.00     0.025 C 
HETATM    6  C   UNL     1      36.773  52.418  43.896  1.00  0.00     0.002 C 
HETATM    7  C   UNL     1      37.969  51.480  43.844  1.00  0.00     0.000 C 
HETATM    8  C   UNL     1      37.765  50.380  42.815  1.00  0.00     0.002 C 
HETATM    9  C   UNL     1      37.445  50.919  41.421  1.00  0.00     0.025 C 
ENDBRANCH   2   4
BRANCH   2  10
HETATM   10  C   UNL     1      34.237  51.193  41.967  1.00  0.00     0.163 C 
BRANCH  10  11
HETATM   11  C   UNL     1      34.059  49.666  41.812  1.00  0.00     0.169 C 
BRANCH  11  12
HETATM   12  O   UNL     1      34.778  49.193  40.668  1.00  0.00    -0.389 OA
HETATM   13  H   UNL     1      35.724  49.308  40.867  1.00  0.00     0.210 HD
ENDBRANCH  11  12
BRANCH  11  14
HETATM   14  C   UNL     1      32.597  49.296  41.650  1.00  0.00    -0.028 A 
HETATM   15  C   UNL     1      31.607  49.993  42.356  1.00  0.00     0.010 A 
HETATM   16  C   UNL     1      30.261  49.654  42.205  1.00  0.00     0.001 A 
HETATM   17  C   UNL     1      29.889  48.621  41.347  1.00  0.00     0.000 A 
HETATM   18  C   UNL     1      30.862  47.926  40.632  1.00  0.00     0.001 A 
HETATM   19  C   UNL     1      32.208  48.263  40.781  1.00  0.00     0.010 A 
ENDBRANCH  11  14
ENDBRANCH  10  11
ENDBRANCH   2  10
BRANCH   1  20
HETATM   20  C   UNL     1      33.246  51.967  39.292  1.00  0.00     0.119 A 
HETATM   21  N   UNL     1      33.025  50.900  38.460  1.00  0.00    -0.273 N 
HETATM   22  N   UNL     1      31.735  50.702  38.149  1.00  0.00    -0.179 NA
HETATM   23  H   UNL     1      33.726  50.275  38.075  1.00  0.00     0.189 HD
HETATM   24  C   UNL     1      31.083  51.589  38.908  1.00  0.00     0.057 A 
HETATM   25  C   UNL     1      31.983  52.401  39.642  1.00  0.00     0.065 A 
BRANCH  24  26
HETATM   26  C   UNL     1      29.591  51.612  38.930  1.00  0.00     0.061 C 
BRANCH  26  27
HETATM   27  C   UNL     1      29.047  52.847  39.650  1.00  0.00     0.002 C 
HETATM   28  C   UNL     1      28.245  52.468  40.884  1.00  0.00     0.005 C 
ENDBRANCH  26  27
ENDBRANCH  24  26
ENDBRANCH   1  20
TORSDOF 8
ENDMDL
MODEL 8
REMARK VINA RESULT:      -7.3      6.946     10.457
REMARK  8 active torsions:
REMARK  status: ('A' for Active; 'I' for Inactive)
REMARK    1  A    between atoms: C_2  and  C_3 
REMARK    2  A    between atoms: C_3  and  C_4 
REMARK    3  A    between atoms: C_8  and  C_9 
REMARK       I    between atoms: C_9  and  N_10 
REMARK    4  A    between atoms: N_10  and  C_11 
REMARK    5  A    between atoms: N_10  and  C_17 
REMARK    6  A    between atoms: C_17  and  C_18 
REMARK    7  A    between atoms: C_18  and  O_19 
REMARK    8  A    between atoms: C_18  and  C_20 
ROOT
HETATM    1  C   UNL     1      21.972  46.660  48.062  1.00  0.00     0.272 C 
HETATM    2  N   UNL     1      20.821  47.438  48.228  1.00  0.00    -0.339 N 
HETATM    3  O   UNL     1      22.022  45.746  47.243  1.00  0.00    -0.266 OA
ENDROOT
BRANCH   2   4
HETATM    4  C   UNL     1      19.638  47.219  47.352  1.00  0.00     0.087 C 
HETATM    5  C   UNL     1      18.389  46.795  48.147  1.00  0.00     0.025 C 
HETATM    6  C   UNL     1      17.384  47.903  48.429  1.00  0.00     0.002 C 
HETATM    7  C   UNL     1      17.044  48.678  47.166  1.00  0.00     0.000 C 
HETATM    8  C   UNL     1      18.282  49.312  46.554  1.00  0.00     0.002 C 
HETATM    9  C   UNL     1      19.396  48.302  46.281  1.00  0.00     0.025 C 
ENDBRANCH   2   4
BRANCH   2  10
HETATM   10  C   UNL     1      20.583  48.293  49.413  1.00  0.00     0.163 C 
BRANCH  10  11
HETATM   11  C   UNL     1      21.117  49.734  49.253  1.00  0.00     0.169 C 
BRANCH  11  12
HETATM   12  O   UNL     1      21.966  50.077  50.353  1.00  0.00    -0.389 OA
HETATM   13  H   UNL     1      22.584  49.333  50.471  1.00  0.00     0.210 HD
ENDBRANCH  11  12
BRANCH  11  14
HETATM   14  C   UNL     1      19.983  50.738  49.188  1.00  0.00    -0.028 A 
HETATM   15  C   UNL     1      18.923  50.671  50.102  1.00  0.00     0.010 A 
HETATM   16  C   UNL     1      17.880  51.597  50.044  1.00  0.00     0.001 A 
HETATM   17  C   UNL     1      17.886  52.601  49.077  1.00  0.00     0.000 A 
HETATM   18  C   UNL     1      18.938  52.685  48.168  1.00  0.00     0.001 A 
HETATM   19  C   UNL     1      19.982  51.761  48.225  1.00  0.00     0.010 A 
ENDBRANCH  11  14
ENDBRANCH  10  11
ENDBRANCH   2  10
BRANCH   1  20
HETATM   20  C   UNL     1      23.131  46.886  48.893  1.00  0.00     0.119 A 
HETATM   21  N   UNL     1      23.502  45.958  49.830  1.00  0.00    -0.273 N 
HETATM   22  N   UNL     1      24.598  46.290  50.531  1.00  0.00    -0.179 NA
HETATM   23  H   UNL     1      23.036  45.079  50.032  1.00  0.00     0.189 HD
HETATM   24  C   UNL     1      25.028  47.409  49.939  1.00  0.00     0.057 A 
HETATM   25  C   UNL     1      24.147  47.821  48.909  1.00  0.00     0.065 A 
BRANCH  24  26
HETATM   26  C   UNL     1      26.309  48.044  50.369  1.00  0.00     0.061 C 
BRANCH  26  27
HETATM   27  C   UNL     1      27.274  48.234  49.197  1.00  0.00     0.002 C 
HETATM   28  C   UNL     1      27.389  49.696  48.797  1.00  0.00     0.005 C 
ENDBRANCH  26  27
ENDBRANCH  24  26
ENDBRANCH   1  20
TORSDOF 8
ENDMDL
MODEL 9
REMARK VINA RESULT:      -7.3     13.748     15.616
REMARK  8 active torsions:
REMARK  status: ('A' for Active; 'I' for Inactive)
REMARK    1  A    between atoms: C_2  and  C_3 
REMARK    2  A    between atoms: C_3  and  C_4 
REMARK    3  A    between atoms: C_8  and  C_9 
REMARK       I    between atoms: C_9  and  N_10 
REMARK    4  A    between atoms: N_10  and  C_11 
REMARK    5  A    between atoms: N_10  and  C_17 
REMARK    6  A    between atoms: C_17  and  C_18 
REMARK    7  A    between atoms: C_18  and  O_19 
REMARK    8  A    between atoms: C_18  and  C_20 
ROOT
HETATM    1  C   UNL     1      33.229  48.890  41.330  1.00  0.00     0.272 C 
HETATM    2  N   UNL     1      31.905  49.335  41.410  1.00  0.00    -0.339 N 
HETATM    3  O   UNL     1      33.504  47.699  41.208  1.00  0.00    -0.266 OA
ENDROOT
BRANCH   2   4
HETATM    4  C   UNL     1      30.781  48.369  41.276  1.00  0.00     0.087 C 
HETATM    5  C   UNL     1      29.656  48.630  42.294  1.00  0.00     0.025 C 
HETATM    6  C   UNL     1      28.449  49.386  41.756  1.00  0.00     0.002 C 
HETATM    7  C   UNL     1      27.941  48.771  40.461  1.00  0.00     0.000 C 
HETATM    8  C   UNL     1      29.015  48.777  39.386  1.00  0.00     0.002 C 
HETATM    9  C   UNL     1      30.309  48.098  39.832  1.00  0.00     0.025 C 
ENDBRANCH   2   4
BRANCH   2  10
HETATM   10  C   UNL     1      31.529  50.679  41.905  1.00  0.00     0.163 C 
BRANCH  10  11
HETATM   11  C   UNL     1      31.859  51.818  40.915  1.00  0.00     0.169 C 
BRANCH  11  12
HETATM   12  O   UNL     1      32.017  53.058  41.613  1.00  0.00    -0.389 OA
HETATM   13  H   UNL     1      32.973  53.238  41.649  1.00  0.00     0.210 HD
ENDBRANCH  11  12
BRANCH  11  14
HETATM   14  C   UNL     1      30.764  51.983  39.879  1.00  0.00    -0.028 A 
HETATM   15  C   UNL     1      31.011  51.682  38.533  1.00  0.00     0.010 A 
HETATM   16  C   UNL     1      30.001  51.831  37.579  1.00  0.00     0.001 A 
HETATM   17  C   UNL     1      28.737  52.277  37.960  1.00  0.00     0.000 A 
HETATM   18  C   UNL     1      28.476  52.570  39.297  1.00  0.00     0.001 A 
HETATM   19  C   UNL     1      29.483  52.421  40.251  1.00  0.00     0.010 A 
ENDBRANCH  11  14
ENDBRANCH  10  11
ENDBRANCH   2  10
BRANCH   1  20
HETATM   20  C   UNL     1      34.321  49.828  41.435  1.00  0.00     0.119 A 
HETATM   21  N   UNL     1      35.025  50.200  40.319  1.00  0.00    -0.273 N 
HETATM   22  N   UNL     1      36.010  51.079  40.557  1.00  0.00    -0.179 NA
HETATM   23  H   UNL     1      34.870  49.878  39.369  1.00  0.00     0.189 HD
HETATM   24  C   UNL     1      35.858  51.389  41.849  1.00  0.00     0.057 A 
HETATM   25  C   UNL     1      34.815  50.635  42.441  1.00  0.00     0.065 A 
BRANCH  24  26
HETATM   26  C   UNL     1      36.713  52.437  42.479  1.00  0.00     0.061 C 
BRANCH  26  27
HETATM   27  C   UNL     1      36.594  52.432  44.004  1.00  0.00     0.002 C 
HETATM   28  C   UNL     1      37.102  53.731  44.609  1.00  0.00     0.005 C 
ENDBRANCH  26  27
ENDBRANCH  24  26
ENDBRANCH   1  20
TORSDOF 8
ENDMDL
MODEL 10
REMARK VINA RESULT:      -7.3     12.598     13.976
REMARK  8 active torsions:
REMARK  status: ('A' for Active; 'I' for Inactive)
REMARK    1  A    between atoms: C_2  and  C_3 
REMARK    2  A    between atoms: C_3  and  C_4 
REMARK    3  A    between atoms: C_8  and  C_9 
REMARK       I    between atoms: C_9  and  N_10 
REMARK    4  A    between atoms: N_10  and  C_11 
REMARK    5  A    between atoms: N_10  and  C_17 
REMARK    6  A    between atoms: C_17  and  C_18 
REMARK    7  A    between atoms: C_18  and  O_19 
REMARK    8  A    between atoms: C_18  and  C_20 
ROOT
HETATM    1  C   UNL     1      27.277  50.146  38.838  1.00  0.00     0.272 C 
HETATM    2  N   UNL     1      28.213  50.757  39.680  1.00  0.00    -0.339 N 
HETATM    3  O   UNL     1      27.031  50.587  37.718  1.00  0.00    -0.266 OA
ENDROOT
BRANCH   2   4
HETATM    4  C   UNL     1      28.994  51.930  39.204  1.00  0.00     0.087 C 
HETATM    5  C   UNL     1      29.046  53.064  40.244  1.00  0.00     0.025 C 
HETATM    6  C   UNL     1      30.325  53.141  41.067  1.00  0.00     0.002 C 
HETATM    7  C   UNL     1      31.559  53.100  40.179  1.00  0.00     0.000 C 
HETATM    8  C   UNL     1      31.606  51.823  39.356  1.00  0.00     0.002 C 
HETATM    9  C   UNL     1      30.341  51.599  38.528  1.00  0.00     0.025 C 
ENDBRANCH   2   4
BRANCH   2  10
HETATM   10  C   UNL     1      28.289  50.493  41.135  1.00  0.00     0.163 C 
BRANCH  10  11
HETATM   11  C   UNL     1      28.903  49.119  41.484  1.00  0.00     0.169 C 
BRANCH  11  12
HETATM   12  O   UNL     1      28.373  48.635  42.722  1.00  0.00    -0.389 OA
HETATM   13  H   UNL     1      27.952  47.778  42.529  1.00  0.00     0.210 HD
ENDBRANCH  11  12
BRANCH  11  14
HETATM   14  C   UNL     1      30.412  49.205  41.604  1.00  0.00    -0.028 A 
HETATM   15  C   UNL     1      31.000  50.043  42.561  1.00  0.00     0.010 A 
HETATM   16  C   UNL     1      32.390  50.119  42.675  1.00  0.00     0.001 A 
HETATM   17  C   UNL     1      33.205  49.358  41.838  1.00  0.00     0.000 A 
HETATM   18  C   UNL     1      32.633  48.514  40.889  1.00  0.00     0.001 A 
HETATM   19  C   UNL     1      31.245  48.436  40.774  1.00  0.00     0.010 A 
ENDBRANCH  11  14
ENDBRANCH  10  11
ENDBRANCH   2  10
BRANCH   1  20
HETATM   20  C   UNL     1      26.535  48.993  39.287  1.00  0.00     0.119 A 
HETATM   21  N   UNL     1      25.309  49.147  39.881  1.00  0.00    -0.273 N 
HETATM   22  N   UNL     1      24.725  47.996  40.248  1.00  0.00    -0.179 NA
HETATM   23  H   UNL     1      24.828  50.023  40.062  1.00  0.00     0.189 HD
HETATM   24  C   UNL     1      25.539  47.055  39.758  1.00  0.00     0.057 A 
HETATM   25  C   UNL     1      26.682  47.627  39.147  1.00  0.00     0.065 A 
BRANCH  24  26
HETATM   26  C   UNL     1      25.174  45.612  39.866  1.00  0.00     0.061 C 
BRANCH  26  27
HETATM   27  C   UNL     1      26.187  44.827  40.702  1.00  0.00     0.002 C 
HETATM   28  C   UNL     1      26.079  45.168  42.179  1.00  0.00     0.005 C 
ENDBRANCH  26  27
ENDBRANCH  24  26
ENDBRANCH   1  20
TORSDOF 8
ENDMDL
