MODEL 1
REMARK VINA RESULT:      -8.5      0.000      0.000
REMARK  6 active torsions:
REMARK  status: ('A' for Active; 'I' for Inactive)
REMARK    1  A    between atoms: C_6  and  C_7 
REMARK       I    between atoms: C_7  and  N_8 
REMARK    2  A    between atoms: N_8  and  C_9 
REMARK    3  A    between atoms: C_9  and  C_10 
REMARK    4  A    between atoms: C_10  and  O_11 
REMARK    5  A    between atoms: C_10  and  C_12 
REMARK    6  A    between atoms: C_15  and  O_16 
ROOT
HETATM    1  C   UNL     1      25.596  44.258  52.384  1.00  0.00     0.258 C 
HETATM    2  N   UNL     1      26.789  43.748  51.921  1.00  0.00    -0.350 N 
HETATM    3  O   UNL     1      24.960  43.750  53.299  1.00  0.00    -0.267 OA
HETATM    4  H   UNL     1      27.274  44.314  51.227  1.00  0.00     0.163 HD
ENDROOT
BRANCH   2   5
HETATM    5  C   UNL     1      27.482  42.628  52.565  1.00  0.00     0.114 C 
HETATM    6  C   UNL     1      27.203  41.326  51.804  1.00  0.00     0.035 C 
BRANCH   5   7
HETATM    7  C   UNL     1      29.005  42.942  52.669  1.00  0.00     0.173 C 
BRANCH   7   8
HETATM    8  O   UNL     1      29.787  41.747  52.553  1.00  0.00    -0.389 OA
HETATM    9  H   UNL     1      29.293  41.142  51.973  1.00  0.00     0.210 HD
ENDBRANCH   7   8
BRANCH   7  10
HETATM   10  C   UNL     1      29.368  43.698  53.930  1.00  0.00    -0.028 A 
HETATM   11  C   UNL     1      30.489  43.303  54.674  1.00  0.00     0.012 A 
HETATM   12  C   UNL     1      30.861  44.001  55.825  1.00  0.00     0.037 A 
HETATM   13  C   UNL     1      30.131  45.111  56.252  1.00  0.00     0.068 A 
HETATM   14  C   UNL     1      29.010  45.507  55.525  1.00  0.00     0.037 A 
HETATM   15  C   UNL     1      28.631  44.805  54.374  1.00  0.00     0.012 A 
BRANCH  13  16
HETATM   16  O   UNL     1      30.610  45.709  57.385  1.00  0.00    -0.356 OA
HETATM   17  C   UNL     1      31.054  44.847  58.424  1.00  0.00     0.210 C 
ENDBRANCH  13  16
ENDBRANCH   7  10
ENDBRANCH   5   7
ENDBRANCH   2   5
BRANCH   1  18
HETATM   18  C   UNL     1      25.158  45.470  51.711  1.00  0.00     0.105 A 
HETATM   19  C   UNL     1      25.476  46.816  52.036  1.00  0.00     0.071 A 
HETATM   20  C   UNL     1      26.322  47.304  53.156  1.00  0.00     0.073 C 
HETATM   21  N   UNL     1      24.915  47.691  51.193  1.00  0.00    -0.170 NA
HETATM   22  N   UNL     1      24.235  46.932  50.307  1.00  0.00    -0.225 N 
HETATM   23  C   UNL     1      24.345  45.568  50.593  1.00  0.00     0.168 A 
HETATM   24  C   UNL     1      23.496  47.365  49.213  1.00  0.00     0.122 A 
HETATM   25  N   UNL     1      23.729  44.609  49.822  1.00  0.00    -0.240 NA
HETATM   26  C   UNL     1      23.048  45.056  48.806  1.00  0.00     0.120 A 
HETATM   27  C   UNL     1      22.878  46.483  48.417  1.00  0.00     0.038 A 
ENDBRANCH   1  18
TORSDOF 6
ENDMDL
MODEL 2
REMARK VINA RESULT:      -8.4      2.499      3.285
REMARK  6 active torsions:
REMARK  status: ('A' for Active; 'I' for Inactive)
REMARK    1  A    between atoms: C_6  and  C_7 
REMARK       I    between atoms: C_7  and  N_8 
REMARK    2  A    between atoms: N_8  and  C_9 
REMARK    3  A    between atoms: C_9  and  C_10 
REMARK    4  A    between atoms: C_10  and  O_11 
REMARK    5  A    between atoms: C_10  and  C_12 
REMARK    6  A    between atoms: C_15  and  O_16 
ROOT
HETATM    1  C   UNL     1      25.670  47.214  50.801  1.00  0.00     0.258 C 
HETATM    2  N   UNL     1      25.531  45.915  50.363  1.00  0.00    -0.350 N 
HETATM    3  O   UNL     1      25.946  47.504  51.959  1.00  0.00    -0.267 OA
HETATM    4  H   UNL     1      25.402  45.798  49.359  1.00  0.00     0.163 HD
ENDROOT
BRANCH   2   5
HETATM    5  C   UNL     1      25.832  44.752  51.202  1.00  0.00     0.114 C 
HETATM    6  C   UNL     1      24.786  43.653  50.975  1.00  0.00     0.035 C 
BRANCH   5   7
HETATM    7  C   UNL     1      27.282  44.260  50.918  1.00  0.00     0.173 C 
BRANCH   7   8
HETATM    8  O   UNL     1      27.281  43.128  50.039  1.00  0.00    -0.389 OA
HETATM    9  H   UNL     1      27.519  43.458  49.155  1.00  0.00     0.210 HD
ENDBRANCH   7   8
BRANCH   7  10
HETATM   10  C   UNL     1      28.060  43.955  52.181  1.00  0.00    -0.028 A 
HETATM   11  C   UNL     1      29.136  43.056  52.130  1.00  0.00     0.012 A 
HETATM   12  C   UNL     1      29.886  42.779  53.275  1.00  0.00     0.037 A 
HETATM   13  C   UNL     1      29.588  43.398  54.489  1.00  0.00     0.068 A 
HETATM   14  C   UNL     1      28.517  44.287  54.553  1.00  0.00     0.037 A 
HETATM   15  C   UNL     1      27.759  44.561  53.409  1.00  0.00     0.012 A 
BRANCH  13  16
HETATM   16  O   UNL     1      30.409  43.048  55.526  1.00  0.00    -0.356 OA
HETATM   17  C   UNL     1      31.096  44.105  56.182  1.00  0.00     0.210 C 
ENDBRANCH  13  16
ENDBRANCH   7  10
ENDBRANCH   5   7
ENDBRANCH   2   5
BRANCH   1  18
HETATM   18  C   UNL     1      25.484  48.222  49.771  1.00  0.00     0.105 A 
HETATM   19  C   UNL     1      26.482  48.925  49.044  1.00  0.00     0.071 A 
HETATM   20  C   UNL     1      27.958  48.807  49.181  1.00  0.00     0.073 C 
HETATM   21  N   UNL     1      25.960  49.775  48.152  1.00  0.00    -0.170 NA
HETATM   22  N   UNL     1      24.623  49.630  48.276  1.00  0.00    -0.225 N 
HETATM   23  C   UNL     1      24.287  48.700  49.264  1.00  0.00     0.168 A 
HETATM   24  C   UNL     1      23.631  50.279  47.551  1.00  0.00     0.122 A 
HETATM   25  N   UNL     1      22.978  48.397  49.565  1.00  0.00    -0.240 NA
HETATM   26  C   UNL     1      22.080  49.025  48.863  1.00  0.00     0.120 A 
HETATM   27  C   UNL     1      22.338  50.023  47.790  1.00  0.00     0.038 A 
ENDBRANCH   1  18
TORSDOF 6
ENDMDL
MODEL 3
REMARK VINA RESULT:      -8.3      2.812      7.162
REMARK  6 active torsions:
REMARK  status: ('A' for Active; 'I' for Inactive)
REMARK    1  A    between atoms: C_6  and  C_7 
REMARK       I    between atoms: C_7  and  N_8 
REMARK    2  A    between atoms: N_8  and  C_9 
REMARK    3  A    between atoms: C_9  and  C_10 
REMARK    4  A    between atoms: C_10  and  O_11 
REMARK    5  A    between atoms: C_10  and  C_12 
REMARK    6  A    between atoms: C_15  and  O_16 
ROOT
HETATM    1  C   UNL     1      29.017  43.707  53.457  1.00  0.00     0.258 C 
HETATM    2  N   UNL     1      27.712  43.371  53.172  1.00  0.00    -0.350 N 
HETATM    3  O   UNL     1      29.963  43.372  52.755  1.00  0.00    -0.267 OA
HETATM    4  H   UNL     1      27.004  43.793  53.772  1.00  0.00     0.163 HD
ENDROOT
BRANCH   2   5
HETATM    5  C   UNL     1      27.312  42.699  51.933  1.00  0.00     0.114 C 
HETATM    6  C   UNL     1      27.355  41.177  52.120  1.00  0.00     0.035 C 
BRANCH   5   7
HETATM    7  C   UNL     1      25.906  43.204  51.490  1.00  0.00     0.173 C 
BRANCH   7   8
HETATM    8  O   UNL     1      25.359  42.371  50.460  1.00  0.00    -0.389 OA
HETATM    9  H   UNL     1      25.899  41.561  50.437  1.00  0.00     0.210 HD
ENDBRANCH   7   8
BRANCH   7  10
HETATM   10  C   UNL     1      25.909  44.656  51.057  1.00  0.00    -0.028 A 
HETATM   11  C   UNL     1      26.811  45.081  50.070  1.00  0.00     0.012 A 
HETATM   12  C   UNL     1      26.814  46.408  49.634  1.00  0.00     0.037 A 
HETATM   13  C   UNL     1      25.915  47.334  50.164  1.00  0.00     0.068 A 
HETATM   14  C   UNL     1      25.020  46.924  51.150  1.00  0.00     0.037 A 
HETATM   15  C   UNL     1      25.019  45.596  51.594  1.00  0.00     0.012 A 
BRANCH  13  16
HETATM   16  O   UNL     1      26.016  48.593  49.640  1.00  0.00    -0.356 OA
HETATM   17  C   UNL     1      27.301  48.993  49.183  1.00  0.00     0.210 C 
ENDBRANCH  13  16
ENDBRANCH   7  10
ENDBRANCH   5   7
ENDBRANCH   2   5
BRANCH   1  18
HETATM   18  C   UNL     1      29.184  44.515  54.654  1.00  0.00     0.105 A 
HETATM   19  C   UNL     1      28.476  45.690  55.023  1.00  0.00     0.071 A 
HETATM   20  C   UNL     1      27.405  46.383  54.259  1.00  0.00     0.073 C 
HETATM   21  N   UNL     1      28.872  46.175  56.205  1.00  0.00    -0.170 NA
HETATM   22  N   UNL     1      29.830  45.321  56.626  1.00  0.00    -0.225 N 
HETATM   23  C   UNL     1      30.063  44.298  55.703  1.00  0.00     0.168 A 
HETATM   24  C   UNL     1      30.545  45.372  57.818  1.00  0.00     0.122 A 
HETATM   25  N   UNL     1      31.002  43.316  55.923  1.00  0.00    -0.240 NA
HETATM   26  C   UNL     1      31.648  43.399  57.050  1.00  0.00     0.120 A 
HETATM   27  C   UNL     1      31.467  44.442  58.096  1.00  0.00     0.038 A 
ENDBRANCH   1  18
TORSDOF 6
ENDMDL
MODEL 4
REMARK VINA RESULT:      -7.8      1.817      3.550
REMARK  6 active torsions:
REMARK  status: ('A' for Active; 'I' for Inactive)
REMARK    1  A    between atoms: C_6  and  C_7 
REMARK       I    between atoms: C_7  and  N_8 
REMARK    2  A    between atoms: N_8  and  C_9 
REMARK    3  A    between atoms: C_9  and  C_10 
REMARK    4  A    between atoms: C_10  and  O_11 
REMARK    5  A    between atoms: C_10  and  C_12 
REMARK    6  A    between atoms: C_15  and  O_16 
ROOT
HETATM    1  C   UNL     1      25.571  46.383  50.646  1.00  0.00     0.258 C 
HETATM    2  N   UNL     1      25.272  46.655  51.963  1.00  0.00    -0.350 N 
HETATM    3  O   UNL     1      26.699  46.100  50.260  1.00  0.00    -0.267 OA
HETATM    4  H   UNL     1      24.283  46.776  52.176  1.00  0.00     0.163 HD
ENDROOT
BRANCH   2   5
HETATM    5  C   UNL     1      26.241  46.502  53.051  1.00  0.00     0.114 C 
HETATM    6  C   UNL     1      25.967  47.533  54.152  1.00  0.00     0.035 C 
BRANCH   5   7
HETATM    7  C   UNL     1      26.207  45.039  53.584  1.00  0.00     0.173 C 
BRANCH   7   8
HETATM    8  O   UNL     1      25.139  44.856  54.522  1.00  0.00    -0.389 OA
HETATM    9  H   UNL     1      24.733  45.730  54.661  1.00  0.00     0.210 HD
ENDBRANCH   7   8
BRANCH   7  10
HETATM   10  C   UNL     1      27.526  44.596  54.182  1.00  0.00    -0.028 A 
HETATM   11  C   UNL     1      28.057  43.345  53.836  1.00  0.00     0.012 A 
HETATM   12  C   UNL     1      29.285  42.926  54.352  1.00  0.00     0.037 A 
HETATM   13  C   UNL     1      30.013  43.747  55.215  1.00  0.00     0.068 A 
HETATM   14  C   UNL     1      29.491  44.988  55.572  1.00  0.00     0.037 A 
HETATM   15  C   UNL     1      28.257  45.408  55.061  1.00  0.00     0.012 A 
BRANCH  13  16
HETATM   16  O   UNL     1      31.203  43.221  55.636  1.00  0.00    -0.356 OA
HETATM   17  C   UNL     1      31.530  43.398  57.008  1.00  0.00     0.210 C 
ENDBRANCH  13  16
ENDBRANCH   7  10
ENDBRANCH   5   7
ENDBRANCH   2   5
BRANCH   1  18
HETATM   18  C   UNL     1      24.432  46.435  49.745  1.00  0.00     0.105 A 
HETATM   19  C   UNL     1      23.819  45.362  49.045  1.00  0.00     0.071 A 
HETATM   20  C   UNL     1      24.212  43.928  49.057  1.00  0.00     0.073 C 
HETATM   21  N   UNL     1      22.774  45.760  48.311  1.00  0.00    -0.170 NA
HETATM   22  N   UNL     1      22.685  47.090  48.529  1.00  0.00    -0.225 N 
HETATM   23  C   UNL     1      23.687  47.548  49.390  1.00  0.00     0.168 A 
HETATM   24  C   UNL     1      21.744  47.972  48.010  1.00  0.00     0.122 A 
HETATM   25  N   UNL     1      23.791  48.873  49.748  1.00  0.00    -0.240 NA
HETATM   26  C   UNL     1      22.891  49.665  49.242  1.00  0.00     0.120 A 
HETATM   27  C   UNL     1      21.785  49.273  48.326  1.00  0.00     0.038 A 
ENDBRANCH   1  18
TORSDOF 6
ENDMDL
MODEL 5
REMARK VINA RESULT:      -7.7      2.645      6.700
REMARK  6 active torsions:
REMARK  status: ('A' for Active; 'I' for Inactive)
REMARK    1  A    between atoms: C_6  and  C_7 
REMARK       I    between atoms: C_7  and  N_8 
REMARK    2  A    between atoms: N_8  and  C_9 
REMARK    3  A    between atoms: C_9  and  C_10 
REMARK    4  A    between atoms: C_10  and  O_11 
REMARK    5  A    between atoms: C_10  and  C_12 
REMARK    6  A    between atoms: C_15  and  O_16 
ROOT
HETATM    1  C   UNL     1      26.405  44.664  53.594  1.00  0.00     0.258 C 
HETATM    2  N   UNL     1      26.601  44.786  52.237  1.00  0.00    -0.350 N 
HETATM    3  O   UNL     1      25.428  44.110  54.083  1.00  0.00    -0.267 OA
HETATM    4  H   UNL     1      27.499  45.175  51.952  1.00  0.00     0.163 HD
ENDROOT
BRANCH   2   5
HETATM    5  C   UNL     1      25.733  44.147  51.243  1.00  0.00     0.114 C 
HETATM    6  C   UNL     1      24.566  45.076  50.887  1.00  0.00     0.035 C 
BRANCH   5   7
HETATM    7  C   UNL     1      26.572  43.741  49.995  1.00  0.00     0.173 C 
BRANCH   7   8
HETATM    8  O   UNL     1      25.797  43.848  48.795  1.00  0.00    -0.389 OA
HETATM    9  H   UNL     1      26.412  44.098  48.084  1.00  0.00     0.210 HD
ENDBRANCH   7   8
BRANCH   7  10
HETATM   10  C   UNL     1      27.180  42.359  50.117  1.00  0.00    -0.028 A 
HETATM   11  C   UNL     1      27.172  41.500  49.007  1.00  0.00     0.012 A 
HETATM   12  C   UNL     1      27.751  40.232  49.085  1.00  0.00     0.037 A 
HETATM   13  C   UNL     1      28.358  39.797  50.264  1.00  0.00     0.068 A 
HETATM   14  C   UNL     1      28.365  40.639  51.375  1.00  0.00     0.037 A 
HETATM   15  C   UNL     1      27.779  41.909  51.301  1.00  0.00     0.012 A 
BRANCH  13  16
HETATM   16  O   UNL     1      28.897  38.542  50.201  1.00  0.00    -0.356 OA
HETATM   17  C   UNL     1      29.839  38.303  49.164  1.00  0.00     0.210 C 
ENDBRANCH  13  16
ENDBRANCH   7  10
ENDBRANCH   5   7
ENDBRANCH   2   5
BRANCH   1  18
HETATM   18  C   UNL     1      27.467  45.230  54.411  1.00  0.00     0.105 A 
HETATM   19  C   UNL     1      27.531  46.527  54.987  1.00  0.00     0.071 A 
HETATM   20  C   UNL     1      26.530  47.621  54.875  1.00  0.00     0.073 C 
HETATM   21  N   UNL     1      28.648  46.715  55.698  1.00  0.00    -0.170 NA
HETATM   22  N   UNL     1      29.318  45.547  55.605  1.00  0.00    -0.225 N 
HETATM   23  C   UNL     1      28.639  44.614  54.816  1.00  0.00     0.168 A 
HETATM   24  C   UNL     1      30.536  45.221  56.192  1.00  0.00     0.122 A 
HETATM   25  N   UNL     1      29.141  43.355  54.581  1.00  0.00    -0.240 NA
HETATM   26  C   UNL     1      30.281  43.089  55.149  1.00  0.00     0.120 A 
HETATM   27  C   UNL     1      31.076  44.009  56.008  1.00  0.00     0.038 A 
ENDBRANCH   1  18
TORSDOF 6
ENDMDL
MODEL 6
REMARK VINA RESULT:      -7.7      2.871      4.498
REMARK  6 active torsions:
REMARK  status: ('A' for Active; 'I' for Inactive)
REMARK    1  A    between atoms: C_6  and  C_7 
REMARK       I    between atoms: C_7  and  N_8 
REMARK    2  A    between atoms: N_8  and  C_9 
REMARK    3  A    between atoms: C_9  and  C_10 
REMARK    4  A    between atoms: C_10  and  O_11 
REMARK    5  A    between atoms: C_10  and  C_12 
REMARK    6  A    between atoms: C_15  and  O_16 
ROOT
HETATM    1  C   UNL     1      24.055  47.677  49.947  1.00  0.00     0.258 C 
HETATM    2  N   UNL     1      23.667  46.380  49.697  1.00  0.00    -0.350 N 
HETATM    3  O   UNL     1      24.810  47.986  50.862  1.00  0.00    -0.267 OA
HETATM    4  H   UNL     1      23.121  46.236  48.849  1.00  0.00     0.163 HD
ENDROOT
BRANCH   2   5
HETATM    5  C   UNL     1      24.223  45.227  50.412  1.00  0.00     0.114 C 
HETATM    6  C   UNL     1      23.417  43.964  50.084  1.00  0.00     0.035 C 
BRANCH   5   7
HETATM    7  C   UNL     1      25.734  45.074  50.069  1.00  0.00     0.173 C 
BRANCH   7   8
HETATM    8  O   UNL     1      25.939  44.059  49.079  1.00  0.00    -0.389 OA
HETATM    9  H   UNL     1      26.678  43.508  49.389  1.00  0.00     0.210 HD
ENDBRANCH   7   8
BRANCH   7  10
HETATM   10  C   UNL     1      26.594  44.812  51.289  1.00  0.00    -0.028 A 
HETATM   11  C   UNL     1      27.704  43.962  51.182  1.00  0.00     0.012 A 
HETATM   12  C   UNL     1      28.528  43.726  52.285  1.00  0.00     0.037 A 
HETATM   13  C   UNL     1      28.269  44.340  53.511  1.00  0.00     0.068 A 
HETATM   14  C   UNL     1      27.164  45.180  53.631  1.00  0.00     0.037 A 
HETATM   15  C   UNL     1      26.333  45.413  52.528  1.00  0.00     0.012 A 
BRANCH  13  16
HETATM   16  O   UNL     1      29.160  44.033  54.503  1.00  0.00    -0.356 OA
HETATM   17  C   UNL     1      29.597  42.682  54.575  1.00  0.00     0.210 C 
ENDBRANCH  13  16
ENDBRANCH   7  10
ENDBRANCH   5   7
ENDBRANCH   2   5
BRANCH   1  18
HETATM   18  C   UNL     1      23.514  48.658  49.021  1.00  0.00     0.105 A 
HETATM   19  C   UNL     1      24.225  49.584  48.212  1.00  0.00     0.071 A 
HETATM   20  C   UNL     1      25.697  49.780  48.136  1.00  0.00     0.073 C 
HETATM   21  N   UNL     1      23.413  50.334  47.459  1.00  0.00    -0.170 NA
HETATM   22  N   UNL     1      22.168  49.902  47.757  1.00  0.00    -0.225 N 
HETATM   23  C   UNL     1      22.182  48.887  48.718  1.00  0.00     0.168 A 
HETATM   24  C   UNL     1      20.966  50.349  47.220  1.00  0.00     0.122 A 
HETATM   25  N   UNL     1      21.024  48.301  49.175  1.00  0.00    -0.240 NA
HETATM   26  C   UNL     1      19.921  48.746  48.647  1.00  0.00     0.120 A 
HETATM   27  C   UNL     1      19.804  49.814  47.617  1.00  0.00     0.038 A 
ENDBRANCH   1  18
TORSDOF 6
ENDMDL
MODEL 7
REMARK VINA RESULT:      -7.5      3.304      5.331
REMARK  6 active torsions:
REMARK  status: ('A' for Active; 'I' for Inactive)
REMARK    1  A    between atoms: C_6  and  C_7 
REMARK       I    between atoms: C_7  and  N_8 
REMARK    2  A    between atoms: N_8  and  C_9 
REMARK    3  A    between atoms: C_9  and  C_10 
REMARK    4  A    between atoms: C_10  and  O_11 
REMARK    5  A    between atoms: C_10  and  C_12 
REMARK    6  A    between atoms: C_15  and  O_16 
ROOT
HETATM    1  C   UNL     1      26.245  46.974  50.339  1.00  0.00     0.258 C 
HETATM    2  N   UNL     1      25.884  47.007  51.668  1.00  0.00    -0.350 N 
HETATM    3  O   UNL     1      26.937  46.087  49.855  1.00  0.00    -0.267 OA
HETATM    4  H   UNL     1      25.223  47.738  51.929  1.00  0.00     0.163 HD
ENDROOT
BRANCH   2   5
HETATM    5  C   UNL     1      26.176  45.918  52.603  1.00  0.00     0.114 C 
HETATM    6  C   UNL     1      26.362  46.474  54.020  1.00  0.00     0.035 C 
BRANCH   5   7
HETATM    7  C   UNL     1      25.050  44.844  52.528  1.00  0.00     0.173 C 
BRANCH   7   8
HETATM    8  O   UNL     1      24.593  44.483  53.837  1.00  0.00    -0.389 OA
HETATM    9  H   UNL     1      25.246  43.861  54.202  1.00  0.00     0.210 HD
ENDBRANCH   7   8
BRANCH   7  10
HETATM   10  C   UNL     1      25.459  43.612  51.746  1.00  0.00    -0.028 A 
HETATM   11  C   UNL     1      26.702  43.014  52.000  1.00  0.00     0.012 A 
HETATM   12  C   UNL     1      27.091  41.862  51.312  1.00  0.00     0.037 A 
HETATM   13  C   UNL     1      26.246  41.278  50.367  1.00  0.00     0.068 A 
HETATM   14  C   UNL     1      25.013  41.868  50.102  1.00  0.00     0.037 A 
HETATM   15  C   UNL     1      24.623  43.027  50.785  1.00  0.00     0.012 A 
BRANCH  13  16
HETATM   16  O   UNL     1      26.743  40.148  49.778  1.00  0.00    -0.356 OA
HETATM   17  C   UNL     1      28.117  39.861  50.003  1.00  0.00     0.210 C 
ENDBRANCH  13  16
ENDBRANCH   7  10
ENDBRANCH   5   7
ENDBRANCH   2   5
BRANCH   1  18
HETATM   18  C   UNL     1      25.719  48.071  49.543  1.00  0.00     0.105 A 
HETATM   19  C   UNL     1      26.436  49.146  48.953  1.00  0.00     0.071 A 
HETATM   20  C   UNL     1      27.897  49.412  49.025  1.00  0.00     0.073 C 
HETATM   21  N   UNL     1      25.640  49.975  48.267  1.00  0.00    -0.170 NA
HETATM   22  N   UNL     1      24.403  49.449  48.392  1.00  0.00    -0.225 N 
HETATM   23  C   UNL     1      24.402  48.291  49.175  1.00  0.00     0.168 A 
HETATM   24  C   UNL     1      23.220  49.928  47.840  1.00  0.00     0.122 A 
HETATM   25  N   UNL     1      23.247  47.590  49.439  1.00  0.00    -0.240 NA
HETATM   26  C   UNL     1      22.163  48.070  48.903  1.00  0.00     0.120 A 
HETATM   27  C   UNL     1      22.063  49.288  48.053  1.00  0.00     0.038 A 
ENDBRANCH   1  18
TORSDOF 6
ENDMDL
MODEL 8
REMARK VINA RESULT:      -7.3      1.820      2.626
REMARK  6 active torsions:
REMARK  status: ('A' for Active; 'I' for Inactive)
REMARK    1  A    between atoms: C_6  and  C_7 
REMARK       I    between atoms: C_7  and  N_8 
REMARK    2  A    between atoms: N_8  and  C_9 
REMARK    3  A    between atoms: C_9  and  C_10 
REMARK    4  A    between atoms: C_10  and  O_11 
REMARK    5  A    between atoms: C_10  and  C_12 
REMARK    6  A    between atoms: C_15  and  O_16 
ROOT
HETATM    1  C   UNL     1      26.145  43.551  50.010  1.00  0.00     0.258 C 
HETATM    2  N   UNL     1      26.026  43.030  51.279  1.00  0.00    -0.350 N 
HETATM    3  O   UNL     1      27.013  43.201  49.220  1.00  0.00    -0.267 OA
HETATM    4  H   UNL     1      25.204  43.325  51.805  1.00  0.00     0.163 HD
ENDROOT
BRANCH   2   5
HETATM    5  C   UNL     1      26.840  41.911  51.762  1.00  0.00     0.114 C 
HETATM    6  C   UNL     1      26.537  40.647  50.947  1.00  0.00     0.035 C 
BRANCH   5   7
HETATM    7  C   UNL     1      28.347  42.299  51.720  1.00  0.00     0.173 C 
BRANCH   7   8
HETATM    8  O   UNL     1      29.168  41.154  51.457  1.00  0.00    -0.389 OA
HETATM    9  H   UNL     1      29.263  41.091  50.490  1.00  0.00     0.210 HD
ENDBRANCH   7   8
BRANCH   7  10
HETATM   10  C   UNL     1      28.810  43.011  52.974  1.00  0.00    -0.028 A 
HETATM   11  C   UNL     1      29.950  42.551  53.650  1.00  0.00     0.012 A 
HETATM   12  C   UNL     1      30.413  43.207  54.792  1.00  0.00     0.037 A 
HETATM   13  C   UNL     1      29.757  44.339  55.279  1.00  0.00     0.068 A 
HETATM   14  C   UNL     1      28.620  44.800  54.620  1.00  0.00     0.037 A 
HETATM   15  C   UNL     1      28.149  44.140  53.478  1.00  0.00     0.012 A 
BRANCH  13  16
HETATM   16  O   UNL     1      30.322  44.891  56.395  1.00  0.00    -0.356 OA
HETATM   17  C   UNL     1      31.280  44.099  57.085  1.00  0.00     0.210 C 
ENDBRANCH  13  16
ENDBRANCH   7  10
ENDBRANCH   5   7
ENDBRANCH   2   5
BRANCH   1  18
HETATM   18  C   UNL     1      25.137  44.543  49.669  1.00  0.00     0.105 A 
HETATM   19  C   UNL     1      23.771  44.326  49.347  1.00  0.00     0.071 A 
HETATM   20  C   UNL     1      23.051  43.028  49.266  1.00  0.00     0.073 C 
HETATM   21  N   UNL     1      23.117  45.467  49.100  1.00  0.00    -0.170 NA
HETATM   22  N   UNL     1      24.041  46.438  49.266  1.00  0.00    -0.225 N 
HETATM   23  C   UNL     1      25.294  45.917  49.602  1.00  0.00     0.168 A 
HETATM   24  C   UNL     1      23.858  47.811  49.145  1.00  0.00     0.122 A 
HETATM   25  N   UNL     1      26.387  46.726  49.815  1.00  0.00    -0.240 NA
HETATM   26  C   UNL     1      26.173  48.004  49.693  1.00  0.00     0.120 A 
HETATM   27  C   UNL     1      24.880  48.653  49.347  1.00  0.00     0.038 A 
ENDBRANCH   1  18
TORSDOF 6
ENDMDL
MODEL 9
REMARK VINA RESULT:      -7.3      2.946      7.824
REMARK  6 active torsions:
REMARK  status: ('A' for Active; 'I' for Inactive)
REMARK    1  A    between atoms: C_6  and  C_7 
REMARK       I    between atoms: C_7  and  N_8 
REMARK    2  A    between atoms: N_8  and  C_9 
REMARK    3  A    between atoms: C_9  and  C_10 
REMARK    4  A    between atoms: C_10  and  O_11 
REMARK    5  A    between atoms: C_10  and  C_12 
REMARK    6  A    between atoms: C_15  and  O_16 
ROOT
HETATM    1  C   UNL     1      26.623  45.436  53.552  1.00  0.00     0.258 C 
HETATM    2  N   UNL     1      27.043  45.031  52.305  1.00  0.00    -0.350 N 
HETATM    3  O   UNL     1      25.448  45.645  53.829  1.00  0.00    -0.267 OA
HETATM    4  H   UNL     1      28.030  44.790  52.226  1.00  0.00     0.163 HD
ENDROOT
BRANCH   2   5
HETATM    5  C   UNL     1      26.116  44.678  51.225  1.00  0.00     0.114 C 
HETATM    6  C   UNL     1      26.840  44.723  49.873  1.00  0.00     0.035 C 
BRANCH   5   7
HETATM    7  C   UNL     1      25.478  43.287  51.513  1.00  0.00     0.173 C 
BRANCH   7   8
HETATM    8  O   UNL     1      26.482  42.310  51.811  1.00  0.00    -0.389 OA
HETATM    9  H   UNL     1      26.060  41.632  52.368  1.00  0.00     0.210 HD
ENDBRANCH   7   8
BRANCH   7  10
HETATM   10  C   UNL     1      24.580  42.806  50.391  1.00  0.00    -0.028 A 
HETATM   11  C   UNL     1      23.430  43.539  50.064  1.00  0.00     0.012 A 
HETATM   12  C   UNL     1      22.601  43.131  49.016  1.00  0.00     0.037 A 
HETATM   13  C   UNL     1      22.906  41.993  48.268  1.00  0.00     0.068 A 
HETATM   14  C   UNL     1      24.042  41.253  48.590  1.00  0.00     0.037 A 
HETATM   15  C   UNL     1      24.871  41.656  49.644  1.00  0.00     0.012 A 
BRANCH  13  16
HETATM   16  O   UNL     1      22.019  41.714  47.265  1.00  0.00    -0.356 OA
HETATM   17  C   UNL     1      21.589  42.811  46.469  1.00  0.00     0.210 C 
ENDBRANCH  13  16
ENDBRANCH   7  10
ENDBRANCH   5   7
ENDBRANCH   2   5
BRANCH   1  18
HETATM   18  C   UNL     1      27.688  45.577  54.531  1.00  0.00     0.105 A 
HETATM   19  C   UNL     1      27.896  46.639  55.452  1.00  0.00     0.071 A 
HETATM   20  C   UNL     1      27.077  47.869  55.620  1.00  0.00     0.073 C 
HETATM   21  N   UNL     1      28.969  46.441  56.226  1.00  0.00    -0.170 NA
HETATM   22  N   UNL     1      29.467  45.251  55.830  1.00  0.00    -0.225 N 
HETATM   23  C   UNL     1      28.723  44.692  54.786  1.00  0.00     0.168 A 
HETATM   24  C   UNL     1      30.574  44.583  56.342  1.00  0.00     0.122 A 
HETATM   25  N   UNL     1      29.053  43.481  54.222  1.00  0.00    -0.240 NA
HETATM   26  C   UNL     1      30.094  42.889  54.730  1.00  0.00     0.120 A 
HETATM   27  C   UNL     1      30.944  43.397  55.841  1.00  0.00     0.038 A 
ENDBRANCH   1  18
TORSDOF 6
ENDMDL
MODEL 10
REMARK VINA RESULT:      -7.2     13.128     15.643
REMARK  6 active torsions:
REMARK  status: ('A' for Active; 'I' for Inactive)
REMARK    1  A    between atoms: C_6  and  C_7 
REMARK       I    between atoms: C_7  and  N_8 
REMARK    2  A    between atoms: N_8  and  C_9 
REMARK    3  A    between atoms: C_9  and  C_10 
REMARK    4  A    between atoms: C_10  and  O_11 
REMARK    5  A    between atoms: C_10  and  C_12 
REMARK    6  A    between atoms: C_15  and  O_16 
ROOT
HETATM    1  C   UNL     1      31.430  51.353  41.735  1.00  0.00     0.258 C 
HETATM    2  N   UNL     1      31.071  52.146  40.667  1.00  0.00    -0.350 N 
HETATM    3  O   UNL     1      30.663  50.562  42.270  1.00  0.00    -0.267 OA
HETATM    4  H   UNL     1      31.823  52.688  40.244  1.00  0.00     0.163 HD
ENDROOT
BRANCH   2   5
HETATM    5  C   UNL     1      29.782  52.025  39.980  1.00  0.00     0.114 C 
HETATM    6  C   UNL     1      29.230  53.416  39.645  1.00  0.00     0.035 C 
BRANCH   5   7
HETATM    7  C   UNL     1      29.941  51.128  38.717  1.00  0.00     0.173 C 
BRANCH   7   8
HETATM    8  O   UNL     1      29.003  51.497  37.700  1.00  0.00    -0.389 OA
HETATM    9  H   UNL     1      29.512  51.922  36.987  1.00  0.00     0.210 HD
ENDBRANCH   7   8
BRANCH   7  10
HETATM   10  C   UNL     1      29.840  49.648  39.026  1.00  0.00    -0.028 A 
HETATM   11  C   UNL     1      28.582  49.078  39.269  1.00  0.00     0.012 A 
HETATM   12  C   UNL     1      28.458  47.711  39.529  1.00  0.00     0.037 A 
HETATM   13  C   UNL     1      29.582  46.885  39.543  1.00  0.00     0.068 A 
HETATM   14  C   UNL     1      30.838  47.442  39.311  1.00  0.00     0.037 A 
HETATM   15  C   UNL     1      30.965  48.813  39.056  1.00  0.00     0.012 A 
BRANCH  13  16
HETATM   16  O   UNL     1      29.320  45.567  39.797  1.00  0.00    -0.356 OA
HETATM   17  C   UNL     1      27.987  45.241  40.171  1.00  0.00     0.210 C 
ENDBRANCH  13  16
ENDBRANCH   7  10
ENDBRANCH   5   7
ENDBRANCH   2   5
BRANCH   1  18
HETATM   18  C   UNL     1      32.809  51.514  42.168  1.00  0.00     0.105 A 
HETATM   19  C   UNL     1      33.291  51.750  43.483  1.00  0.00     0.071 A 
HETATM   20  C   UNL     1      32.493  51.907  44.728  1.00  0.00     0.073 C 
HETATM   21  N   UNL     1      34.625  51.828  43.532  1.00  0.00    -0.170 NA
HETATM   22  N   UNL     1      35.030  51.636  42.258  1.00  0.00    -0.225 N 
HETATM   23  C   UNL     1      33.951  51.452  41.387  1.00  0.00     0.168 A 
HETATM   24  C   UNL     1      36.335  51.602  41.780  1.00  0.00     0.122 A 
HETATM   25  N   UNL     1      34.130  51.243  40.039  1.00  0.00    -0.240 NA
HETATM   26  C   UNL     1      35.366  51.216  39.633  1.00  0.00     0.120 A 
HETATM   27  C   UNL     1      36.577  51.394  40.479  1.00  0.00     0.038 A 
ENDBRANCH   1  18
TORSDOF 6
ENDMDL
