MODEL 1
REMARK VINA RESULT:      -8.3      0.000      0.000
REMARK  2 active torsions:
REMARK  status: ('A' for Active; 'I' for Inactive)
REMARK    1  A    between atoms: C_4  and  C_5 
REMARK    2  A    between atoms: C_11  and  C_12 
ROOT
HETATM    1  C   UNL     1      26.310  44.879  51.939  1.00  0.00     0.098 A 
HETATM    2  N   UNL     1      26.223  46.210  51.733  1.00  0.00    -0.172 NA
HETATM    3  N   UNL     1      25.117  46.378  50.995  1.00  0.00    -0.261 N 
HETATM    4  H   UNL     1      24.863  47.318  50.714  1.00  0.00     0.191 HD
HETATM    5  C   UNL     1      24.493  45.208  50.711  1.00  0.00     0.133 A 
HETATM    6  C   UNL     1      25.214  44.209  51.315  1.00  0.00     0.028 A 
HETATM    7  C   UNL     1      24.810  42.785  51.168  1.00  0.00     0.067 C 
HETATM    8  C   UNL     1      23.368  42.658  50.645  1.00  0.00     0.117 C 
HETATM    9  C   UNL     1      22.890  43.775  49.719  1.00  0.00     0.224 C 
HETATM   10  O   UNL     1      21.993  43.591  48.897  1.00  0.00    -0.273 OA
HETATM   11  N   UNL     1      23.393  45.038  49.917  1.00  0.00    -0.312 N 
HETATM   12  H   UNL     1      22.988  45.790  49.373  1.00  0.00     0.170 HD
ENDROOT
BRANCH   7  13
HETATM   13  C   UNL     1      25.818  42.079  50.274  1.00  0.00    -0.046 A 
HETATM   14  C   UNL     1      26.610  41.064  50.852  1.00  0.00     0.047 A 
HETATM   15  C   UNL     1      27.501  40.381  50.052  1.00  0.00     0.105 A 
HETATM   16  C   UNL     1      27.639  40.663  48.716  1.00  0.00     0.105 A 
HETATM   17  O   UNL     1      28.321  39.375  50.458  1.00  0.00    -0.323 OA
HETATM   18  O   UNL     1      28.568  39.877  48.111  1.00  0.00    -0.323 OA
HETATM   19  C   UNL     1      26.884  41.639  48.104  1.00  0.00     0.040 A 
HETATM   20  C   UNL     1      28.987  39.054  49.219  1.00  0.00     0.352 A 
HETATM   21  C   UNL     1      25.959  42.340  48.888  1.00  0.00     0.011 A 
ENDBRANCH   7  13
BRANCH   1  22
HETATM   22  C   UNL     1      27.455  44.318  52.662  1.00  0.00    -0.005 A 
HETATM   23  C   UNL     1      28.517  43.695  51.997  1.00  0.00     0.014 A 
HETATM   24  C   UNL     1      29.608  43.193  52.713  1.00  0.00     0.001 A 
HETATM   25  C   UNL     1      29.642  43.298  54.103  1.00  0.00     0.000 A 
HETATM   26  C   UNL     1      28.584  43.898  54.780  1.00  0.00     0.001 A 
HETATM   27  C   UNL     1      27.497  44.403  54.063  1.00  0.00     0.014 A 
ENDBRANCH   1  22
TORSDOF 2
ENDMDL
MODEL 2
REMARK VINA RESULT:      -8.2     17.482     19.090
REMARK  2 active torsions:
REMARK  status: ('A' for Active; 'I' for Inactive)
REMARK    1  A    between atoms: C_4  and  C_5 
REMARK    2  A    between atoms: C_11  and  C_12 
ROOT
HETATM    1  C   UNL     1      36.840  42.573  64.876  1.00  0.00     0.098 A 
HETATM    2  N   UNL     1      35.883  42.140  65.723  1.00  0.00    -0.172 NA
HETATM    3  N   UNL     1      35.277  43.251  66.164  1.00  0.00    -0.261 N 
HETATM    4  H   UNL     1      34.518  43.155  66.829  1.00  0.00     0.191 HD
HETATM    5  C   UNL     1      35.811  44.382  65.640  1.00  0.00     0.133 A 
HETATM    6  C   UNL     1      36.813  43.998  64.786  1.00  0.00     0.028 A 
HETATM    7  C   UNL     1      37.629  45.012  64.068  1.00  0.00     0.067 C 
HETATM    8  C   UNL     1      36.964  46.400  64.101  1.00  0.00     0.117 C 
HETATM    9  C   UNL     1      36.121  46.709  65.336  1.00  0.00     0.224 C 
HETATM   10  O   UNL     1      35.925  47.866  65.708  1.00  0.00    -0.273 OA
HETATM   11  N   UNL     1      35.468  45.669  65.951  1.00  0.00    -0.312 N 
HETATM   12  H   UNL     1      34.826  45.900  66.699  1.00  0.00     0.170 HD
ENDROOT
BRANCH   7  13
HETATM   13  C   UNL     1      39.031  45.025  64.662  1.00  0.00    -0.046 A 
HETATM   14  C   UNL     1      40.117  45.199  63.779  1.00  0.00     0.047 A 
HETATM   15  C   UNL     1      41.392  45.256  64.298  1.00  0.00     0.105 A 
HETATM   16  C   UNL     1      41.632  45.145  65.645  1.00  0.00     0.105 A 
HETATM   17  O   UNL     1      42.534  45.430  63.579  1.00  0.00    -0.323 OA
HETATM   18  O   UNL     1      42.955  45.227  65.947  1.00  0.00    -0.323 OA
HETATM   19  C   UNL     1      40.606  44.981  66.548  1.00  0.00     0.040 A 
HETATM   20  C   UNL     1      43.519  45.421  64.633  1.00  0.00     0.352 A 
HETATM   21  C   UNL     1      39.296  44.934  66.051  1.00  0.00     0.011 A 
ENDBRANCH   7  13
BRANCH   1  22
HETATM   22  C   UNL     1      37.759  41.618  64.252  1.00  0.00    -0.005 A 
HETATM   23  C   UNL     1      38.262  41.810  62.960  1.00  0.00     0.014 A 
HETATM   24  C   UNL     1      39.158  40.893  62.403  1.00  0.00     0.001 A 
HETATM   25  C   UNL     1      39.552  39.768  63.126  1.00  0.00     0.000 A 
HETATM   26  C   UNL     1      39.047  39.555  64.405  1.00  0.00     0.001 A 
HETATM   27  C   UNL     1      38.155  40.473  64.963  1.00  0.00     0.014 A 
ENDBRANCH   1  22
TORSDOF 2
ENDMDL
MODEL 3
REMARK VINA RESULT:      -8.1     12.412     14.311
REMARK  2 active torsions:
REMARK  status: ('A' for Active; 'I' for Inactive)
REMARK    1  A    between atoms: C_4  and  C_5 
REMARK    2  A    between atoms: C_11  and  C_12 
ROOT
HETATM    1  C   UNL     1      31.533  48.201  41.252  1.00  0.00     0.098 A 
HETATM    2  N   UNL     1      32.615  47.544  40.785  1.00  0.00    -0.172 NA
HETATM    3  N   UNL     1      33.667  48.258  41.209  1.00  0.00    -0.261 N 
HETATM    4  H   UNL     1      34.597  47.942  40.959  1.00  0.00     0.191 HD
HETATM    5  C   UNL     1      33.305  49.352  41.923  1.00  0.00     0.133 A 
HETATM    6  C   UNL     1      31.935  49.351  41.997  1.00  0.00     0.028 A 
HETATM    7  C   UNL     1      31.211  50.448  42.692  1.00  0.00     0.067 C 
HETATM    8  C   UNL     1      32.155  51.270  43.588  1.00  0.00     0.117 C 
HETATM    9  C   UNL     1      33.603  51.376  43.115  1.00  0.00     0.224 C 
HETATM   10  O   UNL     1      34.320  52.321  43.443  1.00  0.00    -0.273 OA
HETATM   11  N   UNL     1      34.136  50.317  42.421  1.00  0.00    -0.312 N 
HETATM   12  H   UNL     1      35.126  50.350  42.210  1.00  0.00     0.170 HD
ENDROOT
BRANCH   7  13
HETATM   13  C   UNL     1      30.502  51.305  41.652  1.00  0.00    -0.046 A 
HETATM   14  C   UNL     1      30.877  51.143  40.302  1.00  0.00     0.047 A 
HETATM   15  C   UNL     1      30.221  51.878  39.338  1.00  0.00     0.105 A 
HETATM   16  C   UNL     1      29.219  52.759  39.657  1.00  0.00     0.105 A 
HETATM   17  O   UNL     1      30.460  51.824  38.001  1.00  0.00    -0.323 OA
HETATM   18  O   UNL     1      28.704  53.380  38.562  1.00  0.00    -0.323 OA
HETATM   19  C   UNL     1      28.812  52.947  40.958  1.00  0.00     0.040 A 
HETATM   20  C   UNL     1      29.488  52.772  37.515  1.00  0.00     0.352 A 
HETATM   21  C   UNL     1      29.451  52.204  41.959  1.00  0.00     0.011 A 
ENDBRANCH   7  13
BRANCH   1  22
HETATM   22  C   UNL     1      30.185  47.734  40.915  1.00  0.00    -0.005 A 
HETATM   23  C   UNL     1      29.058  48.143  41.637  1.00  0.00     0.014 A 
HETATM   24  C   UNL     1      27.782  47.700  41.273  1.00  0.00     0.001 A 
HETATM   25  C   UNL     1      27.622  46.835  40.192  1.00  0.00     0.000 A 
HETATM   26  C   UNL     1      28.735  46.406  39.476  1.00  0.00     0.001 A 
HETATM   27  C   UNL     1      30.008  46.852  39.837  1.00  0.00     0.014 A 
ENDBRANCH   1  22
TORSDOF 2
ENDMDL
MODEL 4
REMARK VINA RESULT:      -8.0      6.974      9.307
REMARK  2 active torsions:
REMARK  status: ('A' for Active; 'I' for Inactive)
REMARK    1  A    between atoms: C_4  and  C_5 
REMARK    2  A    between atoms: C_11  and  C_12 
ROOT
HETATM    1  C   UNL     1      19.683  47.188  47.688  1.00  0.00     0.098 A 
HETATM    2  N   UNL     1      18.730  46.558  48.407  1.00  0.00    -0.172 NA
HETATM    3  N   UNL     1      18.253  47.489  49.246  1.00  0.00    -0.261 N 
HETATM    4  H   UNL     1      17.521  47.223  49.895  1.00  0.00     0.191 HD
HETATM    5  C   UNL     1      18.867  48.689  49.101  1.00  0.00     0.133 A 
HETATM    6  C   UNL     1      19.787  48.554  48.093  1.00  0.00     0.028 A 
HETATM    7  C   UNL     1      20.661  49.692  47.704  1.00  0.00     0.067 C 
HETATM    8  C   UNL     1      20.132  51.027  48.261  1.00  0.00     0.117 C 
HETATM    9  C   UNL     1      19.382  50.948  49.588  1.00  0.00     0.224 C 
HETATM   10  O   UNL     1      19.313  51.914  50.348  1.00  0.00    -0.273 OA
HETATM   11  N   UNL     1      18.663  49.809  49.859  1.00  0.00    -0.312 N 
HETATM   12  H   UNL     1      18.081  49.812  50.688  1.00  0.00     0.170 HD
ENDROOT
BRANCH   7  13
HETATM   13  C   UNL     1      22.084  49.396  48.157  1.00  0.00    -0.046 A 
HETATM   14  C   UNL     1      23.132  50.104  47.533  1.00  0.00     0.047 A 
HETATM   15  C   UNL     1      24.426  49.883  47.955  1.00  0.00     0.105 A 
HETATM   16  C   UNL     1      24.718  48.994  48.960  1.00  0.00     0.105 A 
HETATM   17  O   UNL     1      25.536  50.494  47.462  1.00  0.00    -0.323 OA
HETATM   18  O   UNL     1      26.050  48.926  49.223  1.00  0.00    -0.323 OA
HETATM   19  C   UNL     1      23.730  48.285  49.605  1.00  0.00     0.040 A 
HETATM   20  C   UNL     1      26.561  49.889  48.278  1.00  0.00     0.352 A 
HETATM   21  C   UNL     1      22.403  48.499  49.207  1.00  0.00     0.011 A 
ENDBRANCH   7  13
BRANCH   1  22
HETATM   22  C   UNL     1      20.477  46.445  46.706  1.00  0.00    -0.005 A 
HETATM   23  C   UNL     1      20.148  46.430  45.346  1.00  0.00     0.014 A 
HETATM   24  C   UNL     1      20.942  45.733  44.430  1.00  0.00     0.001 A 
HETATM   25  C   UNL     1      22.066  45.034  44.866  1.00  0.00     0.000 A 
HETATM   26  C   UNL     1      22.396  45.024  46.218  1.00  0.00     0.001 A 
HETATM   27  C   UNL     1      21.605  45.725  47.132  1.00  0.00     0.014 A 
ENDBRANCH   1  22
TORSDOF 2
ENDMDL
MODEL 5
REMARK VINA RESULT:      -8.0      8.423     12.018
REMARK  2 active torsions:
REMARK  status: ('A' for Active; 'I' for Inactive)
REMARK    1  A    between atoms: C_4  and  C_5 
REMARK    2  A    between atoms: C_11  and  C_12 
ROOT
HETATM    1  C   UNL     1      18.434  50.433  49.799  1.00  0.00     0.098 A 
HETATM    2  N   UNL     1      18.382  49.659  50.903  1.00  0.00    -0.172 NA
HETATM    3  N   UNL     1      19.497  48.916  50.861  1.00  0.00    -0.261 N 
HETATM    4  H   UNL     1      19.658  48.246  51.605  1.00  0.00     0.191 HD
HETATM    5  C   UNL     1      20.259  49.175  49.770  1.00  0.00     0.133 A 
HETATM    6  C   UNL     1      19.625  50.163  49.060  1.00  0.00     0.028 A 
HETATM    7  C   UNL     1      20.191  50.658  47.777  1.00  0.00     0.067 C 
HETATM    8  C   UNL     1      21.662  50.235  47.607  1.00  0.00     0.117 C 
HETATM    9  C   UNL     1      22.056  48.909  48.252  1.00  0.00     0.224 C 
HETATM   10  O   UNL     1      23.006  48.247  47.835  1.00  0.00    -0.273 OA
HETATM   11  N   UNL     1      21.407  48.531  49.403  1.00  0.00    -0.312 N 
HETATM   12  H   UNL     1      21.752  47.707  49.882  1.00  0.00     0.170 HD
ENDROOT
BRANCH   7  13
HETATM   13  C   UNL     1      19.311  50.175  46.633  1.00  0.00    -0.046 A 
HETATM   14  C   UNL     1      19.108  48.785  46.503  1.00  0.00     0.047 A 
HETATM   15  C   UNL     1      18.281  48.326  45.500  1.00  0.00     0.105 A 
HETATM   16  C   UNL     1      17.655  49.182  44.629  1.00  0.00     0.105 A 
HETATM   17  O   UNL     1      17.980  47.023  45.255  1.00  0.00    -0.323 OA
HETATM   18  O   UNL     1      16.886  48.528  43.719  1.00  0.00    -0.323 OA
HETATM   19  C   UNL     1      17.816  50.546  44.719  1.00  0.00     0.040 A 
HETATM   20  C   UNL     1      17.087  47.160  44.130  1.00  0.00     0.352 A 
HETATM   21  C   UNL     1      18.639  51.044  45.738  1.00  0.00     0.011 A 
ENDBRANCH   7  13
BRANCH   1  22
HETATM   22  C   UNL     1      17.325  51.336  49.479  1.00  0.00    -0.005 A 
HETATM   23  C   UNL     1      17.222  52.612  50.045  1.00  0.00     0.014 A 
HETATM   24  C   UNL     1      16.165  53.460  49.699  1.00  0.00     0.001 A 
HETATM   25  C   UNL     1      15.194  53.037  48.793  1.00  0.00     0.000 A 
HETATM   26  C   UNL     1      15.273  51.763  48.236  1.00  0.00     0.001 A 
HETATM   27  C   UNL     1      16.331  50.919  48.578  1.00  0.00     0.014 A 
ENDBRANCH   1  22
TORSDOF 2
ENDMDL
MODEL 6
REMARK VINA RESULT:      -8.0      2.205      4.758
REMARK  2 active torsions:
REMARK  status: ('A' for Active; 'I' for Inactive)
REMARK    1  A    between atoms: C_4  and  C_5 
REMARK    2  A    between atoms: C_11  and  C_12 
ROOT
HETATM    1  C   UNL     1      24.943  42.891  49.342  1.00  0.00     0.098 A 
HETATM    2  N   UNL     1      23.625  42.632  49.208  1.00  0.00    -0.172 NA
HETATM    3  N   UNL     1      23.019  43.819  49.355  1.00  0.00    -0.261 N 
HETATM    4  H   UNL     1      22.008  43.854  49.299  1.00  0.00     0.191 HD
HETATM    5  C   UNL     1      23.893  44.829  49.586  1.00  0.00     0.133 A 
HETATM    6  C   UNL     1      25.153  44.285  49.568  1.00  0.00     0.028 A 
HETATM    7  C   UNL     1      26.349  45.131  49.824  1.00  0.00     0.067 C 
HETATM    8  C   UNL     1      26.018  46.630  49.701  1.00  0.00     0.117 C 
HETATM    9  C   UNL     1      24.596  47.035  50.081  1.00  0.00     0.224 C 
HETATM   10  O   UNL     1      24.332  48.174  50.464  1.00  0.00    -0.273 OA
HETATM   11  N   UNL     1      23.584  46.133  49.855  1.00  0.00    -0.312 N 
HETATM   12  H   UNL     1      22.635  46.452  50.006  1.00  0.00     0.170 HD
ENDROOT
BRANCH   7  13
HETATM   13  C   UNL     1      26.922  44.771  51.187  1.00  0.00    -0.046 A 
HETATM   14  C   UNL     1      28.073  43.956  51.221  1.00  0.00     0.047 A 
HETATM   15  C   UNL     1      28.634  43.651  52.443  1.00  0.00     0.105 A 
HETATM   16  C   UNL     1      28.103  44.115  53.620  1.00  0.00     0.105 A 
HETATM   17  O   UNL     1      29.745  42.891  52.637  1.00  0.00    -0.323 OA
HETATM   18  O   UNL     1      28.806  43.700  54.707  1.00  0.00    -0.323 OA
HETATM   19  C   UNL     1      26.986  44.918  53.639  1.00  0.00     0.040 A 
HETATM   20  C   UNL     1      29.853  42.935  54.075  1.00  0.00     0.352 A 
HETATM   21  C   UNL     1      26.401  45.258  52.412  1.00  0.00     0.011 A 
ENDBRANCH   7  13
BRANCH   1  22
HETATM   22  C   UNL     1      25.916  41.796  49.307  1.00  0.00    -0.005 A 
HETATM   23  C   UNL     1      26.922  41.730  48.337  1.00  0.00     0.014 A 
HETATM   24  C   UNL     1      27.853  40.686  48.348  1.00  0.00     0.001 A 
HETATM   25  C   UNL     1      27.779  39.691  49.321  1.00  0.00     0.000 A 
HETATM   26  C   UNL     1      26.772  39.733  50.281  1.00  0.00     0.001 A 
HETATM   27  C   UNL     1      25.846  40.779  50.273  1.00  0.00     0.014 A 
ENDBRANCH   1  22
TORSDOF 2
ENDMDL
MODEL 7
REMARK VINA RESULT:      -7.9      9.895     12.319
REMARK  2 active torsions:
REMARK  status: ('A' for Active; 'I' for Inactive)
REMARK    1  A    between atoms: C_4  and  C_5 
REMARK    2  A    between atoms: C_11  and  C_12 
ROOT
HETATM    1  C   UNL     1      19.441  48.327  48.425  1.00  0.00     0.098 A 
HETATM    2  N   UNL     1      19.429  47.134  49.056  1.00  0.00    -0.172 NA
HETATM    3  N   UNL     1      18.234  46.598  48.767  1.00  0.00    -0.261 N 
HETATM    4  H   UNL     1      18.008  45.689  49.154  1.00  0.00     0.191 HD
HETATM    5  C   UNL     1      17.475  47.402  47.983  1.00  0.00     0.133 A 
HETATM    6  C   UNL     1      18.216  48.525  47.717  1.00  0.00     0.028 A 
HETATM    7  C   UNL     1      17.652  49.632  46.901  1.00  0.00     0.067 C 
HETATM    8  C   UNL     1      16.398  49.183  46.128  1.00  0.00     0.117 C 
HETATM    9  C   UNL     1      15.550  48.104  46.797  1.00  0.00     0.224 C 
HETATM   10  O   UNL     1      14.350  47.984  46.551  1.00  0.00    -0.273 OA
HETATM   11  N   UNL     1      16.186  47.176  47.585  1.00  0.00    -0.312 N 
HETATM   12  H   UNL     1      15.632  46.403  47.933  1.00  0.00     0.170 HD
ENDROOT
BRANCH   7  13
HETATM   13  C   UNL     1      17.379  50.822  47.810  1.00  0.00    -0.046 A 
HETATM   14  C   UNL     1      16.110  50.905  48.421  1.00  0.00     0.047 A 
HETATM   15  C   UNL     1      15.854  51.952  49.280  1.00  0.00     0.105 A 
HETATM   16  C   UNL     1      16.797  52.911  49.554  1.00  0.00     0.105 A 
HETATM   17  O   UNL     1      14.690  52.161  49.950  1.00  0.00    -0.323 OA
HETATM   18  O   UNL     1      16.344  53.852  50.425  1.00  0.00    -0.323 OA
HETATM   19  C   UNL     1      18.051  52.871  48.989  1.00  0.00     0.040 A 
HETATM   20  C   UNL     1      15.012  53.362  50.682  1.00  0.00     0.352 A 
HETATM   21  C   UNL     1      18.346  51.810  48.122  1.00  0.00     0.011 A 
ENDBRANCH   7  13
BRANCH   1  22
HETATM   22  C   UNL     1      20.583  49.231  48.580  1.00  0.00    -0.005 A 
HETATM   23  C   UNL     1      21.513  49.431  47.554  1.00  0.00     0.014 A 
HETATM   24  C   UNL     1      22.578  50.321  47.723  1.00  0.00     0.001 A 
HETATM   25  C   UNL     1      22.731  51.011  48.925  1.00  0.00     0.000 A 
HETATM   26  C   UNL     1      21.824  50.809  49.961  1.00  0.00     0.001 A 
HETATM   27  C   UNL     1      20.758  49.923  49.789  1.00  0.00     0.014 A 
ENDBRANCH   1  22
TORSDOF 2
ENDMDL
MODEL 8
REMARK VINA RESULT:      -7.8     11.728     13.301
REMARK  2 active torsions:
REMARK  status: ('A' for Active; 'I' for Inactive)
REMARK    1  A    between atoms: C_4  and  C_5 
REMARK    2  A    between atoms: C_11  and  C_12 
ROOT
HETATM    1  C   UNL     1      27.060  50.056  38.809  1.00  0.00     0.098 A 
HETATM    2  N   UNL     1      26.493  50.120  37.587  1.00  0.00    -0.172 NA
HETATM    3  N   UNL     1      26.012  48.890  37.360  1.00  0.00    -0.261 N 
HETATM    4  H   UNL     1      25.544  48.710  36.479  1.00  0.00     0.191 HD
HETATM    5  C   UNL     1      26.254  48.035  38.384  1.00  0.00     0.133 A 
HETATM    6  C   UNL     1      26.913  48.745  39.355  1.00  0.00     0.028 A 
HETATM    7  C   UNL     1      27.358  48.083  40.610  1.00  0.00     0.067 C 
HETATM    8  C   UNL     1      26.660  46.725  40.811  1.00  0.00     0.117 C 
HETATM    9  C   UNL     1      26.289  45.968  39.538  1.00  0.00     0.224 C 
HETATM   10  O   UNL     1      26.164  44.744  39.530  1.00  0.00    -0.273 OA
HETATM   11  N   UNL     1      25.962  46.700  38.422  1.00  0.00    -0.312 N 
HETATM   12  H   UNL     1      25.612  46.191  37.619  1.00  0.00     0.170 HD
ENDROOT
BRANCH   7  13
HETATM   13  C   UNL     1      28.875  47.960  40.590  1.00  0.00    -0.046 A 
HETATM   14  C   UNL     1      29.609  48.729  41.517  1.00  0.00     0.047 A 
HETATM   15  C   UNL     1      30.981  48.603  41.545  1.00  0.00     0.105 A 
HETATM   16  C   UNL     1      31.648  47.756  40.697  1.00  0.00     0.105 A 
HETATM   17  O   UNL     1      31.821  49.266  42.386  1.00  0.00    -0.323 OA
HETATM   18  O   UNL     1      32.994  47.781  40.889  1.00  0.00    -0.323 OA
HETATM   19  C   UNL     1      30.977  46.979  39.780  1.00  0.00     0.040 A 
HETATM   20  C   UNL     1      33.095  48.731  41.969  1.00  0.00     0.352 A 
HETATM   21  C   UNL     1      29.580  47.074  39.737  1.00  0.00     0.011 A 
ENDBRANCH   7  13
BRANCH   1  22
HETATM   22  C   UNL     1      27.759  51.221  39.360  1.00  0.00    -0.005 A 
HETATM   23  C   UNL     1      27.642  51.587  40.705  1.00  0.00     0.014 A 
HETATM   24  C   UNL     1      28.343  52.689  41.205  1.00  0.00     0.001 A 
HETATM   25  C   UNL     1      29.158  53.443  40.363  1.00  0.00     0.000 A 
HETATM   26  C   UNL     1      29.269  53.102  39.018  1.00  0.00     0.001 A 
HETATM   27  C   UNL     1      28.573  51.999  38.520  1.00  0.00     0.014 A 
ENDBRANCH   1  22
TORSDOF 2
ENDMDL
MODEL 9
REMARK VINA RESULT:      -7.5      3.568      5.390
REMARK  2 active torsions:
REMARK  status: ('A' for Active; 'I' for Inactive)
REMARK    1  A    between atoms: C_4  and  C_5 
REMARK    2  A    between atoms: C_11  and  C_12 
ROOT
HETATM    1  C   UNL     1      25.908  47.996  49.565  1.00  0.00     0.098 A 
HETATM    2  N   UNL     1      26.852  48.779  49.003  1.00  0.00    -0.172 NA
HETATM    3  N   UNL     1      26.172  49.721  48.335  1.00  0.00    -0.261 N 
HETATM    4  H   UNL     1      26.695  50.421  47.822  1.00  0.00     0.191 HD
HETATM    5  C   UNL     1      24.828  49.570  48.438  1.00  0.00     0.133 A 
HETATM    6  C   UNL     1      24.604  48.480  49.240  1.00  0.00     0.028 A 
HETATM    7  C   UNL     1      23.220  48.021  49.529  1.00  0.00     0.067 C 
HETATM    8  C   UNL     1      22.181  49.100  49.174  1.00  0.00     0.117 C 
HETATM    9  C   UNL     1      22.544  50.023  48.013  1.00  0.00     0.224 C 
HETATM   10  O   UNL     1      21.678  50.590  47.347  1.00  0.00    -0.273 OA
HETATM   11  N   UNL     1      23.870  50.317  47.811  1.00  0.00    -0.312 N 
HETATM   12  H   UNL     1      24.090  51.015  47.110  1.00  0.00     0.170 HD
ENDROOT
BRANCH   7  13
HETATM   13  C   UNL     1      22.974  46.711  48.793  1.00  0.00    -0.046 A 
HETATM   14  C   UNL     1      23.367  45.516  49.430  1.00  0.00     0.047 A 
HETATM   15  C   UNL     1      23.116  44.315  48.801  1.00  0.00     0.105 A 
HETATM   16  C   UNL     1      22.499  44.254  47.577  1.00  0.00     0.105 A 
HETATM   17  O   UNL     1      23.424  43.084  49.292  1.00  0.00    -0.323 OA
HETATM   18  O   UNL     1      22.347  42.977  47.135  1.00  0.00    -0.323 OA
HETATM   19  C   UNL     1      22.091  45.391  46.918  1.00  0.00     0.040 A 
HETATM   20  C   UNL     1      22.924  42.241  48.233  1.00  0.00     0.352 A 
HETATM   21  C   UNL     1      22.319  46.626  47.539  1.00  0.00     0.011 A 
ENDBRANCH   7  13
BRANCH   1  22
HETATM   22  C   UNL     1      26.296  46.804  50.325  1.00  0.00    -0.005 A 
HETATM   23  C   UNL     1      26.942  45.720  49.722  1.00  0.00     0.014 A 
HETATM   24  C   UNL     1      27.323  44.608  50.481  1.00  0.00     0.001 A 
HETATM   25  C   UNL     1      27.050  44.564  51.847  1.00  0.00     0.000 A 
HETATM   26  C   UNL     1      26.391  45.628  52.457  1.00  0.00     0.001 A 
HETATM   27  C   UNL     1      26.015  46.740  51.700  1.00  0.00     0.014 A 
ENDBRANCH   1  22
TORSDOF 2
ENDMDL
MODEL 10
REMARK VINA RESULT:      -7.5      2.336      3.469
REMARK  2 active torsions:
REMARK  status: ('A' for Active; 'I' for Inactive)
REMARK    1  A    between atoms: C_4  and  C_5 
REMARK    2  A    between atoms: C_11  and  C_12 
ROOT
HETATM    1  C   UNL     1      26.100  46.995  51.962  1.00  0.00     0.098 A 
HETATM    2  N   UNL     1      26.500  47.827  50.978  1.00  0.00    -0.172 NA
HETATM    3  N   UNL     1      26.025  47.286  49.848  1.00  0.00    -0.261 N 
HETATM    4  H   UNL     1      26.220  47.753  48.970  1.00  0.00     0.191 HD
HETATM    5  C   UNL     1      25.342  46.135  50.065  1.00  0.00     0.133 A 
HETATM    6  C   UNL     1      25.344  45.912  51.418  1.00  0.00     0.028 A 
HETATM    7  C   UNL     1      24.700  44.700  51.990  1.00  0.00     0.067 C 
HETATM    8  C   UNL     1      23.760  44.027  50.974  1.00  0.00     0.117 C 
HETATM    9  C   UNL     1      24.152  44.166  49.505  1.00  0.00     0.224 C 
HETATM   10  O   UNL     1      23.793  43.344  48.662  1.00  0.00    -0.273 OA
HETATM   11  N   UNL     1      24.807  45.309  49.115  1.00  0.00    -0.312 N 
HETATM   12  H   UNL     1      24.963  45.441  48.123  1.00  0.00     0.170 HD
ENDROOT
BRANCH   7  13
HETATM   13  C   UNL     1      25.785  43.758  52.493  1.00  0.00    -0.046 A 
HETATM   14  C   UNL     1      26.392  42.897  51.555  1.00  0.00     0.047 A 
HETATM   15  C   UNL     1      27.406  42.064  51.978  1.00  0.00     0.105 A 
HETATM   16  C   UNL     1      27.836  42.051  53.282  1.00  0.00     0.105 A 
HETATM   17  O   UNL     1      28.093  41.190  51.195  1.00  0.00    -0.323 OA
HETATM   18  O   UNL     1      28.843  41.161  53.488  1.00  0.00    -0.323 OA
HETATM   19  C   UNL     1      27.281  42.877  54.232  1.00  0.00     0.040 A 
HETATM   20  C   UNL     1      29.009  40.628  52.158  1.00  0.00     0.352 A 
HETATM   21  C   UNL     1      26.258  43.746  53.829  1.00  0.00     0.011 A 
ENDBRANCH   7  13
BRANCH   1  22
HETATM   22  C   UNL     1      26.508  47.242  53.348  1.00  0.00    -0.005 A 
HETATM   23  C   UNL     1      27.683  46.702  53.882  1.00  0.00     0.014 A 
HETATM   24  C   UNL     1      28.057  46.978  55.200  1.00  0.00     0.001 A 
HETATM   25  C   UNL     1      27.255  47.789  56.002  1.00  0.00     0.000 A 
HETATM   26  C   UNL     1      26.074  48.318  55.490  1.00  0.00     0.001 A 
HETATM   27  C   UNL     1      25.703  48.046  54.172  1.00  0.00     0.014 A 
ENDBRANCH   1  22
TORSDOF 2
ENDMDL
