MODEL 1
REMARK VINA RESULT:      -9.5      0.000      0.000
REMARK  4 active torsions:
REMARK  status: ('A' for Active; 'I' for Inactive)
REMARK    1  A    between atoms: N_2  and  C_4 
REMARK    2  A    between atoms: N_2  and  C_16 
REMARK    3  A    between atoms: C_4  and  C_5 
REMARK    4  A    between atoms: C_16  and  C_17 
ROOT
HETATM    1  C   UNL     1      25.200  44.054  52.211  1.00  0.00     0.270 C 
HETATM    2  N   UNL     1      26.506  44.615  51.718  1.00  0.00    -0.064 N 
HETATM    3  H   UNL     1      26.642  45.502  52.232  1.00  0.00     0.280 HD
ENDROOT
BRANCH   2   4
HETATM    4  C   UNL     1      27.695  43.754  52.126  1.00  0.00     0.312 C 
BRANCH   4   5
HETATM    5  C   UNL     1      28.315  44.234  53.432  1.00  0.00     0.133 A 
HETATM    6  N   UNL     1      29.267  43.537  53.968  1.00  0.00    -0.233 NA
HETATM    7  C   UNL     1      29.810  44.008  55.183  1.00  0.00     0.074 A 
HETATM    8  C   UNL     1      29.359  45.176  55.807  1.00  0.00     0.061 A 
HETATM    9  C   UNL     1      30.839  43.286  55.792  1.00  0.00     0.032 A 
HETATM   10  C   UNL     1      28.275  45.920  55.147  1.00  0.00     0.259 A 
HETATM   11  C   UNL     1      29.910  45.627  57.011  1.00  0.00     0.019 A 
HETATM   12  O   UNL     1      27.804  46.955  55.598  1.00  0.00    -0.267 OA
HETATM   13  N   UNL     1      27.814  45.384  53.971  1.00  0.00    -0.309 N 
HETATM   14  H   UNL     1      27.060  45.915  53.553  1.00  0.00     0.170 HD
HETATM   15  C   UNL     1      30.934  44.894  57.605  1.00  0.00     0.001 A 
HETATM   16  C   UNL     1      31.399  43.726  56.996  1.00  0.00     0.002 A 
ENDBRANCH   4   5
ENDBRANCH   2   4
BRANCH   2  17
HETATM   17  C   UNL     1      26.524  44.911  50.243  1.00  0.00     0.273 C 
BRANCH  17  18
HETATM   18  C   UNL     1      26.042  46.284  49.865  1.00  0.00    -0.028 A 
HETATM   19  C   UNL     1      26.947  47.323  49.605  1.00  0.00     0.035 A 
HETATM   20  C   UNL     1      26.486  48.593  49.230  1.00  0.00     0.070 A 
HETATM   21 CL   UNL     1      27.659  49.818  48.911  1.00  0.00    -0.081 Cl
HETATM   22  C   UNL     1      25.116  48.842  49.106  1.00  0.00     0.123 A 
HETATM   23  C   UNL     1      24.212  47.817  49.398  1.00  0.00     0.104 A 
HETATM   24  O   UNL     1      24.704  50.089  48.709  1.00  0.00    -0.344 OA
HETATM   25  O   UNL     1      22.849  47.967  49.339  1.00  0.00    -0.346 OA
HETATM   26  C   UNL     1      24.668  46.547  49.760  1.00  0.00     0.048 A 
HETATM   27  C   UNL     1      22.463  49.345  49.241  1.00  0.00     0.202 C 
HETATM   28  C   UNL     1      23.347  50.082  48.251  1.00  0.00     0.202 C 
ENDBRANCH  17  18
ENDBRANCH   2  17
TORSDOF 4
ENDMDL
MODEL 2
REMARK VINA RESULT:      -9.3      2.135      7.836
REMARK  4 active torsions:
REMARK  status: ('A' for Active; 'I' for Inactive)
REMARK    1  A    between atoms: N_2  and  C_4 
REMARK    2  A    between atoms: N_2  and  C_16 
REMARK    3  A    between atoms: C_4  and  C_5 
REMARK    4  A    between atoms: C_16  and  C_17 
ROOT
HETATM    1  C   UNL     1      25.706  42.911  50.301  1.00  0.00     0.270 C 
HETATM    2  N   UNL     1      25.544  44.027  51.297  1.00  0.00    -0.064 N 
HETATM    3  H   UNL     1      26.317  44.687  51.108  1.00  0.00     0.280 HD
ENDROOT
BRANCH   2   4
HETATM    4  C   UNL     1      24.279  44.841  51.049  1.00  0.00     0.312 C 
BRANCH   4   5
HETATM    5  C   UNL     1      24.587  46.158  50.347  1.00  0.00     0.133 A 
HETATM    6  N   UNL     1      25.815  46.568  50.296  1.00  0.00    -0.233 NA
HETATM    7  C   UNL     1      26.061  47.798  49.646  1.00  0.00     0.074 A 
HETATM    8  C   UNL     1      25.039  48.564  49.073  1.00  0.00     0.061 A 
HETATM    9  C   UNL     1      27.371  48.274  49.568  1.00  0.00     0.032 A 
HETATM   10  C   UNL     1      23.668  48.041  49.167  1.00  0.00     0.259 A 
HETATM   11  C   UNL     1      25.302  49.779  48.433  1.00  0.00     0.019 A 
HETATM   12  O   UNL     1      22.698  48.622  48.700  1.00  0.00    -0.267 OA
HETATM   13  N   UNL     1      23.531  46.840  49.815  1.00  0.00    -0.309 N 
HETATM   14  H   UNL     1      22.572  46.518  49.873  1.00  0.00     0.170 HD
HETATM   15  C   UNL     1      26.615  50.240  48.365  1.00  0.00     0.001 A 
HETATM   16  C   UNL     1      27.647  49.489  48.931  1.00  0.00     0.002 A 
ENDBRANCH   4   5
ENDBRANCH   2   4
BRANCH   2  17
HETATM   17  C   UNL     1      25.636  43.582  52.731  1.00  0.00     0.273 C 
BRANCH  17  18
HETATM   18  C   UNL     1      26.734  44.233  53.527  1.00  0.00    -0.028 A 
HETATM   19  C   UNL     1      26.703  45.605  53.816  1.00  0.00     0.035 A 
HETATM   20  C   UNL     1      27.719  46.196  54.579  1.00  0.00     0.070 A 
HETATM   21 CL   UNL     1      27.606  47.886  54.907  1.00  0.00    -0.081 Cl
HETATM   22  C   UNL     1      28.778  45.425  55.068  1.00  0.00     0.123 A 
HETATM   23  C   UNL     1      28.828  44.065  54.753  1.00  0.00     0.104 A 
HETATM   24  O   UNL     1      29.739  46.033  55.836  1.00  0.00    -0.344 OA
HETATM   25  O   UNL     1      29.839  43.229  55.155  1.00  0.00    -0.346 OA
HETATM   26  C   UNL     1      27.811  43.470  54.002  1.00  0.00     0.048 A 
HETATM   27  C   UNL     1      30.966  43.954  55.666  1.00  0.00     0.202 C 
HETATM   28  C   UNL     1      30.513  45.082  56.575  1.00  0.00     0.202 C 
ENDBRANCH  17  18
ENDBRANCH   2  17
TORSDOF 4
ENDMDL
MODEL 3
REMARK VINA RESULT:      -9.2      1.682      2.365
REMARK  4 active torsions:
REMARK  status: ('A' for Active; 'I' for Inactive)
REMARK    1  A    between atoms: N_2  and  C_4 
REMARK    2  A    between atoms: N_2  and  C_16 
REMARK    3  A    between atoms: C_4  and  C_5 
REMARK    4  A    between atoms: C_16  and  C_17 
ROOT
HETATM    1  C   UNL     1      26.047  43.573  49.750  1.00  0.00     0.270 C 
HETATM    2  N   UNL     1      25.476  44.530  50.760  1.00  0.00    -0.064 N 
HETATM    3  H   UNL     1      24.532  44.773  50.415  1.00  0.00     0.280 HD
ENDROOT
BRANCH   2   4
HETATM    4  C   UNL     1      25.228  43.864  52.109  1.00  0.00     0.312 C 
BRANCH   4   5
HETATM    5  C   UNL     1      26.526  43.644  52.875  1.00  0.00     0.133 A 
HETATM    6  N   UNL     1      26.981  44.598  53.623  1.00  0.00    -0.233 NA
HETATM    7  C   UNL     1      28.192  44.361  54.310  1.00  0.00     0.074 A 
HETATM    8  C   UNL     1      28.894  43.155  54.205  1.00  0.00     0.061 A 
HETATM    9  C   UNL     1      28.716  45.365  55.128  1.00  0.00     0.032 A 
HETATM   10  C   UNL     1      28.322  42.113  53.339  1.00  0.00     0.259 A 
HETATM   11  C   UNL     1      30.091  42.939  54.893  1.00  0.00     0.019 A 
HETATM   12  O   UNL     1      28.845  41.020  53.174  1.00  0.00    -0.267 OA
HETATM   13  N   UNL     1      27.143  42.437  52.715  1.00  0.00    -0.309 N 
HETATM   14  H   UNL     1      26.787  41.702  52.117  1.00  0.00     0.170 HD
HETATM   15  C   UNL     1      30.601  43.950  55.704  1.00  0.00     0.001 A 
HETATM   16  C   UNL     1      29.914  45.161  55.822  1.00  0.00     0.002 A 
ENDBRANCH   4   5
ENDBRANCH   2   4
BRANCH   2  17
HETATM   17  C   UNL     1      26.269  45.800  50.914  1.00  0.00     0.273 C 
BRANCH  17  18
HETATM   18  C   UNL     1      25.694  46.996  50.207  1.00  0.00    -0.028 A 
HETATM   19  C   UNL     1      26.525  47.998  49.686  1.00  0.00     0.035 A 
HETATM   20  C   UNL     1      25.979  49.097  49.007  1.00  0.00     0.070 A 
HETATM   21 CL   UNL     1      27.065  50.282  48.380  1.00  0.00    -0.081 Cl
HETATM   22  C   UNL     1      24.596  49.208  48.837  1.00  0.00     0.123 A 
HETATM   23  C   UNL     1      23.764  48.228  49.384  1.00  0.00     0.104 A 
HETATM   24  O   UNL     1      24.100  50.282  48.142  1.00  0.00    -0.344 OA
HETATM   25  O   UNL     1      22.395  48.260  49.301  1.00  0.00    -0.346 OA
HETATM   26  C   UNL     1      24.306  47.126  50.050  1.00  0.00     0.048 A 
HETATM   27  C   UNL     1      21.913  49.539  48.863  1.00  0.00     0.202 C 
HETATM   28  C   UNL     1      22.752  50.064  47.712  1.00  0.00     0.202 C 
ENDBRANCH  17  18
ENDBRANCH   2  17
TORSDOF 4
ENDMDL
MODEL 4
REMARK VINA RESULT:      -9.2      2.190      8.359
REMARK  4 active torsions:
REMARK  status: ('A' for Active; 'I' for Inactive)
REMARK    1  A    between atoms: N_2  and  C_4 
REMARK    2  A    between atoms: N_2  and  C_16 
REMARK    3  A    between atoms: C_4  and  C_5 
REMARK    4  A    between atoms: C_16  and  C_17 
ROOT
HETATM    1  C   UNL     1      26.809  43.524  49.855  1.00  0.00     0.270 C 
HETATM    2  N   UNL     1      26.305  44.302  51.039  1.00  0.00    -0.064 N 
HETATM    3  H   UNL     1      26.885  45.156  51.083  1.00  0.00     0.280 HD
ENDROOT
BRANCH   2   4
HETATM    4  C   UNL     1      24.885  44.817  50.829  1.00  0.00     0.312 C 
BRANCH   4   5
HETATM    5  C   UNL     1      24.879  46.201  50.192  1.00  0.00     0.133 A 
HETATM    6  N   UNL     1      23.782  46.642  49.663  1.00  0.00    -0.233 NA
HETATM    7  C   UNL     1      23.817  47.925  49.074  1.00  0.00     0.074 A 
HETATM    8  C   UNL     1      24.975  48.710  49.046  1.00  0.00     0.061 A 
HETATM    9  C   UNL     1      22.654  48.437  48.494  1.00  0.00     0.032 A 
HETATM   10  C   UNL     1      26.187  48.149  49.663  1.00  0.00     0.259 A 
HETATM   11  C   UNL     1      24.990  49.978  48.458  1.00  0.00     0.019 A 
HETATM   12  O   UNL     1      27.254  48.745  49.701  1.00  0.00    -0.267 OA
HETATM   13  N   UNL     1      26.053  46.898  50.210  1.00  0.00    -0.309 N 
HETATM   14  H   UNL     1      26.910  46.539  50.613  1.00  0.00     0.170 HD
HETATM   15  C   UNL     1      23.822  50.474  47.883  1.00  0.00     0.001 A 
HETATM   16  C   UNL     1      22.656  49.705  47.902  1.00  0.00     0.002 A 
ENDBRANCH   4   5
ENDBRANCH   2   4
BRANCH   2  17
HETATM   17  C   UNL     1      26.433  43.571  52.349  1.00  0.00     0.273 C 
BRANCH  17  18
HETATM   18  C   UNL     1      27.329  44.232  53.359  1.00  0.00    -0.028 A 
HETATM   19  C   UNL     1      27.122  45.563  53.749  1.00  0.00     0.035 A 
HETATM   20  C   UNL     1      27.948  46.162  54.710  1.00  0.00     0.070 A 
HETATM   21 CL   UNL     1      27.623  47.797  55.153  1.00  0.00    -0.081 Cl
HETATM   22  C   UNL     1      28.993  45.439  55.296  1.00  0.00     0.123 A 
HETATM   23  C   UNL     1      29.222  44.124  54.883  1.00  0.00     0.104 A 
HETATM   24  O   UNL     1      29.763  46.049  56.253  1.00  0.00    -0.344 OA
HETATM   25  O   UNL     1      30.238  43.342  55.371  1.00  0.00    -0.346 OA
HETATM   26  C   UNL     1      28.392  43.521  53.935  1.00  0.00     0.048 A 
HETATM   27  C   UNL     1      31.199  44.107  56.111  1.00  0.00     0.202 C 
HETATM   28  C   UNL     1      30.506  45.100  57.026  1.00  0.00     0.202 C 
ENDBRANCH  17  18
ENDBRANCH   2  17
TORSDOF 4
ENDMDL
MODEL 5
REMARK VINA RESULT:      -9.0      1.766      2.212
REMARK  4 active torsions:
REMARK  status: ('A' for Active; 'I' for Inactive)
REMARK    1  A    between atoms: N_2  and  C_4 
REMARK    2  A    between atoms: N_2  and  C_16 
REMARK    3  A    between atoms: C_4  and  C_5 
REMARK    4  A    between atoms: C_16  and  C_17 
ROOT
HETATM    1  C   UNL     1      25.588  44.122  52.579  1.00  0.00     0.270 C 
HETATM    2  N   UNL     1      26.866  44.575  51.927  1.00  0.00    -0.064 N 
HETATM    3  H   UNL     1      27.061  45.515  52.312  1.00  0.00     0.280 HD
ENDROOT
BRANCH   2   4
HETATM    4  C   UNL     1      28.062  43.733  52.356  1.00  0.00     0.312 C 
BRANCH   4   5
HETATM    5  C   UNL     1      28.639  44.212  53.683  1.00  0.00     0.133 A 
HETATM    6  N   UNL     1      29.567  43.511  54.252  1.00  0.00    -0.233 NA
HETATM    7  C   UNL     1      30.071  43.981  55.485  1.00  0.00     0.074 A 
HETATM    8  C   UNL     1      29.604  45.152  56.091  1.00  0.00     0.061 A 
HETATM    9  C   UNL     1      31.073  43.254  56.130  1.00  0.00     0.032 A 
HETATM   10  C   UNL     1      28.548  45.901  55.393  1.00  0.00     0.259 A 
HETATM   11  C   UNL     1      30.114  45.601  57.313  1.00  0.00     0.019 A 
HETATM   12  O   UNL     1      28.066  46.938  55.826  1.00  0.00    -0.267 OA
HETATM   13  N   UNL     1      28.126  45.365  54.202  1.00  0.00    -0.309 N 
HETATM   14  H   UNL     1      27.389  45.900  53.757  1.00  0.00     0.170 HD
HETATM   15  C   UNL     1      31.114  44.864  57.943  1.00  0.00     0.001 A 
HETATM   16  C   UNL     1      31.593  43.693  57.352  1.00  0.00     0.002 A 
ENDBRANCH   4   5
ENDBRANCH   2   4
BRANCH   2  17
HETATM   17  C   UNL     1      26.781  44.681  50.428  1.00  0.00     0.273 C 
BRANCH  17  18
HETATM   18  C   UNL     1      25.563  45.396  49.911  1.00  0.00    -0.028 A 
HETATM   19  C   UNL     1      24.549  44.703  49.235  1.00  0.00     0.035 A 
HETATM   20  C   UNL     1      23.407  45.375  48.779  1.00  0.00     0.070 A 
HETATM   21 CL   UNL     1      22.194  44.453  47.969  1.00  0.00    -0.081 Cl
HETATM   22  C   UNL     1      23.260  46.749  48.994  1.00  0.00     0.123 A 
HETATM   23  C   UNL     1      24.284  47.447  49.638  1.00  0.00     0.104 A 
HETATM   24  O   UNL     1      22.115  47.367  48.559  1.00  0.00    -0.344 OA
HETATM   25  O   UNL     1      24.252  48.799  49.869  1.00  0.00    -0.346 OA
HETATM   26  C   UNL     1      25.418  46.778  50.104  1.00  0.00     0.048 A 
HETATM   27  C   UNL     1      23.212  49.448  49.125  1.00  0.00     0.202 C 
HETATM   28  C   UNL     1      21.927  48.642  49.182  1.00  0.00     0.202 C 
ENDBRANCH  17  18
ENDBRANCH   2  17
TORSDOF 4
ENDMDL
MODEL 6
REMARK VINA RESULT:      -8.8      4.563      6.608
REMARK  4 active torsions:
REMARK  status: ('A' for Active; 'I' for Inactive)
REMARK    1  A    between atoms: N_2  and  C_4 
REMARK    2  A    between atoms: N_2  and  C_16 
REMARK    3  A    between atoms: C_4  and  C_5 
REMARK    4  A    between atoms: C_16  and  C_17 
ROOT
HETATM    1  C   UNL     1      26.980  45.376  49.912  1.00  0.00     0.270 C 
HETATM    2  N   UNL     1      26.806  44.002  50.499  1.00  0.00    -0.064 N 
HETATM    3  H   UNL     1      27.760  43.657  50.696  1.00  0.00     0.280 HD
ENDROOT
BRANCH   2   4
HETATM    4  C   UNL     1      26.128  44.040  51.864  1.00  0.00     0.312 C 
BRANCH   4   5
HETATM    5  C   UNL     1      27.113  44.391  52.972  1.00  0.00     0.133 A 
HETATM    6  N   UNL     1      28.064  43.557  53.252  1.00  0.00    -0.233 NA
HETATM    7  C   UNL     1      28.952  43.913  54.291  1.00  0.00     0.074 A 
HETATM    8  C   UNL     1      28.835  45.110  55.005  1.00  0.00     0.061 A 
HETATM    9  C   UNL     1      29.991  43.041  54.623  1.00  0.00     0.032 A 
HETATM   10  C   UNL     1      27.733  46.013  54.637  1.00  0.00     0.259 A 
HETATM   11  C   UNL     1      29.724  45.444  56.031  1.00  0.00     0.019 A 
HETATM   12  O   UNL     1      27.535  47.085  55.189  1.00  0.00    -0.267 OA
HETATM   13  N   UNL     1      26.925  45.580  53.616  1.00  0.00    -0.309 N 
HETATM   14  H   UNL     1      26.170  46.220  53.399  1.00  0.00     0.170 HD
HETATM   15  C   UNL     1      30.755  44.563  56.350  1.00  0.00     0.001 A 
HETATM   16  C   UNL     1      30.888  43.364  55.647  1.00  0.00     0.002 A 
ENDBRANCH   4   5
ENDBRANCH   2   4
BRANCH   2  17
HETATM   17  C   UNL     1      26.126  43.026  49.577  1.00  0.00     0.273 C 
BRANCH  17  18
HETATM   18  C   UNL     1      26.936  41.806  49.236  1.00  0.00    -0.028 A 
HETATM   19  C   UNL     1      27.032  41.347  47.915  1.00  0.00     0.035 A 
HETATM   20  C   UNL     1      27.810  40.223  47.605  1.00  0.00     0.070 A 
HETATM   21 CL   UNL     1      27.895  39.726  45.955  1.00  0.00    -0.081 Cl
HETATM   22  C   UNL     1      28.505  39.543  48.611  1.00  0.00     0.123 A 
HETATM   23  C   UNL     1      28.382  39.978  49.933  1.00  0.00     0.104 A 
HETATM   24  O   UNL     1      29.279  38.464  48.265  1.00  0.00    -0.344 OA
HETATM   25  O   UNL     1      28.995  39.363  50.995  1.00  0.00    -0.346 OA
HETATM   26  C   UNL     1      27.617  41.105  50.242  1.00  0.00     0.048 A 
HETATM   27  C   UNL     1      29.517  38.074  50.642  1.00  0.00     0.202 C 
HETATM   28  C   UNL     1      30.215  38.127  49.295  1.00  0.00     0.202 C 
ENDBRANCH  17  18
ENDBRANCH   2  17
TORSDOF 4
ENDMDL
MODEL 7
REMARK VINA RESULT:      -8.8      2.561      8.758
REMARK  4 active torsions:
REMARK  status: ('A' for Active; 'I' for Inactive)
REMARK    1  A    between atoms: N_2  and  C_4 
REMARK    2  A    between atoms: N_2  and  C_16 
REMARK    3  A    between atoms: C_4  and  C_5 
REMARK    4  A    between atoms: C_16  and  C_17 
ROOT
HETATM    1  C   UNL     1      25.644  47.379  53.200  1.00  0.00     0.270 C 
HETATM    2  N   UNL     1      25.377  46.253  52.238  1.00  0.00    -0.064 N 
HETATM    3  H   UNL     1      24.375  46.323  51.994  1.00  0.00     0.280 HD
ENDROOT
BRANCH   2   4
HETATM    4  C   UNL     1      26.104  46.443  50.911  1.00  0.00     0.312 C 
BRANCH   4   5
HETATM    5  C   UNL     1      25.456  47.533  50.067  1.00  0.00     0.133 A 
HETATM    6  N   UNL     1      24.164  47.599  50.013  1.00  0.00    -0.233 NA
HETATM    7  C   UNL     1      23.600  48.617  49.213  1.00  0.00     0.074 A 
HETATM    8  C   UNL     1      24.380  49.531  48.496  1.00  0.00     0.061 A 
HETATM    9  C   UNL     1      22.210  48.723  49.129  1.00  0.00     0.032 A 
HETATM   10  C   UNL     1      25.842  49.400  48.600  1.00  0.00     0.259 A 
HETATM   11  C   UNL     1      23.803  50.532  47.708  1.00  0.00     0.019 A 
HETATM   12  O   UNL     1      26.622  50.143  48.021  1.00  0.00    -0.267 OA
HETATM   13  N   UNL     1      26.293  48.382  49.401  1.00  0.00    -0.309 N 
HETATM   14  H   UNL     1      27.304  48.314  49.438  1.00  0.00     0.170 HD
HETATM   15  C   UNL     1      22.415  50.623  47.635  1.00  0.00     0.001 A 
HETATM   16  C   UNL     1      21.620  49.720  48.345  1.00  0.00     0.002 A 
ENDBRANCH   4   5
ENDBRANCH   2   4
BRANCH   2  17
HETATM   17  C   UNL     1      25.635  44.886  52.812  1.00  0.00     0.273 C 
BRANCH  17  18
HETATM   18  C   UNL     1      26.918  44.754  53.585  1.00  0.00    -0.028 A 
HETATM   19  C   UNL     1      27.941  43.899  53.151  1.00  0.00     0.035 A 
HETATM   20  C   UNL     1      29.143  43.803  53.866  1.00  0.00     0.070 A 
HETATM   21 CL   UNL     1      30.362  42.742  53.262  1.00  0.00    -0.081 Cl
HETATM   22  C   UNL     1      29.341  44.562  55.024  1.00  0.00     0.123 A 
HETATM   23  C   UNL     1      28.310  45.389  55.477  1.00  0.00     0.104 A 
HETATM   24  O   UNL     1      30.541  44.463  55.681  1.00  0.00    -0.344 OA
HETATM   25  O   UNL     1      28.391  46.148  56.617  1.00  0.00    -0.346 OA
HETATM   26  C   UNL     1      27.116  45.496  54.760  1.00  0.00     0.048 A 
HETATM   27  C   UNL     1      29.509  45.775  57.434  1.00  0.00     0.202 C 
HETATM   28  C   UNL     1      30.747  45.556  56.583  1.00  0.00     0.202 C 
ENDBRANCH  17  18
ENDBRANCH   2  17
TORSDOF 4
ENDMDL
MODEL 8
REMARK VINA RESULT:      -8.6      3.311      7.059
REMARK  4 active torsions:
REMARK  status: ('A' for Active; 'I' for Inactive)
REMARK    1  A    between atoms: N_2  and  C_4 
REMARK    2  A    between atoms: N_2  and  C_16 
REMARK    3  A    between atoms: C_4  and  C_5 
REMARK    4  A    between atoms: C_16  and  C_17 
ROOT
HETATM    1  C   UNL     1      28.731  39.892  50.536  1.00  0.00     0.270 C 
HETATM    2  N   UNL     1      27.997  41.190  50.733  1.00  0.00    -0.064 N 
HETATM    3  H   UNL     1      28.718  41.930  50.690  1.00  0.00     0.280 HD
ENDROOT
BRANCH   2   4
HETATM    4  C   UNL     1      27.061  41.505  49.571  1.00  0.00     0.312 C 
BRANCH   4   5
HETATM    5  C   UNL     1      26.373  42.852  49.753  1.00  0.00     0.133 A 
HETATM    6  N   UNL     1      27.057  43.936  49.563  1.00  0.00    -0.233 NA
HETATM    7  C   UNL     1      26.388  45.165  49.750  1.00  0.00     0.074 A 
HETATM    8  C   UNL     1      25.042  45.241  50.126  1.00  0.00     0.061 A 
HETATM    9  C   UNL     1      27.090  46.356  49.555  1.00  0.00     0.032 A 
HETATM   10  C   UNL     1      24.323  43.973  50.326  1.00  0.00     0.259 A 
HETATM   11  C   UNL     1      24.397  46.468  50.306  1.00  0.00     0.019 A 
HETATM   12  O   UNL     1      23.146  43.916  50.651  1.00  0.00    -0.267 OA
HETATM   13  N   UNL     1      25.058  42.833  50.119  1.00  0.00    -0.309 N 
HETATM   14  H   UNL     1      24.535  41.980  50.279  1.00  0.00     0.170 HD
HETATM   15  C   UNL     1      25.112  47.647  50.108  1.00  0.00     0.001 A 
HETATM   16  C   UNL     1      26.456  47.591  49.732  1.00  0.00     0.002 A 
ENDBRANCH   4   5
ENDBRANCH   2   4
BRANCH   2  17
HETATM   17  C   UNL     1      27.285  41.294  52.054  1.00  0.00     0.273 C 
BRANCH  17  18
HETATM   18  C   UNL     1      27.757  42.412  52.942  1.00  0.00    -0.028 A 
HETATM   19  C   UNL     1      28.948  42.302  53.674  1.00  0.00     0.035 A 
HETATM   20  C   UNL     1      29.391  43.360  54.480  1.00  0.00     0.070 A 
HETATM   21 CL   UNL     1      30.874  43.157  55.338  1.00  0.00    -0.081 Cl
HETATM   22  C   UNL     1      28.652  44.544  54.565  1.00  0.00     0.123 A 
HETATM   23  C   UNL     1      27.447  44.642  53.863  1.00  0.00     0.104 A 
HETATM   24  O   UNL     1      29.132  45.568  55.341  1.00  0.00    -0.344 OA
HETATM   25  O   UNL     1      26.633  45.746  53.904  1.00  0.00    -0.346 OA
HETATM   26  C   UNL     1      27.010  43.594  53.050  1.00  0.00     0.048 A 
HETATM   27  C   UNL     1      26.998  46.645  54.961  1.00  0.00     0.202 C 
HETATM   28  C   UNL     1      28.505  46.816  55.025  1.00  0.00     0.202 C 
ENDBRANCH  17  18
ENDBRANCH   2  17
TORSDOF 4
ENDMDL
MODEL 9
REMARK VINA RESULT:      -8.6      4.047      5.545
REMARK  4 active torsions:
REMARK  status: ('A' for Active; 'I' for Inactive)
REMARK    1  A    between atoms: N_2  and  C_4 
REMARK    2  A    between atoms: N_2  and  C_16 
REMARK    3  A    between atoms: C_4  and  C_5 
REMARK    4  A    between atoms: C_16  and  C_17 
ROOT
HETATM    1  C   UNL     1      25.378  46.656  51.627  1.00  0.00     0.270 C 
HETATM    2  N   UNL     1      25.218  45.164  51.731  1.00  0.00    -0.064 N 
HETATM    3  H   UNL     1      26.102  44.761  51.376  1.00  0.00     0.280 HD
ENDROOT
BRANCH   2   4
HETATM    4  C   UNL     1      25.140  44.692  53.178  1.00  0.00     0.312 C 
BRANCH   4   5
HETATM    5  C   UNL     1      26.506  44.277  53.709  1.00  0.00     0.133 A 
HETATM    6  N   UNL     1      27.185  45.121  54.419  1.00  0.00    -0.233 NA
HETATM    7  C   UNL     1      28.451  44.705  54.885  1.00  0.00     0.074 A 
HETATM    8  C   UNL     1      28.977  43.438  54.607  1.00  0.00     0.061 A 
HETATM    9  C   UNL     1      29.214  45.586  55.655  1.00  0.00     0.032 A 
HETATM   10  C   UNL     1      28.155  42.528  53.796  1.00  0.00     0.259 A 
HETATM   11  C   UNL     1      30.233  43.044  55.078  1.00  0.00     0.019 A 
HETATM   12  O   UNL     1      28.510  41.397  53.493  1.00  0.00    -0.267 OA
HETATM   13  N   UNL     1      26.941  43.023  53.390  1.00  0.00    -0.309 N 
HETATM   14  H   UNL     1      26.409  42.374  52.823  1.00  0.00     0.170 HD
HETATM   15  C   UNL     1      30.981  43.935  55.844  1.00  0.00     0.001 A 
HETATM   16  C   UNL     1      30.472  45.203  56.133  1.00  0.00     0.002 A 
ENDBRANCH   4   5
ENDBRANCH   2   4
BRANCH   2  17
HETATM   17  C   UNL     1      24.081  44.614  50.913  1.00  0.00     0.273 C 
BRANCH  17  18
HETATM   18  C   UNL     1      24.452  43.488  49.988  1.00  0.00    -0.028 A 
HETATM   19  C   UNL     1      23.469  42.670  49.412  1.00  0.00     0.035 A 
HETATM   20  C   UNL     1      23.824  41.639  48.532  1.00  0.00     0.070 A 
HETATM   21 CL   UNL     1      22.559  40.684  47.850  1.00  0.00    -0.081 Cl
HETATM   22  C   UNL     1      25.167  41.411  48.212  1.00  0.00     0.123 A 
HETATM   23  C   UNL     1      26.150  42.203  48.811  1.00  0.00     0.104 A 
HETATM   24  O   UNL     1      25.474  40.411  47.325  1.00  0.00    -0.344 OA
HETATM   25  O   UNL     1      27.494  42.041  48.590  1.00  0.00    -0.346 OA
HETATM   26  C   UNL     1      25.797  43.239  49.679  1.00  0.00     0.048 A 
HETATM   27  C   UNL     1      27.785  40.803  47.927  1.00  0.00     0.202 C 
HETATM   28  C   UNL     1      26.799  40.551  46.801  1.00  0.00     0.202 C 
ENDBRANCH  17  18
ENDBRANCH   2  17
TORSDOF 4
ENDMDL
MODEL 10
REMARK VINA RESULT:      -8.5      4.392      6.254
REMARK  4 active torsions:
REMARK  status: ('A' for Active; 'I' for Inactive)
REMARK    1  A    between atoms: N_2  and  C_4 
REMARK    2  A    between atoms: N_2  and  C_16 
REMARK    3  A    between atoms: C_4  and  C_5 
REMARK    4  A    between atoms: C_16  and  C_17 
ROOT
HETATM    1  C   UNL     1      25.418  45.439  50.267  1.00  0.00     0.270 C 
HETATM    2  N   UNL     1      25.596  44.318  51.254  1.00  0.00    -0.064 N 
HETATM    3  H   UNL     1      26.613  44.133  51.289  1.00  0.00     0.280 HD
ENDROOT
BRANCH   2   4
HETATM    4  C   UNL     1      25.239  44.740  52.676  1.00  0.00     0.312 C 
BRANCH   4   5
HETATM    5  C   UNL     1      26.481  44.922  53.537  1.00  0.00     0.133 A 
HETATM    6  N   UNL     1      27.338  43.953  53.614  1.00  0.00    -0.233 NA
HETATM    7  C   UNL     1      28.473  44.155  54.429  1.00  0.00     0.074 A 
HETATM    8  C   UNL     1      28.689  45.342  55.138  1.00  0.00     0.061 A 
HETATM    9  C   UNL     1      29.421  43.135  54.537  1.00  0.00     0.032 A 
HETATM   10  C   UNL     1      27.678  46.402  55.009  1.00  0.00     0.259 A 
HETATM   11  C   UNL     1      29.820  45.523  55.941  1.00  0.00     0.019 A 
HETATM   12  O   UNL     1      27.763  47.480  55.578  1.00  0.00    -0.267 OA
HETATM   13  N   UNL     1      26.613  46.112  54.193  1.00  0.00    -0.309 N 
HETATM   14  H   UNL     1      25.930  46.858  54.139  1.00  0.00     0.170 HD
HETATM   15  C   UNL     1      30.755  44.495  56.039  1.00  0.00     0.001 A 
HETATM   16  C   UNL     1      30.557  43.304  55.337  1.00  0.00     0.002 A 
ENDBRANCH   4   5
ENDBRANCH   2   4
BRANCH   2  17
HETATM   17  C   UNL     1      24.891  43.046  50.867  1.00  0.00     0.273 C 
BRANCH  17  18
HETATM   18  C   UNL     1      25.799  41.887  50.560  1.00  0.00    -0.028 A 
HETATM   19  C   UNL     1      26.930  41.625  51.346  1.00  0.00     0.035 A 
HETATM   20  C   UNL     1      27.755  40.527  51.065  1.00  0.00     0.070 A 
HETATM   21 CL   UNL     1      29.119  40.258  52.086  1.00  0.00    -0.081 Cl
HETATM   22  C   UNL     1      27.461  39.675  49.997  1.00  0.00     0.123 A 
HETATM   23  C   UNL     1      26.354  39.954  49.191  1.00  0.00     0.104 A 
HETATM   24  O   UNL     1      28.275  38.594  49.770  1.00  0.00    -0.344 OA
HETATM   25  O   UNL     1      25.998  39.200  48.102  1.00  0.00    -0.346 OA
HETATM   26  C   UNL     1      25.523  41.040  49.476  1.00  0.00     0.048 A 
HETATM   27  C   UNL     1      27.038  38.293  47.712  1.00  0.00     0.202 C 
HETATM   28  C   UNL     1      27.648  37.620  48.928  1.00  0.00     0.202 C 
ENDBRANCH  17  18
ENDBRANCH   2  17
TORSDOF 4
ENDMDL
