MODEL 1
REMARK VINA RESULT:     -10.0      0.000      0.000
REMARK  2 active torsions:
REMARK  status: ('A' for Active; 'I' for Inactive)
REMARK    1  A    between atoms: C_12  and  C_13 
REMARK    2  A    between atoms: C_16  and  O_17 
ROOT
HETATM    1  C   UNL     1      25.284  47.042  51.726  1.00  0.00     0.002 A 
HETATM    2  C   UNL     1      26.197  46.768  52.744  1.00  0.00     0.026 A 
HETATM    3  C   UNL     1      26.470  45.448  53.117  1.00  0.00     0.036 A 
HETATM    4  C   UNL     1      25.844  44.379  52.434  1.00  0.00     0.053 A 
HETATM    5  N   UNL     1      26.159  43.021  52.710  1.00  0.00    -0.356 N 
HETATM    6  C   UNL     1      27.469  42.595  52.839  1.00  0.00     0.041 A 
HETATM    7  C   UNL     1      28.534  43.284  53.283  1.00  0.00     0.056 A 
HETATM    8  C   UNL     1      29.717  42.449  53.015  1.00  0.00     0.251 A 
HETATM    9  O   UNL     1      30.882  42.772  53.139  1.00  0.00    -0.268 OA
HETATM   10  N   UNL     1      29.270  41.241  52.546  1.00  0.00    -0.351 N 
HETATM   11  C   UNL     1      27.859  41.218  52.370  1.00  0.00     0.180 A 
HETATM   12  C   UNL     1      28.653  44.649  53.873  1.00  0.00     0.134 C 
HETATM   13  N   UNL     1      27.333  45.227  54.213  1.00  0.00    -0.278 NA
HETATM   14  C   UNL     1      24.912  44.673  51.427  1.00  0.00     0.031 A 
HETATM   15  C   UNL     1      24.634  45.996  51.075  1.00  0.00     0.002 A 
HETATM   16  H   UNL     1      25.569  42.379  52.187  1.00  0.00     0.166 HD
HETATM   17  H   UNL     1      29.921  40.531  52.241  1.00  0.00     0.163 HD
HETATM   18  H   UNL     1      26.853  44.548  54.805  1.00  0.00     0.128 HD
ENDROOT
BRANCH  12  19
HETATM   19  C   UNL     1      29.465  44.663  55.171  1.00  0.00    -0.035 A 
HETATM   20  C   UNL     1      29.379  45.761  56.046  1.00  0.00     0.012 A 
HETATM   21  C   UNL     1      30.118  45.792  57.231  1.00  0.00     0.037 A 
HETATM   22  C   UNL     1      30.945  44.721  57.553  1.00  0.00     0.065 A 
HETATM   23  C   UNL     1      31.047  43.624  56.709  1.00  0.00     0.037 A 
HETATM   24  C   UNL     1      30.313  43.593  55.522  1.00  0.00     0.012 A 
BRANCH  22  25
HETATM   25  O   UNL     1      31.683  44.712  58.700  1.00  0.00    -0.361 OA
HETATM   26  H   UNL     1      31.322  44.030  59.289  1.00  0.00     0.217 HD
ENDBRANCH  22  25
ENDBRANCH  12  19
TORSDOF 2
ENDMDL
MODEL 2
REMARK VINA RESULT:      -9.7      2.778      6.358
REMARK  2 active torsions:
REMARK  status: ('A' for Active; 'I' for Inactive)
REMARK    1  A    between atoms: C_12  and  C_13 
REMARK    2  A    between atoms: C_16  and  O_17 
ROOT
HETATM    1  C   UNL     1      30.751  44.174  55.828  1.00  0.00     0.002 A 
HETATM    2  C   UNL     1      30.120  43.343  54.901  1.00  0.00     0.026 A 
HETATM    3  C   UNL     1      28.862  43.677  54.390  1.00  0.00     0.036 A 
HETATM    4  C   UNL     1      28.237  44.883  54.785  1.00  0.00     0.053 A 
HETATM    5  N   UNL     1      27.005  45.313  54.223  1.00  0.00    -0.356 N 
HETATM    6  C   UNL     1      26.778  45.268  52.859  1.00  0.00     0.041 A 
HETATM    7  C   UNL     1      27.279  44.408  51.955  1.00  0.00     0.056 A 
HETATM    8  C   UNL     1      26.902  44.925  50.628  1.00  0.00     0.251 A 
HETATM    9  O   UNL     1      27.282  44.514  49.549  1.00  0.00    -0.268 OA
HETATM   10  N   UNL     1      26.076  46.000  50.827  1.00  0.00    -0.351 N 
HETATM   11  C   UNL     1      25.937  46.330  52.203  1.00  0.00     0.180 A 
HETATM   12  C   UNL     1      28.123  43.188  52.112  1.00  0.00     0.134 C 
HETATM   13  N   UNL     1      28.226  42.759  53.525  1.00  0.00    -0.278 NA
HETATM   14  C   UNL     1      28.876  45.696  55.734  1.00  0.00     0.031 A 
HETATM   15  C   UNL     1      30.125  45.343  56.252  1.00  0.00     0.002 A 
HETATM   16  H   UNL     1      26.658  46.160  54.668  1.00  0.00     0.166 HD
HETATM   17  H   UNL     1      25.742  46.548  50.045  1.00  0.00     0.163 HD
HETATM   18  H   UNL     1      27.274  42.665  53.879  1.00  0.00     0.128 HD
ENDROOT
BRANCH  12  19
HETATM   19  C   UNL     1      27.569  41.983  51.345  1.00  0.00    -0.035 A 
HETATM   20  C   UNL     1      28.443  40.998  50.852  1.00  0.00     0.012 A 
HETATM   21  C   UNL     1      27.954  39.896  50.145  1.00  0.00     0.037 A 
HETATM   22  C   UNL     1      26.585  39.769  49.933  1.00  0.00     0.065 A 
HETATM   23  C   UNL     1      25.700  40.725  50.412  1.00  0.00     0.037 A 
HETATM   24  C   UNL     1      26.188  41.829  51.114  1.00  0.00     0.012 A 
BRANCH  22  25
HETATM   25  O   UNL     1      26.068  38.709  49.248  1.00  0.00    -0.361 OA
HETATM   26  H   UNL     1      26.342  38.784  48.320  1.00  0.00     0.217 HD
ENDBRANCH  22  25
ENDBRANCH  12  19
TORSDOF 2
ENDMDL
MODEL 3
REMARK VINA RESULT:      -9.5      3.022      6.757
REMARK  2 active torsions:
REMARK  status: ('A' for Active; 'I' for Inactive)
REMARK    1  A    between atoms: C_12  and  C_13 
REMARK    2  A    between atoms: C_16  and  O_17 
ROOT
HETATM    1  C   UNL     1      30.570  43.497  55.053  1.00  0.00     0.002 A 
HETATM    2  C   UNL     1      29.697  43.013  54.079  1.00  0.00     0.026 A 
HETATM    3  C   UNL     1      28.464  43.635  53.860  1.00  0.00     0.036 A 
HETATM    4  C   UNL     1      28.112  44.785  54.604  1.00  0.00     0.053 A 
HETATM    5  N   UNL     1      26.915  45.509  54.354  1.00  0.00    -0.356 N 
HETATM    6  C   UNL     1      26.519  45.827  53.067  1.00  0.00     0.041 A 
HETATM    7  C   UNL     1      26.749  45.150  51.928  1.00  0.00     0.056 A 
HETATM    8  C   UNL     1      26.310  46.022  50.825  1.00  0.00     0.251 A 
HETATM    9  O   UNL     1      26.478  45.835  49.636  1.00  0.00    -0.268 OA
HETATM   10  N   UNL     1      25.714  47.122  51.383  1.00  0.00    -0.351 N 
HETATM   11  C   UNL     1      25.803  47.125  52.802  1.00  0.00     0.180 A 
HETATM   12  C   UNL     1      27.379  43.822  51.677  1.00  0.00     0.134 C 
HETATM   13  N   UNL     1      27.577  43.053  52.927  1.00  0.00    -0.278 NA
HETATM   14  C   UNL     1      28.993  45.245  55.595  1.00  0.00     0.031 A 
HETATM   15  C   UNL     1      30.215  44.605  55.817  1.00  0.00     0.002 A 
HETATM   16  H   UNL     1      26.777  46.262  55.023  1.00  0.00     0.166 HD
HETATM   17  H   UNL     1      25.389  47.885  50.803  1.00  0.00     0.163 HD
HETATM   18  H   UNL     1      26.673  43.012  53.399  1.00  0.00     0.128 HD
ENDROOT
BRANCH  12  19
HETATM   19  C   UNL     1      26.535  42.930  50.763  1.00  0.00    -0.035 A 
HETATM   20  C   UNL     1      25.148  42.819  50.972  1.00  0.00     0.012 A 
HETATM   21  C   UNL     1      24.364  42.004  50.151  1.00  0.00     0.037 A 
HETATM   22  C   UNL     1      24.960  41.300  49.111  1.00  0.00     0.065 A 
HETATM   23  C   UNL     1      26.326  41.393  48.881  1.00  0.00     0.037 A 
HETATM   24  C   UNL     1      27.112  42.203  49.704  1.00  0.00     0.012 A 
BRANCH  22  25
HETATM   25  O   UNL     1      24.231  40.494  48.288  1.00  0.00    -0.361 OA
HETATM   26  H   UNL     1      24.693  40.430  47.436  1.00  0.00     0.217 HD
ENDBRANCH  22  25
ENDBRANCH  12  19
TORSDOF 2
ENDMDL
MODEL 4
REMARK VINA RESULT:      -9.4      7.395      9.790
REMARK  2 active torsions:
REMARK  status: ('A' for Active; 'I' for Inactive)
REMARK    1  A    between atoms: C_12  and  C_13 
REMARK    2  A    between atoms: C_16  and  O_17 
ROOT
HETATM    1  C   UNL     1      18.453  52.164  49.519  1.00  0.00     0.002 A 
HETATM    2  C   UNL     1      19.765  51.692  49.501  1.00  0.00     0.026 A 
HETATM    3  C   UNL     1      20.035  50.338  49.722  1.00  0.00     0.036 A 
HETATM    4  C   UNL     1      18.970  49.431  49.928  1.00  0.00     0.053 A 
HETATM    5  N   UNL     1      19.184  48.032  50.060  1.00  0.00    -0.356 N 
HETATM    6  C   UNL     1      20.027  47.346  49.204  1.00  0.00     0.041 A 
HETATM    7  C   UNL     1      21.123  47.797  48.568  1.00  0.00     0.056 A 
HETATM    8  C   UNL     1      21.521  46.743  47.619  1.00  0.00     0.251 A 
HETATM    9  O   UNL     1      22.377  46.821  46.759  1.00  0.00    -0.268 OA
HETATM   10  N   UNL     1      20.711  45.661  47.843  1.00  0.00    -0.351 N 
HETATM   11  C   UNL     1      19.706  45.928  48.814  1.00  0.00     0.180 A 
HETATM   12  C   UNL     1      21.848  49.098  48.648  1.00  0.00     0.134 C 
HETATM   13  N   UNL     1      21.385  49.926  49.784  1.00  0.00    -0.278 NA
HETATM   14  C   UNL     1      17.657  49.927  49.964  1.00  0.00     0.031 A 
HETATM   15  C   UNL     1      17.401  51.285  49.760  1.00  0.00     0.002 A 
HETATM   16  H   UNL     1      18.325  47.533  50.276  1.00  0.00     0.166 HD
HETATM   17  H   UNL     1      20.773  44.838  47.258  1.00  0.00     0.163 HD
HETATM   18  H   UNL     1      21.455  49.348  50.623  1.00  0.00     0.128 HD
ENDROOT
BRANCH  12  19
HETATM   19  C   UNL     1      23.357  48.923  48.841  1.00  0.00    -0.035 A 
HETATM   20  C   UNL     1      24.257  49.753  48.151  1.00  0.00     0.012 A 
HETATM   21  C   UNL     1      25.637  49.603  48.312  1.00  0.00     0.037 A 
HETATM   22  C   UNL     1      26.126  48.623  49.170  1.00  0.00     0.065 A 
HETATM   23  C   UNL     1      25.259  47.791  49.866  1.00  0.00     0.037 A 
HETATM   24  C   UNL     1      23.879  47.938  49.702  1.00  0.00     0.012 A 
BRANCH  22  25
HETATM   25  O   UNL     1      27.465  48.442  49.354  1.00  0.00    -0.361 OA
HETATM   26  H   UNL     1      27.628  48.330  50.305  1.00  0.00     0.217 HD
ENDBRANCH  22  25
ENDBRANCH  12  19
TORSDOF 2
ENDMDL
MODEL 5
REMARK VINA RESULT:      -9.4      3.465      6.975
REMARK  2 active torsions:
REMARK  status: ('A' for Active; 'I' for Inactive)
REMARK    1  A    between atoms: C_12  and  C_13 
REMARK    2  A    between atoms: C_16  and  O_17 
ROOT
HETATM    1  C   UNL     1      29.773  43.282  54.721  1.00  0.00     0.002 A 
HETATM    2  C   UNL     1      29.483  42.208  53.881  1.00  0.00     0.026 A 
HETATM    3  C   UNL     1      28.284  42.174  53.160  1.00  0.00     0.036 A 
HETATM    4  C   UNL     1      27.375  43.253  53.254  1.00  0.00     0.053 A 
HETATM    5  N   UNL     1      26.190  43.312  52.470  1.00  0.00    -0.356 N 
HETATM    6  C   UNL     1      26.204  43.022  51.117  1.00  0.00     0.041 A 
HETATM    7  C   UNL     1      27.008  42.176  50.450  1.00  0.00     0.056 A 
HETATM    8  C   UNL     1      26.758  42.401  49.016  1.00  0.00     0.251 A 
HETATM    9  O   UNL     1      27.385  41.935  48.084  1.00  0.00    -0.268 OA
HETATM   10  N   UNL     1      25.712  43.280  48.915  1.00  0.00    -0.351 N 
HETATM   11  C   UNL     1      25.287  43.764  50.183  1.00  0.00     0.180 A 
HETATM   12  C   UNL     1      28.042  41.211  50.926  1.00  0.00     0.134 C 
HETATM   13  N   UNL     1      27.996  41.023  52.394  1.00  0.00    -0.278 NA
HETATM   14  C   UNL     1      27.673  44.316  54.121  1.00  0.00     0.031 A 
HETATM   15  C   UNL     1      28.865  44.330  54.849  1.00  0.00     0.002 A 
HETATM   16  H   UNL     1      25.612  44.113  52.712  1.00  0.00     0.166 HD
HETATM   17  H   UNL     1      25.409  43.622  48.013  1.00  0.00     0.163 HD
HETATM   18  H   UNL     1      27.037  40.770  52.632  1.00  0.00     0.128 HD
ENDROOT
BRANCH  12  19
HETATM   19  C   UNL     1      27.874  39.817  50.317  1.00  0.00    -0.035 A 
HETATM   20  C   UNL     1      29.006  39.056  49.974  1.00  0.00     0.012 A 
HETATM   21  C   UNL     1      28.870  37.784  49.411  1.00  0.00     0.037 A 
HETATM   22  C   UNL     1      27.599  37.261  49.195  1.00  0.00     0.065 A 
HETATM   23  C   UNL     1      26.465  37.989  49.527  1.00  0.00     0.037 A 
HETATM   24  C   UNL     1      26.600  39.263  50.085  1.00  0.00     0.012 A 
BRANCH  22  25
HETATM   25  O   UNL     1      27.422  36.025  48.648  1.00  0.00    -0.361 OA
HETATM   26  H   UNL     1      27.091  36.137  47.742  1.00  0.00     0.217 HD
ENDBRANCH  22  25
ENDBRANCH  12  19
TORSDOF 2
ENDMDL
MODEL 6
REMARK VINA RESULT:      -9.3      2.347      5.878
REMARK  2 active torsions:
REMARK  status: ('A' for Active; 'I' for Inactive)
REMARK    1  A    between atoms: C_12  and  C_13 
REMARK    2  A    between atoms: C_16  and  O_17 
ROOT
HETATM    1  C   UNL     1      30.445  45.490  58.329  1.00  0.00     0.002 A 
HETATM    2  C   UNL     1      29.610  45.879  57.282  1.00  0.00     0.026 A 
HETATM    3  C   UNL     1      29.695  45.251  56.035  1.00  0.00     0.036 A 
HETATM    4  C   UNL     1      30.608  44.189  55.842  1.00  0.00     0.053 A 
HETATM    5  N   UNL     1      30.666  43.455  54.626  1.00  0.00    -0.356 N 
HETATM    6  C   UNL     1      29.518  43.009  53.996  1.00  0.00     0.041 A 
HETATM    7  C   UNL     1      28.292  43.562  53.999  1.00  0.00     0.056 A 
HETATM    8  C   UNL     1      27.389  42.585  53.366  1.00  0.00     0.251 A 
HETATM    9  O   UNL     1      26.177  42.645  53.304  1.00  0.00    -0.268 OA
HETATM   10  N   UNL     1      28.162  41.555  52.898  1.00  0.00    -0.351 N 
HETATM   11  C   UNL     1      29.531  41.699  53.255  1.00  0.00     0.180 A 
HETATM   12  C   UNL     1      27.789  44.850  54.558  1.00  0.00     0.134 C 
HETATM   13  N   UNL     1      28.891  45.742  54.982  1.00  0.00    -0.278 NA
HETATM   14  C   UNL     1      31.456  43.825  56.900  1.00  0.00     0.031 A 
HETATM   15  C   UNL     1      31.374  44.471  58.135  1.00  0.00     0.002 A 
HETATM   16  H   UNL     1      31.424  42.777  54.625  1.00  0.00     0.166 HD
HETATM   17  H   UNL     1      27.737  40.740  52.475  1.00  0.00     0.163 HD
HETATM   18  H   UNL     1      29.519  45.842  54.184  1.00  0.00     0.128 HD
ENDROOT
BRANCH  12  19
HETATM   19  C   UNL     1      26.964  45.651  53.547  1.00  0.00    -0.035 A 
HETATM   20  C   UNL     1      27.034  45.341  52.177  1.00  0.00     0.012 A 
HETATM   21  C   UNL     1      26.293  46.067  51.240  1.00  0.00     0.037 A 
HETATM   22  C   UNL     1      25.471  47.103  51.669  1.00  0.00     0.065 A 
HETATM   23  C   UNL     1      25.381  47.428  53.015  1.00  0.00     0.037 A 
HETATM   24  C   UNL     1      26.125  46.707  53.952  1.00  0.00     0.012 A 
BRANCH  22  25
HETATM   25  O   UNL     1      24.732  47.836  50.787  1.00  0.00    -0.361 OA
HETATM   26  H   UNL     1      23.792  47.694  50.987  1.00  0.00     0.217 HD
ENDBRANCH  22  25
ENDBRANCH  12  19
TORSDOF 2
ENDMDL
MODEL 7
REMARK VINA RESULT:      -9.2      3.645      5.700
REMARK  2 active torsions:
REMARK  status: ('A' for Active; 'I' for Inactive)
REMARK    1  A    between atoms: C_12  and  C_13 
REMARK    2  A    between atoms: C_16  and  O_17 
ROOT
HETATM    1  C   UNL     1      26.788  49.997  48.428  1.00  0.00     0.002 A 
HETATM    2  C   UNL     1      27.010  48.917  49.281  1.00  0.00     0.026 A 
HETATM    3  C   UNL     1      25.950  48.094  49.675  1.00  0.00     0.036 A 
HETATM    4  C   UNL     1      24.648  48.336  49.179  1.00  0.00     0.053 A 
HETATM    5  N   UNL     1      23.556  47.475  49.472  1.00  0.00    -0.356 N 
HETATM    6  C   UNL     1      23.680  46.099  49.390  1.00  0.00     0.041 A 
HETATM    7  C   UNL     1      24.772  45.342  49.596  1.00  0.00     0.056 A 
HETATM    8  C   UNL     1      24.423  43.976  49.170  1.00  0.00     0.251 A 
HETATM    9  O   UNL     1      25.177  43.029  49.065  1.00  0.00    -0.268 OA
HETATM   10  N   UNL     1      23.088  43.971  48.860  1.00  0.00    -0.351 N 
HETATM   11  C   UNL     1      22.508  45.267  48.940  1.00  0.00     0.180 A 
HETATM   12  C   UNL     1      26.141  45.690  50.076  1.00  0.00     0.134 C 
HETATM   13  N   UNL     1      26.210  47.069  50.611  1.00  0.00    -0.278 NA
HETATM   14  C   UNL     1      24.439  49.441  48.339  1.00  0.00     0.031 A 
HETATM   15  C   UNL     1      25.503  50.266  47.966  1.00  0.00     0.002 A 
HETATM   16  H   UNL     1      22.679  47.830  49.101  1.00  0.00     0.166 HD
HETATM   17  H   UNL     1      22.647  43.141  48.485  1.00  0.00     0.163 HD
HETATM   18  H   UNL     1      25.479  47.152  51.317  1.00  0.00     0.128 HD
ENDROOT
BRANCH  12  19
HETATM   19  C   UNL     1      26.622  44.775  51.205  1.00  0.00    -0.035 A 
HETATM   20  C   UNL     1      25.911  44.716  52.416  1.00  0.00     0.012 A 
HETATM   21  C   UNL     1      26.340  43.891  53.459  1.00  0.00     0.037 A 
HETATM   22  C   UNL     1      27.481  43.113  53.294  1.00  0.00     0.065 A 
HETATM   23  C   UNL     1      28.200  43.150  52.108  1.00  0.00     0.037 A 
HETATM   24  C   UNL     1      27.775  43.978  51.066  1.00  0.00     0.012 A 
BRANCH  22  25
HETATM   25  O   UNL     1      27.934  42.295  54.287  1.00  0.00    -0.361 OA
HETATM   26  H   UNL     1      28.222  42.850  55.030  1.00  0.00     0.217 HD
ENDBRANCH  22  25
ENDBRANCH  12  19
TORSDOF 2
ENDMDL
MODEL 8
REMARK VINA RESULT:      -9.1      2.341      3.493
REMARK  2 active torsions:
REMARK  status: ('A' for Active; 'I' for Inactive)
REMARK    1  A    between atoms: C_12  and  C_13 
REMARK    2  A    between atoms: C_16  and  O_17 
ROOT
HETATM    1  C   UNL     1      25.765  48.624  49.350  1.00  0.00     0.002 A 
HETATM    2  C   UNL     1      26.480  47.836  50.252  1.00  0.00     0.026 A 
HETATM    3  C   UNL     1      25.890  46.708  50.831  1.00  0.00     0.036 A 
HETATM    4  C   UNL     1      24.573  46.339  50.473  1.00  0.00     0.053 A 
HETATM    5  N   UNL     1      23.964  45.150  50.959  1.00  0.00    -0.356 N 
HETATM    6  C   UNL     1      24.642  43.944  50.970  1.00  0.00     0.041 A 
HETATM    7  C   UNL     1      25.962  43.726  51.104  1.00  0.00     0.056 A 
HETATM    8  C   UNL     1      26.182  42.296  50.829  1.00  0.00     0.251 A 
HETATM    9  O   UNL     1      27.252  41.732  50.709  1.00  0.00    -0.268 OA
HETATM   10  N   UNL     1      24.951  41.712  50.678  1.00  0.00    -0.351 N 
HETATM   11  C   UNL     1      23.892  42.661  50.725  1.00  0.00     0.180 A 
HETATM   12  C   UNL     1      27.094  44.655  51.390  1.00  0.00     0.134 C 
HETATM   13  N   UNL     1      26.623  45.995  51.806  1.00  0.00    -0.278 NA
HETATM   14  C   UNL     1      23.861  47.155  49.581  1.00  0.00     0.031 A 
HETATM   15  C   UNL     1      24.454  48.290  49.023  1.00  0.00     0.002 A 
HETATM   16  H   UNL     1      22.993  45.072  50.666  1.00  0.00     0.166 HD
HETATM   17  H   UNL     1      24.868  40.737  50.424  1.00  0.00     0.163 HD
HETATM   18  H   UNL     1      25.979  45.858  52.585  1.00  0.00     0.128 HD
ENDROOT
BRANCH  12  19
HETATM   19  C   UNL     1      27.995  44.155  52.523  1.00  0.00    -0.035 A 
HETATM   20  C   UNL     1      27.634  44.379  53.863  1.00  0.00     0.012 A 
HETATM   21  C   UNL     1      28.448  43.935  54.908  1.00  0.00     0.037 A 
HETATM   22  C   UNL     1      29.628  43.257  54.619  1.00  0.00     0.065 A 
HETATM   23  C   UNL     1      30.007  43.020  53.305  1.00  0.00     0.037 A 
HETATM   24  C   UNL     1      29.196  43.468  52.259  1.00  0.00     0.012 A 
BRANCH  22  25
HETATM   25  O   UNL     1      30.451  42.808  55.609  1.00  0.00    -0.361 OA
HETATM   26  H   UNL     1      31.369  42.900  55.307  1.00  0.00     0.217 HD
ENDBRANCH  22  25
ENDBRANCH  12  19
TORSDOF 2
ENDMDL
MODEL 9
REMARK VINA RESULT:      -9.1      6.264      9.384
REMARK  2 active torsions:
REMARK  status: ('A' for Active; 'I' for Inactive)
REMARK    1  A    between atoms: C_12  and  C_13 
REMARK    2  A    between atoms: C_16  and  O_17 
ROOT
HETATM    1  C   UNL     1      24.644  43.516  49.295  1.00  0.00     0.002 A 
HETATM    2  C   UNL     1      23.908  44.699  49.242  1.00  0.00     0.026 A 
HETATM    3  C   UNL     1      24.477  45.908  49.656  1.00  0.00     0.036 A 
HETATM    4  C   UNL     1      25.820  45.941  50.098  1.00  0.00     0.053 A 
HETATM    5  N   UNL     1      26.473  47.156  50.438  1.00  0.00    -0.356 N 
HETATM    6  C   UNL     1      26.372  48.279  49.635  1.00  0.00     0.041 A 
HETATM    7  C   UNL     1      25.353  48.654  48.843  1.00  0.00     0.056 A 
HETATM    8  C   UNL     1      25.836  49.796  48.047  1.00  0.00     0.251 A 
HETATM    9  O   UNL     1      25.266  50.330  47.117  1.00  0.00    -0.268 OA
HETATM   10  N   UNL     1      27.083  50.123  48.514  1.00  0.00    -0.351 N 
HETATM   11  C   UNL     1      27.543  49.218  49.510  1.00  0.00     0.180 A 
HETATM   12  C   UNL     1      23.989  48.081  48.647  1.00  0.00     0.134 C 
HETATM   13  N   UNL     1      23.661  47.062  49.669  1.00  0.00    -0.278 NA
HETATM   14  C   UNL     1      26.539  44.738  50.165  1.00  0.00     0.031 A 
HETATM   15  C   UNL     1      25.955  43.533  49.765  1.00  0.00     0.002 A 
HETATM   16  H   UNL     1      27.408  46.998  50.805  1.00  0.00     0.166 HD
HETATM   17  H   UNL     1      27.629  50.848  48.068  1.00  0.00     0.163 HD
HETATM   18  H   UNL     1      23.814  47.493  50.581  1.00  0.00     0.128 HD
ENDROOT
BRANCH  12  19
HETATM   19  C   UNL     1      22.885  49.138  48.737  1.00  0.00    -0.035 A 
HETATM   20  C   UNL     1      22.803  49.978  49.862  1.00  0.00     0.012 A 
HETATM   21  C   UNL     1      21.798  50.944  49.962  1.00  0.00     0.037 A 
HETATM   22  C   UNL     1      20.872  51.080  48.934  1.00  0.00     0.065 A 
HETATM   23  C   UNL     1      20.931  50.266  47.811  1.00  0.00     0.037 A 
HETATM   24  C   UNL     1      21.932  49.297  47.712  1.00  0.00     0.012 A 
BRANCH  22  25
HETATM   25  O   UNL     1      19.875  52.009  48.993  1.00  0.00    -0.361 OA
HETATM   26  H   UNL     1      19.066  51.568  49.299  1.00  0.00     0.217 HD
ENDBRANCH  22  25
ENDBRANCH  12  19
TORSDOF 2
ENDMDL
MODEL 10
REMARK VINA RESULT:      -8.9      4.215      6.583
REMARK  2 active torsions:
REMARK  status: ('A' for Active; 'I' for Inactive)
REMARK    1  A    between atoms: C_12  and  C_13 
REMARK    2  A    between atoms: C_16  and  O_17 
ROOT
HETATM    1  C   UNL     1      24.113  50.378  48.100  1.00  0.00     0.002 A 
HETATM    2  C   UNL     1      24.629  49.384  48.931  1.00  0.00     0.026 A 
HETATM    3  C   UNL     1      23.858  48.265  49.263  1.00  0.00     0.036 A 
HETATM    4  C   UNL     1      22.559  48.119  48.723  1.00  0.00     0.053 A 
HETATM    5  N   UNL     1      21.774  46.956  48.952  1.00  0.00    -0.356 N 
HETATM    6  C   UNL     1      22.313  45.687  48.839  1.00  0.00     0.041 A 
HETATM    7  C   UNL     1      23.577  45.290  49.066  1.00  0.00     0.056 A 
HETATM    8  C   UNL     1      23.673  43.899  48.591  1.00  0.00     0.251 A 
HETATM    9  O   UNL     1      24.683  43.230  48.489  1.00  0.00    -0.268 OA
HETATM   10  N   UNL     1      22.413  43.501  48.229  1.00  0.00    -0.351 N 
HETATM   11  C   UNL     1      21.464  44.556  48.322  1.00  0.00     0.180 A 
HETATM   12  C   UNL     1      24.761  46.019  49.606  1.00  0.00     0.134 C 
HETATM   13  N   UNL     1      24.392  47.333  50.180  1.00  0.00    -0.278 NA
HETATM   14  C   UNL     1      22.048  49.138  47.906  1.00  0.00     0.031 A 
HETATM   15  C   UNL     1      22.820  50.260  47.595  1.00  0.00     0.002 A 
HETATM   16  H   UNL     1      20.841  47.042  48.557  1.00  0.00     0.166 HD
HETATM   17  H   UNL     1      22.256  42.591  47.817  1.00  0.00     0.163 HD
HETATM   18  H   UNL     1      23.650  47.164  50.860  1.00  0.00     0.128 HD
ENDROOT
BRANCH  12  19
HETATM   19  C   UNL     1      25.466  45.252  50.728  1.00  0.00    -0.035 A 
HETATM   20  C   UNL     1      26.807  44.856  50.577  1.00  0.00     0.012 A 
HETATM   21  C   UNL     1      27.463  44.150  51.589  1.00  0.00     0.037 A 
HETATM   22  C   UNL     1      26.783  43.841  52.763  1.00  0.00     0.065 A 
HETATM   23  C   UNL     1      25.460  44.222  52.939  1.00  0.00     0.037 A 
HETATM   24  C   UNL     1      24.802  44.923  51.926  1.00  0.00     0.012 A 
BRANCH  22  25
HETATM   25  O   UNL     1      27.387  43.153  53.774  1.00  0.00    -0.361 OA
HETATM   26  H   UNL     1      26.703  42.883  54.408  1.00  0.00     0.217 HD
ENDBRANCH  22  25
ENDBRANCH  12  19
TORSDOF 2
ENDMDL
