MODEL 1
REMARK VINA RESULT:      -8.5      0.000      0.000
REMARK  3 active torsions:
REMARK  status: ('A' for Active; 'I' for Inactive)
REMARK    1  A    between atoms: O_2  and  C_3 
REMARK    2  A    between atoms: C_4  and  N_5 
REMARK       I    between atoms: N_5  and  C_6 
REMARK       I    between atoms: C_6  and  N_7 
REMARK    3  A    between atoms: C_8  and  C_9 
ROOT
HETATM    1  N   UNL     1      25.248  42.953  50.114  1.00  0.00    -0.306 N 
HETATM    2  C   UNL     1      25.239  44.333  50.058  1.00  0.00     0.323 C 
HETATM    3  N   UNL     1      25.344  44.977  51.317  1.00  0.00    -0.324 N 
HETATM    4  C   UNL     1      25.933  46.341  51.344  1.00  0.00     0.139 C 
HETATM    5  C   UNL     1      25.926  47.013  52.740  1.00  0.00     0.032 C 
HETATM    6  C   UNL     1      26.312  46.079  53.868  1.00  0.00     0.004 C 
HETATM    7  C   UNL     1      25.376  44.889  53.841  1.00  0.00     0.020 C 
HETATM    8  C   UNL     1      25.521  44.153  52.521  1.00  0.00     0.128 C 
HETATM    9  O   UNL     1      25.157  44.934  48.992  1.00  0.00    -0.247 OA
HETATM   10  H   UNL     1      25.839  42.528  50.813  1.00  0.00     0.171 HD
ENDROOT
BRANCH   4  11
HETATM   11  C   UNL     1      25.261  47.317  50.416  1.00  0.00     0.033 A 
HETATM   12  N   UNL     1      23.896  47.443  50.313  1.00  0.00    -0.357 N 
HETATM   13  H   UNL     1      23.230  46.839  50.776  1.00  0.00     0.166 HD
HETATM   14  C   UNL     1      23.566  48.475  49.464  1.00  0.00     0.042 A 
HETATM   15  C   UNL     1      24.761  49.002  48.977  1.00  0.00    -0.007 A 
HETATM   16  C   UNL     1      22.313  48.972  49.084  1.00  0.00     0.030 A 
HETATM   17  C   UNL     1      25.816  48.261  49.571  1.00  0.00     0.041 A 
HETATM   18  C   UNL     1      24.710  50.077  48.069  1.00  0.00     0.014 A 
HETATM   19  C   UNL     1      23.467  50.589  47.682  1.00  0.00     0.001 A 
HETATM   20  C   UNL     1      22.288  50.043  48.185  1.00  0.00     0.002 A 
ENDBRANCH   4  11
BRANCH   1  21
HETATM   21  C   UNL     1      24.916  42.075  49.059  1.00  0.00     0.072 A 
HETATM   22  C   UNL     1      25.972  41.538  48.301  1.00  0.00     0.095 A 
HETATM   23  C   UNL     1      25.741  40.586  47.307  1.00  0.00     0.042 A 
HETATM   24  C   UNL     1      24.432  40.189  47.041  1.00  0.00     0.045 A 
HETATM   25  C   UNL     1      23.383  40.741  47.772  1.00  0.00     0.118 A 
HETATM   26  C   UNL     1      23.610  41.678  48.777  1.00  0.00     0.074 A 
HETATM   27  F   UNL     1      22.130  40.342  47.514  1.00  0.00    -0.206 F 
BRANCH  22  28
HETATM   28  O   UNL     1      27.263  41.938  48.559  1.00  0.00    -0.354 OA
HETATM   29  C   UNL     1      28.126  40.795  48.553  1.00  0.00     0.210 C 
ENDBRANCH  22  28
ENDBRANCH   1  21
TORSDOF 3
ENDMDL
MODEL 2
REMARK VINA RESULT:      -8.3      3.560      5.886
REMARK  3 active torsions:
REMARK  status: ('A' for Active; 'I' for Inactive)
REMARK    1  A    between atoms: O_2  and  C_3 
REMARK    2  A    between atoms: C_4  and  N_5 
REMARK       I    between atoms: N_5  and  C_6 
REMARK       I    between atoms: C_6  and  N_7 
REMARK    3  A    between atoms: C_8  and  C_9 
ROOT
HETATM    1  N   UNL     1      26.682  44.122  53.380  1.00  0.00    -0.306 N 
HETATM    2  C   UNL     1      26.110  44.958  52.441  1.00  0.00     0.323 C 
HETATM    3  N   UNL     1      25.411  44.291  51.403  1.00  0.00    -0.324 N 
HETATM    4  C   UNL     1      24.309  45.028  50.734  1.00  0.00     0.139 C 
HETATM    5  C   UNL     1      23.658  44.270  49.550  1.00  0.00     0.032 C 
HETATM    6  C   UNL     1      23.430  42.797  49.821  1.00  0.00     0.004 C 
HETATM    7  C   UNL     1      24.757  42.172  50.194  1.00  0.00     0.020 C 
HETATM    8  C   UNL     1      25.296  42.826  51.453  1.00  0.00     0.128 C 
HETATM    9  O   UNL     1      26.203  46.178  52.523  1.00  0.00    -0.247 OA
HETATM   10  H   UNL     1      26.171  43.284  53.618  1.00  0.00     0.171 HD
ENDROOT
BRANCH   4  11
HETATM   11  C   UNL     1      24.712  46.371  50.187  1.00  0.00     0.033 A 
HETATM   12  N   UNL     1      26.020  46.736  49.971  1.00  0.00    -0.357 N 
HETATM   13  H   UNL     1      26.820  46.179  50.240  1.00  0.00     0.166 HD
HETATM   14  C   UNL     1      26.087  47.976  49.377  1.00  0.00     0.042 A 
HETATM   15  C   UNL     1      24.778  48.437  49.245  1.00  0.00    -0.007 A 
HETATM   16  C   UNL     1      27.195  48.723  48.960  1.00  0.00     0.030 A 
HETATM   17  C   UNL     1      23.926  47.429  49.766  1.00  0.00     0.041 A 
HETATM   18  C   UNL     1      24.559  49.703  48.668  1.00  0.00     0.014 A 
HETATM   19  C   UNL     1      25.654  50.461  48.242  1.00  0.00     0.001 A 
HETATM   20  C   UNL     1      26.952  49.975  48.386  1.00  0.00     0.002 A 
ENDBRANCH   4  11
BRANCH   1  21
HETATM   21  C   UNL     1      27.624  44.495  54.364  1.00  0.00     0.072 A 
HETATM   22  C   UNL     1      28.842  43.793  54.400  1.00  0.00     0.095 A 
HETATM   23  C   UNL     1      29.867  44.163  55.272  1.00  0.00     0.042 A 
HETATM   24  C   UNL     1      29.660  45.228  56.147  1.00  0.00     0.045 A 
HETATM   25  C   UNL     1      28.444  45.906  56.131  1.00  0.00     0.118 A 
HETATM   26  C   UNL     1      27.424  45.552  55.250  1.00  0.00     0.074 A 
HETATM   27  F   UNL     1      28.263  46.935  56.969  1.00  0.00    -0.206 F 
BRANCH  22  28
HETATM   28  O   UNL     1      29.041  42.736  53.542  1.00  0.00    -0.354 OA
HETATM   29  C   UNL     1      30.394  42.750  53.075  1.00  0.00     0.210 C 
ENDBRANCH  22  28
ENDBRANCH   1  21
TORSDOF 3
ENDMDL
MODEL 3
REMARK VINA RESULT:      -8.0      3.069      7.406
REMARK  3 active torsions:
REMARK  status: ('A' for Active; 'I' for Inactive)
REMARK    1  A    between atoms: O_2  and  C_3 
REMARK    2  A    between atoms: C_4  and  N_5 
REMARK       I    between atoms: N_5  and  C_6 
REMARK       I    between atoms: C_6  and  N_7 
REMARK    3  A    between atoms: C_8  and  C_9 
ROOT
HETATM    1  N   UNL     1      22.377  47.335  48.374  1.00  0.00    -0.306 N 
HETATM    2  C   UNL     1      23.329  46.576  49.024  1.00  0.00     0.323 C 
HETATM    3  N   UNL     1      23.348  45.207  48.654  1.00  0.00    -0.324 N 
HETATM    4  C   UNL     1      24.632  44.474  48.800  1.00  0.00     0.139 C 
HETATM    5  C   UNL     1      24.548  42.963  48.466  1.00  0.00     0.032 C 
HETATM    6  C   UNL     1      23.722  42.657  47.234  1.00  0.00     0.004 C 
HETATM    7  C   UNL     1      22.339  43.240  47.432  1.00  0.00     0.020 C 
HETATM    8  C   UNL     1      22.437  44.747  47.597  1.00  0.00     0.128 C 
HETATM    9  O   UNL     1      24.096  47.069  49.845  1.00  0.00    -0.247 OA
HETATM   10  H   UNL     1      22.189  47.105  47.409  1.00  0.00     0.171 HD
ENDROOT
BRANCH   4  11
HETATM   11  C   UNL     1      25.231  44.555  50.178  1.00  0.00     0.033 A 
HETATM   12  N   UNL     1      24.492  44.432  51.331  1.00  0.00    -0.357 N 
HETATM   13  H   UNL     1      23.484  44.367  51.358  1.00  0.00     0.166 HD
HETATM   14  C   UNL     1      25.311  44.449  52.438  1.00  0.00     0.042 A 
HETATM   15  C   UNL     1      26.614  44.630  51.979  1.00  0.00    -0.007 A 
HETATM   16  C   UNL     1      25.000  44.331  53.798  1.00  0.00     0.030 A 
HETATM   17  C   UNL     1      26.552  44.706  50.563  1.00  0.00     0.041 A 
HETATM   18  C   UNL     1      27.662  44.694  52.917  1.00  0.00     0.014 A 
HETATM   19  C   UNL     1      27.370  44.573  54.280  1.00  0.00     0.001 A 
HETATM   20  C   UNL     1      26.057  44.394  54.710  1.00  0.00     0.002 A 
ENDBRANCH   4  11
BRANCH   1  21
HETATM   21  C   UNL     1      21.978  48.645  48.720  1.00  0.00     0.072 A 
HETATM   22  C   UNL     1      22.722  49.714  48.189  1.00  0.00     0.095 A 
HETATM   23  C   UNL     1      22.337  51.040  48.398  1.00  0.00     0.042 A 
HETATM   24  C   UNL     1      21.213  51.304  49.177  1.00  0.00     0.045 A 
HETATM   25  C   UNL     1      20.492  50.247  49.726  1.00  0.00     0.118 A 
HETATM   26  C   UNL     1      20.861  48.922  49.507  1.00  0.00     0.074 A 
HETATM   27  F   UNL     1      19.406  50.514  50.465  1.00  0.00    -0.206 F 
BRANCH  22  28
HETATM   28  O   UNL     1      23.837  49.452  47.427  1.00  0.00    -0.354 OA
HETATM   29  C   UNL     1      24.985  50.046  48.043  1.00  0.00     0.210 C 
ENDBRANCH  22  28
ENDBRANCH   1  21
TORSDOF 3
ENDMDL
MODEL 4
REMARK VINA RESULT:      -8.0      4.459      6.688
REMARK  3 active torsions:
REMARK  status: ('A' for Active; 'I' for Inactive)
REMARK    1  A    between atoms: O_2  and  C_3 
REMARK    2  A    between atoms: C_4  and  N_5 
REMARK       I    between atoms: N_5  and  C_6 
REMARK       I    between atoms: C_6  and  N_7 
REMARK    3  A    between atoms: C_8  and  C_9 
ROOT
HETATM    1  N   UNL     1      19.784  47.256  46.752  1.00  0.00    -0.306 N 
HETATM    2  C   UNL     1      20.792  47.861  47.477  1.00  0.00     0.323 C 
HETATM    3  N   UNL     1      20.552  49.218  47.806  1.00  0.00    -0.324 N 
HETATM    4  C   UNL     1      21.215  49.758  49.021  1.00  0.00     0.139 C 
HETATM    5  C   UNL     1      20.979  51.271  49.260  1.00  0.00     0.032 C 
HETATM    6  C   UNL     1      19.553  51.713  49.006  1.00  0.00     0.004 C 
HETATM    7  C   UNL     1      19.182  51.330  47.588  1.00  0.00     0.020 C 
HETATM    8  C   UNL     1      19.267  49.823  47.427  1.00  0.00     0.128 C 
HETATM    9  O   UNL     1      21.803  47.249  47.808  1.00  0.00    -0.247 OA
HETATM   10  H   UNL     1      18.837  47.527  46.973  1.00  0.00     0.171 HD
ENDROOT
BRANCH   4  11
HETATM   11  C   UNL     1      22.708  49.569  49.040  1.00  0.00     0.033 A 
HETATM   12  N   UNL     1      23.333  48.571  49.750  1.00  0.00    -0.357 N 
HETATM   13  H   UNL     1      22.862  47.941  50.385  1.00  0.00     0.166 HD
HETATM   14  C   UNL     1      24.688  48.577  49.506  1.00  0.00     0.042 A 
HETATM   15  C   UNL     1      24.943  49.640  48.642  1.00  0.00    -0.007 A 
HETATM   16  C   UNL     1      25.700  47.738  49.989  1.00  0.00     0.030 A 
HETATM   17  C   UNL     1      23.697  50.261  48.365  1.00  0.00     0.041 A 
HETATM   18  C   UNL     1      26.270  49.881  48.234  1.00  0.00     0.014 A 
HETATM   19  C   UNL     1      27.292  49.050  48.703  1.00  0.00     0.001 A 
HETATM   20  C   UNL     1      27.008  47.994  49.567  1.00  0.00     0.002 A 
ENDBRANCH   4  11
BRANCH   1  21
HETATM   21  C   UNL     1      19.865  46.011  46.091  1.00  0.00     0.072 A 
HETATM   22  C   UNL     1      19.299  44.894  46.732  1.00  0.00     0.095 A 
HETATM   23  C   UNL     1      19.245  43.648  46.106  1.00  0.00     0.042 A 
HETATM   24  C   UNL     1      19.797  43.504  44.835  1.00  0.00     0.045 A 
HETATM   25  C   UNL     1      20.383  44.603  44.211  1.00  0.00     0.118 A 
HETATM   26  C   UNL     1      20.423  45.853  44.824  1.00  0.00     0.074 A 
HETATM   27  F   UNL     1      20.900  44.455  42.984  1.00  0.00    -0.206 F 
BRANCH  22  28
HETATM   28  O   UNL     1      18.763  45.035  47.991  1.00  0.00    -0.354 OA
HETATM   29  C   UNL     1      17.450  45.598  47.890  1.00  0.00     0.210 C 
ENDBRANCH  22  28
ENDBRANCH   1  21
TORSDOF 3
ENDMDL
MODEL 5
REMARK VINA RESULT:      -7.9      4.061      8.474
REMARK  3 active torsions:
REMARK  status: ('A' for Active; 'I' for Inactive)
REMARK    1  A    between atoms: O_2  and  C_3 
REMARK    2  A    between atoms: C_4  and  N_5 
REMARK       I    between atoms: N_5  and  C_6 
REMARK       I    between atoms: C_6  and  N_7 
REMARK    3  A    between atoms: C_8  and  C_9 
ROOT
HETATM    1  N   UNL     1      27.131  44.611  52.626  1.00  0.00    -0.306 N 
HETATM    2  C   UNL     1      27.058  43.645  51.642  1.00  0.00     0.323 C 
HETATM    3  N   UNL     1      25.862  43.664  50.883  1.00  0.00    -0.324 N 
HETATM    4  C   UNL     1      25.919  43.129  49.498  1.00  0.00     0.139 C 
HETATM    5  C   UNL     1      24.552  43.096  48.768  1.00  0.00     0.032 C 
HETATM    6  C   UNL     1      23.714  44.338  48.987  1.00  0.00     0.004 C 
HETATM    7  C   UNL     1      23.521  44.524  50.478  1.00  0.00     0.020 C 
HETATM    8  C   UNL     1      24.870  44.715  51.149  1.00  0.00     0.128 C 
HETATM    9  O   UNL     1      27.974  42.850  51.450  1.00  0.00    -0.247 OA
HETATM   10  H   UNL     1      26.720  45.509  52.417  1.00  0.00     0.171 HD
ENDROOT
BRANCH   4  11
HETATM   11  C   UNL     1      26.467  41.731  49.402  1.00  0.00     0.033 A 
HETATM   12  N   UNL     1      27.727  41.445  48.928  1.00  0.00    -0.357 N 
HETATM   13  H   UNL     1      28.353  42.127  48.524  1.00  0.00     0.166 HD
HETATM   14  C   UNL     1      27.996  40.100  49.046  1.00  0.00     0.042 A 
HETATM   15  C   UNL     1      26.855  39.499  49.575  1.00  0.00    -0.007 A 
HETATM   16  C   UNL     1      29.146  39.374  48.716  1.00  0.00     0.030 A 
HETATM   17  C   UNL     1      25.900  40.528  49.784  1.00  0.00     0.041 A 
HETATM   18  C   UNL     1      26.858  38.108  49.791  1.00  0.00     0.014 A 
HETATM   19  C   UNL     1      28.001  37.367  49.472  1.00  0.00     0.001 A 
HETATM   20  C   UNL     1      29.127  37.994  48.943  1.00  0.00     0.002 A 
ENDBRANCH   4  11
BRANCH   1  21
HETATM   21  C   UNL     1      28.081  44.666  53.671  1.00  0.00     0.072 A 
HETATM   22  C   UNL     1      27.963  45.710  54.605  1.00  0.00     0.095 A 
HETATM   23  C   UNL     1      28.795  45.781  55.723  1.00  0.00     0.042 A 
HETATM   24  C   UNL     1      29.785  44.816  55.893  1.00  0.00     0.045 A 
HETATM   25  C   UNL     1      29.921  43.797  54.953  1.00  0.00     0.118 A 
HETATM   26  C   UNL     1      29.081  43.711  53.845  1.00  0.00     0.074 A 
HETATM   27  F   UNL     1      30.869  42.867  55.134  1.00  0.00    -0.206 F 
BRANCH  22  28
HETATM   28  O   UNL     1      26.991  46.669  54.431  1.00  0.00    -0.354 OA
HETATM   29  C   UNL     1      27.356  47.853  55.149  1.00  0.00     0.210 C 
ENDBRANCH  22  28
ENDBRANCH   1  21
TORSDOF 3
ENDMDL
MODEL 6
REMARK VINA RESULT:      -7.8      3.216      5.834
REMARK  3 active torsions:
REMARK  status: ('A' for Active; 'I' for Inactive)
REMARK    1  A    between atoms: O_2  and  C_3 
REMARK    2  A    between atoms: C_4  and  N_5 
REMARK       I    between atoms: N_5  and  C_6 
REMARK       I    between atoms: C_6  and  N_7 
REMARK    3  A    between atoms: C_8  and  C_9 
ROOT
HETATM    1  N   UNL     1      26.229  45.233  52.670  1.00  0.00    -0.306 N 
HETATM    2  C   UNL     1      25.425  45.821  51.713  1.00  0.00     0.323 C 
HETATM    3  N   UNL     1      25.234  45.043  50.543  1.00  0.00    -0.324 N 
HETATM    4  C   UNL     1      23.986  45.265  49.768  1.00  0.00     0.139 C 
HETATM    5  C   UNL     1      23.895  44.448  48.455  1.00  0.00     0.032 C 
HETATM    6  C   UNL     1      24.367  43.015  48.595  1.00  0.00     0.004 C 
HETATM    7  C   UNL     1      25.788  43.033  49.118  1.00  0.00     0.020 C 
HETATM    8  C   UNL     1      25.824  43.699  50.482  1.00  0.00     0.128 C 
HETATM    9  O   UNL     1      24.918  46.925  51.886  1.00  0.00    -0.247 OA
HETATM   10  H   UNL     1      26.156  44.232  52.776  1.00  0.00     0.171 HD
ENDROOT
BRANCH   4  11
HETATM   11  C   UNL     1      23.755  46.699  49.374  1.00  0.00     0.033 A 
HETATM   12  N   UNL     1      22.561  47.352  49.567  1.00  0.00    -0.357 N 
HETATM   13  H   UNL     1      21.716  46.910  49.902  1.00  0.00     0.166 HD
HETATM   14  C   UNL     1      22.667  48.676  49.204  1.00  0.00     0.042 A 
HETATM   15  C   UNL     1      23.961  48.866  48.725  1.00  0.00    -0.007 A 
HETATM   16  C   UNL     1      21.721  49.708  49.251  1.00  0.00     0.030 A 
HETATM   17  C   UNL     1      24.631  47.619  48.825  1.00  0.00     0.041 A 
HETATM   18  C   UNL     1      24.338  50.146  48.272  1.00  0.00     0.014 A 
HETATM   19  C   UNL     1      23.407  51.189  48.317  1.00  0.00     0.001 A 
HETATM   20  C   UNL     1      22.119  50.970  48.801  1.00  0.00     0.002 A 
ENDBRANCH   4  11
BRANCH   1  21
HETATM   21  C   UNL     1      26.778  45.873  53.804  1.00  0.00     0.072 A 
HETATM   22  C   UNL     1      27.938  45.315  54.369  1.00  0.00     0.095 A 
HETATM   23  C   UNL     1      28.601  45.939  55.427  1.00  0.00     0.042 A 
HETATM   24  C   UNL     1      28.080  47.120  55.952  1.00  0.00     0.045 A 
HETATM   25  C   UNL     1      26.916  47.658  55.410  1.00  0.00     0.118 A 
HETATM   26  C   UNL     1      26.259  47.049  54.343  1.00  0.00     0.074 A 
HETATM   27  F   UNL     1      26.431  48.800  55.916  1.00  0.00    -0.206 F 
BRANCH  22  28
HETATM   28  O   UNL     1      28.446  44.144  53.857  1.00  0.00    -0.354 OA
HETATM   29  C   UNL     1      29.565  43.725  54.645  1.00  0.00     0.210 C 
ENDBRANCH  22  28
ENDBRANCH   1  21
TORSDOF 3
ENDMDL
MODEL 7
REMARK VINA RESULT:      -7.8      3.550      6.540
REMARK  3 active torsions:
REMARK  status: ('A' for Active; 'I' for Inactive)
REMARK    1  A    between atoms: O_2  and  C_3 
REMARK    2  A    between atoms: C_4  and  N_5 
REMARK       I    between atoms: N_5  and  C_6 
REMARK       I    between atoms: C_6  and  N_7 
REMARK    3  A    between atoms: C_8  and  C_9 
ROOT
HETATM    1  N   UNL     1      27.383  42.164  50.043  1.00  0.00    -0.306 N 
HETATM    2  C   UNL     1      27.505  42.870  51.224  1.00  0.00     0.323 C 
HETATM    3  N   UNL     1      27.055  44.212  51.160  1.00  0.00    -0.324 N 
HETATM    4  C   UNL     1      26.584  44.839  52.422  1.00  0.00     0.139 C 
HETATM    5  C   UNL     1      26.198  46.334  52.288  1.00  0.00     0.032 C 
HETATM    6  C   UNL     1      25.413  46.651  51.033  1.00  0.00     0.004 C 
HETATM    7  C   UNL     1      26.225  46.198  49.838  1.00  0.00     0.020 C 
HETATM    8  C   UNL     1      26.452  44.698  49.911  1.00  0.00     0.128 C 
HETATM    9  O   UNL     1      27.960  42.352  52.239  1.00  0.00    -0.247 OA
HETATM   10  H   UNL     1      26.575  42.363  49.473  1.00  0.00     0.171 HD
ENDROOT
BRANCH   4  11
HETATM   11  C   UNL     1      27.579  44.773  53.549  1.00  0.00     0.033 A 
HETATM   12  N   UNL     1      28.586  43.837  53.612  1.00  0.00    -0.357 N 
HETATM   13  H   UNL     1      28.691  43.068  52.966  1.00  0.00     0.166 HD
HETATM   14  C   UNL     1      29.400  44.074  54.697  1.00  0.00     0.042 A 
HETATM   15  C   UNL     1      28.874  45.174  55.372  1.00  0.00    -0.007 A 
HETATM   16  C   UNL     1      30.545  43.398  55.135  1.00  0.00     0.030 A 
HETATM   17  C   UNL     1      27.726  45.596  54.650  1.00  0.00     0.041 A 
HETATM   18  C   UNL     1      29.518  45.627  56.539  1.00  0.00     0.014 A 
HETATM   19  C   UNL     1      30.666  44.967  56.988  1.00  0.00     0.001 A 
HETATM   20  C   UNL     1      31.171  43.869  56.293  1.00  0.00     0.002 A 
ENDBRANCH   4  11
BRANCH   1  21
HETATM   21  C   UNL     1      27.968  40.911  49.758  1.00  0.00     0.072 A 
HETATM   22  C   UNL     1      28.171  40.578  48.406  1.00  0.00     0.095 A 
HETATM   23  C   UNL     1      28.833  39.406  48.039  1.00  0.00     0.042 A 
HETATM   24  C   UNL     1      29.269  38.534  49.035  1.00  0.00     0.045 A 
HETATM   25  C   UNL     1      29.044  38.849  50.372  1.00  0.00     0.118 A 
HETATM   26  C   UNL     1      28.399  40.026  50.745  1.00  0.00     0.074 A 
HETATM   27  F   UNL     1      29.479  38.008  51.320  1.00  0.00    -0.206 F 
BRANCH  22  28
HETATM   28  O   UNL     1      27.731  41.435  47.424  1.00  0.00    -0.354 OA
HETATM   29  C   UNL     1      28.063  40.898  46.139  1.00  0.00     0.210 C 
ENDBRANCH  22  28
ENDBRANCH   1  21
TORSDOF 3
ENDMDL
MODEL 8
REMARK VINA RESULT:      -7.7      3.090      7.557
REMARK  3 active torsions:
REMARK  status: ('A' for Active; 'I' for Inactive)
REMARK    1  A    between atoms: O_2  and  C_3 
REMARK    2  A    between atoms: C_4  and  N_5 
REMARK       I    between atoms: N_5  and  C_6 
REMARK       I    between atoms: C_6  and  N_7 
REMARK    3  A    between atoms: C_8  and  C_9 
ROOT
HETATM    1  N   UNL     1      22.604  46.909  48.519  1.00  0.00    -0.306 N 
HETATM    2  C   UNL     1      23.573  46.176  49.174  1.00  0.00     0.323 C 
HETATM    3  N   UNL     1      23.596  44.798  48.845  1.00  0.00    -0.324 N 
HETATM    4  C   UNL     1      24.887  44.078  48.990  1.00  0.00     0.139 C 
HETATM    5  C   UNL     1      24.808  42.557  48.703  1.00  0.00     0.032 C 
HETATM    6  C   UNL     1      23.962  42.208  47.495  1.00  0.00     0.004 C 
HETATM    7  C   UNL     1      22.579  42.788  47.701  1.00  0.00     0.020 C 
HETATM    8  C   UNL     1      22.669  44.299  47.819  1.00  0.00     0.128 C 
HETATM    9  O   UNL     1      24.351  46.699  49.967  1.00  0.00    -0.247 OA
HETATM   10  H   UNL     1      22.400  46.649  47.565  1.00  0.00     0.171 HD
ENDROOT
BRANCH   4  11
HETATM   11  C   UNL     1      25.510  44.204  50.354  1.00  0.00     0.033 A 
HETATM   12  N   UNL     1      24.782  44.192  51.521  1.00  0.00    -0.357 N 
HETATM   13  H   UNL     1      23.772  44.189  51.563  1.00  0.00     0.166 HD
HETATM   14  C   UNL     1      25.616  44.226  52.615  1.00  0.00     0.042 A 
HETATM   15  C   UNL     1      26.921  44.302  52.132  1.00  0.00    -0.007 A 
HETATM   16  C   UNL     1      25.319  44.207  53.983  1.00  0.00     0.030 A 
HETATM   17  C   UNL     1      26.843  44.299  50.714  1.00  0.00     0.041 A 
HETATM   18  C   UNL     1      27.985  44.360  53.053  1.00  0.00     0.014 A 
HETATM   19  C   UNL     1      27.706  44.337  54.423  1.00  0.00     0.001 A 
HETATM   20  C   UNL     1      26.392  44.261  54.878  1.00  0.00     0.002 A 
ENDBRANCH   4  11
BRANCH   1  21
HETATM   21  C   UNL     1      22.202  48.227  48.833  1.00  0.00     0.072 A 
HETATM   22  C   UNL     1      20.846  48.440  49.135  1.00  0.00     0.095 A 
HETATM   23  C   UNL     1      20.383  49.689  49.553  1.00  0.00     0.042 A 
HETATM   24  C   UNL     1      21.281  50.751  49.636  1.00  0.00     0.045 A 
HETATM   25  C   UNL     1      22.620  50.547  49.309  1.00  0.00     0.118 A 
HETATM   26  C   UNL     1      23.090  49.299  48.909  1.00  0.00     0.074 A 
HETATM   27  F   UNL     1      23.476  51.573  49.404  1.00  0.00    -0.206 F 
BRANCH  22  28
HETATM   28  O   UNL     1      19.958  47.393  49.044  1.00  0.00    -0.354 OA
HETATM   29  C   UNL     1      18.769  47.833  48.378  1.00  0.00     0.210 C 
ENDBRANCH  22  28
ENDBRANCH   1  21
TORSDOF 3
ENDMDL
MODEL 9
REMARK VINA RESULT:      -7.7      2.233      6.685
REMARK  3 active torsions:
REMARK  status: ('A' for Active; 'I' for Inactive)
REMARK    1  A    between atoms: O_2  and  C_3 
REMARK    2  A    between atoms: C_4  and  N_5 
REMARK       I    between atoms: N_5  and  C_6 
REMARK       I    between atoms: C_6  and  N_7 
REMARK    3  A    between atoms: C_8  and  C_9 
ROOT
HETATM    1  N   UNL     1      25.019  47.322  50.966  1.00  0.00    -0.306 N 
HETATM    2  C   UNL     1      25.248  45.964  50.866  1.00  0.00     0.323 C 
HETATM    3  N   UNL     1      25.955  45.402  51.957  1.00  0.00    -0.324 N 
HETATM    4  C   UNL     1      25.734  43.962  52.251  1.00  0.00     0.139 C 
HETATM    5  C   UNL     1      26.613  43.400  53.396  1.00  0.00     0.032 C 
HETATM    6  C   UNL     1      26.732  44.330  54.586  1.00  0.00     0.004 C 
HETATM    7  C   UNL     1      27.271  45.658  54.098  1.00  0.00     0.020 C 
HETATM    8  C   UNL     1      26.308  46.265  53.094  1.00  0.00     0.128 C 
HETATM    9  O   UNL     1      24.851  45.313  49.904  1.00  0.00    -0.247 OA
HETATM   10  H   UNL     1      24.831  47.688  51.888  1.00  0.00     0.171 HD
ENDROOT
BRANCH   4  11
HETATM   11  C   UNL     1      25.965  43.054  51.074  1.00  0.00     0.033 A 
HETATM   12  N   UNL     1      24.950  42.414  50.402  1.00  0.00    -0.357 N 
HETATM   13  H   UNL     1      23.981  42.425  50.689  1.00  0.00     0.166 HD
HETATM   14  C   UNL     1      25.442  41.730  49.313  1.00  0.00     0.042 A 
HETATM   15  C   UNL     1      26.825  41.905  49.312  1.00  0.00    -0.007 A 
HETATM   16  C   UNL     1      24.778  40.968  48.346  1.00  0.00     0.030 A 
HETATM   17  C   UNL     1      27.143  42.727  50.425  1.00  0.00     0.041 A 
HETATM   18  C   UNL     1      27.586  41.294  48.297  1.00  0.00     0.014 A 
HETATM   19  C   UNL     1      26.938  40.533  47.319  1.00  0.00     0.001 A 
HETATM   20  C   UNL     1      25.554  40.374  47.345  1.00  0.00     0.002 A 
ENDBRANCH   4  11
BRANCH   1  21
HETATM   21  C   UNL     1      24.564  48.169  49.930  1.00  0.00     0.072 A 
HETATM   22  C   UNL     1      25.531  48.881  49.199  1.00  0.00     0.095 A 
HETATM   23  C   UNL     1      25.177  49.661  48.096  1.00  0.00     0.042 A 
HETATM   24  C   UNL     1      23.834  49.760  47.740  1.00  0.00     0.045 A 
HETATM   25  C   UNL     1      22.873  49.077  48.481  1.00  0.00     0.118 A 
HETATM   26  C   UNL     1      23.222  48.284  49.571  1.00  0.00     0.074 A 
HETATM   27  F   UNL     1      21.586  49.171  48.120  1.00  0.00    -0.206 F 
BRANCH  22  28
HETATM   28  O   UNL     1      26.856  48.790  49.558  1.00  0.00    -0.354 OA
HETATM   29  C   UNL     1      27.616  49.756  48.824  1.00  0.00     0.210 C 
ENDBRANCH  22  28
ENDBRANCH   1  21
TORSDOF 3
ENDMDL
MODEL 10
REMARK VINA RESULT:      -7.6      2.569      7.014
REMARK  3 active torsions:
REMARK  status: ('A' for Active; 'I' for Inactive)
REMARK    1  A    between atoms: O_2  and  C_3 
REMARK    2  A    between atoms: C_4  and  N_5 
REMARK       I    between atoms: N_5  and  C_6 
REMARK       I    between atoms: C_6  and  N_7 
REMARK    3  A    between atoms: C_8  and  C_9 
ROOT
HETATM    1  N   UNL     1      25.263  45.114  51.439  1.00  0.00    -0.306 N 
HETATM    2  C   UNL     1      25.864  43.873  51.387  1.00  0.00     0.323 C 
HETATM    3  N   UNL     1      26.933  43.695  52.301  1.00  0.00    -0.324 N 
HETATM    4  C   UNL     1      27.229  42.310  52.750  1.00  0.00     0.139 C 
HETATM    5  C   UNL     1      28.469  42.187  53.671  1.00  0.00     0.032 C 
HETATM    6  C   UNL     1      28.561  43.279  54.717  1.00  0.00     0.004 C 
HETATM    7  C   UNL     1      28.549  44.617  54.009  1.00  0.00     0.020 C 
HETATM    8  C   UNL     1      27.250  44.780  53.241  1.00  0.00     0.128 C 
HETATM    9  O   UNL     1      25.481  43.003  50.611  1.00  0.00    -0.247 OA
HETATM   10  H   UNL     1      25.182  45.546  52.348  1.00  0.00     0.171 HD
ENDROOT
BRANCH   4  11
HETATM   11  C   UNL     1      27.458  41.337  51.625  1.00  0.00     0.033 A 
HETATM   12  N   UNL     1      26.579  40.328  51.308  1.00  0.00    -0.357 N 
HETATM   13  H   UNL     1      25.758  40.096  51.850  1.00  0.00     0.166 HD
HETATM   14  C   UNL     1      26.994  39.657  50.180  1.00  0.00     0.042 A 
HETATM   15  C   UNL     1      28.201  40.231  49.784  1.00  0.00    -0.007 A 
HETATM   16  C   UNL     1      26.406  38.589  49.492  1.00  0.00     0.030 A 
HETATM   17  C   UNL     1      28.488  41.275  50.703  1.00  0.00     0.041 A 
HETATM   18  C   UNL     1      28.856  39.721  48.647  1.00  0.00     0.014 A 
HETATM   19  C   UNL     1      28.280  38.657  47.944  1.00  0.00     0.001 A 
HETATM   20  C   UNL     1      27.072  38.102  48.363  1.00  0.00     0.002 A 
ENDBRANCH   4  11
BRANCH   1  21
HETATM   21  C   UNL     1      24.355  45.641  50.493  1.00  0.00     0.072 A 
HETATM   22  C   UNL     1      24.481  47.000  50.154  1.00  0.00     0.095 A 
HETATM   23  C   UNL     1      23.692  47.574  49.157  1.00  0.00     0.042 A 
HETATM   24  C   UNL     1      22.738  46.791  48.511  1.00  0.00     0.045 A 
HETATM   25  C   UNL     1      22.594  45.452  48.866  1.00  0.00     0.118 A 
HETATM   26  C   UNL     1      23.390  44.868  49.848  1.00  0.00     0.074 A 
HETATM   27  F   UNL     1      21.681  44.705  48.229  1.00  0.00    -0.206 F 
BRANCH  22  28
HETATM   28  O   UNL     1      25.416  47.775  50.799  1.00  0.00    -0.354 OA
HETATM   29  C   UNL     1      26.461  48.122  49.883  1.00  0.00     0.210 C 
ENDBRANCH  22  28
ENDBRANCH   1  21
TORSDOF 3
ENDMDL
