MODEL 1
REMARK VINA RESULT:     -10.9      0.000      0.000
REMARK  9 active torsions:
REMARK  status: ('A' for Active; 'I' for Inactive)
REMARK    1  A    between atoms: C_3  and  C_4 
REMARK    2  A    between atoms: C_4  and  C_5 
REMARK    3  A    between atoms: C_5  and  N_6 
REMARK       I    between atoms: N_6  and  C_7 
REMARK    4  A    between atoms: C_7  and  C_8 
REMARK    5  A    between atoms: C_8  and  C_9 
REMARK    6  A    between atoms: C_9  and  C_10 
REMARK    7  A    between atoms: C_9  and  C_26 
REMARK    8  A    between atoms: C_14  and  C_15 
REMARK    9  A    between atoms: C_28  and  N_29 
ROOT
HETATM    1  C   UNL     1      26.251  46.502  51.096  1.00  0.00     0.062 C 
ENDROOT
BRANCH   1   2
HETATM    2  C   UNL     1      25.303  46.559  52.305  1.00  0.00     0.116 C 
BRANCH   2   3
HETATM    3  C   UNL     1      25.946  46.572  53.680  1.00  0.00     0.218 C 
HETATM    4  N   UNL     1      26.795  45.523  53.948  1.00  0.00    -0.361 N 
HETATM    5  H   UNL     1      26.798  44.722  53.326  1.00  0.00     0.162 HD
HETATM    6  O   UNL     1      25.754  47.489  54.476  1.00  0.00    -0.274 OA
BRANCH   4   7
HETATM    7  C   UNL     1      27.455  45.423  55.237  1.00  0.00     0.128 C 
BRANCH   7   8
HETATM    8  C   UNL     1      28.830  46.081  55.247  1.00  0.00     0.079 C 
BRANCH   8   9
HETATM    9  C   UNL     1      29.817  45.229  56.000  1.00  0.00     0.035 A 
HETATM   10  C   UNL     1      30.320  44.055  55.442  1.00  0.00     0.027 A 
HETATM   11  C   UNL     1      31.192  43.274  56.195  1.00  0.00     0.003 A 
HETATM   12  C   UNL     1      31.534  43.677  57.479  1.00  0.00     0.019 A 
HETATM   13  C   UNL     1      30.989  44.855  57.959  1.00  0.00     0.117 A 
HETATM   14  N   UNL     1      30.142  45.634  57.251  1.00  0.00    -0.266 NA
ENDBRANCH   8   9
ENDBRANCH   7   8
ENDBRANCH   4   7
ENDBRANCH   2   3
ENDBRANCH   1   2
BRANCH   1  15
HETATM   15  C   UNL     1      26.069  45.250  50.259  1.00  0.00    -0.021 A 
HETATM   16  C   UNL     1      26.782  44.018  50.458  1.00  0.00    -0.001 A 
HETATM   17  C   UNL     1      26.312  43.096  49.526  1.00  0.00     0.043 A 
HETATM   18  C   UNL     1      27.770  43.598  51.369  1.00  0.00     0.015 A 
HETATM   19  C   UNL     1      26.782  41.775  49.457  1.00  0.00     0.044 A 
HETATM   20  N   UNL     1      25.361  43.739  48.768  1.00  0.00    -0.365 N 
HETATM   21  C   UNL     1      27.764  41.350  50.376  1.00  0.00    -0.005 A 
HETATM   22  C   UNL     1      28.237  42.277  51.320  1.00  0.00     0.015 A 
HETATM   23  H   UNL     1      24.857  43.317  48.000  1.00  0.00     0.165 HD
HETATM   24  C   UNL     1      25.180  45.017  49.222  1.00  0.00     0.097 A 
BRANCH  21  25
HETATM   25  C   UNL     1      28.280  39.965  50.376  1.00  0.00     0.066 A 
HETATM   26  N   UNL     1      27.711  39.126  49.472  1.00  0.00    -0.260 NA
HETATM   27  C   UNL     1      28.152  37.850  49.426  1.00  0.00     0.117 A 
HETATM   28  C   UNL     1      29.141  37.347  50.250  1.00  0.00     0.019 A 
HETATM   29  C   UNL     1      29.713  38.206  51.180  1.00  0.00     0.004 A 
HETATM   30  C   UNL     1      29.280  39.529  51.246  1.00  0.00     0.032 A 
ENDBRANCH  21  25
ENDBRANCH   1  15
BRANCH   1  31
HETATM   31  C   UNL     1      26.335  47.700  50.149  1.00  0.00    -0.047 A 
HETATM   32  C   UNL     1      25.147  48.331  49.720  1.00  0.00     0.043 A 
HETATM   33  C   UNL     1      25.188  49.420  48.836  1.00  0.00     0.103 A 
HETATM   34  C   UNL     1      26.408  49.893  48.345  1.00  0.00     0.036 A 
HETATM   35  C   UNL     1      27.585  49.263  48.739  1.00  0.00     0.003 A 
HETATM   36  C   UNL     1      27.547  48.180  49.625  1.00  0.00     0.008 A 
BRANCH  33  37
HETATM   37  N   UNL     1      23.940  50.074  48.425  1.00  0.00    -0.116 N 
HETATM   38  O   UNL     1      23.251  50.613  49.304  1.00  0.00    -0.532 OA
HETATM   39  O   UNL     1      23.647  50.053  47.220  1.00  0.00    -0.532 OA
ENDBRANCH  33  37
ENDBRANCH   1  31
TORSDOF 9
ENDMDL
MODEL 2
REMARK VINA RESULT:     -10.5      2.901      7.682
REMARK  9 active torsions:
REMARK  status: ('A' for Active; 'I' for Inactive)
REMARK    1  A    between atoms: C_3  and  C_4 
REMARK    2  A    between atoms: C_4  and  C_5 
REMARK    3  A    between atoms: C_5  and  N_6 
REMARK       I    between atoms: N_6  and  C_7 
REMARK    4  A    between atoms: C_7  and  C_8 
REMARK    5  A    between atoms: C_8  and  C_9 
REMARK    6  A    between atoms: C_9  and  C_10 
REMARK    7  A    between atoms: C_9  and  C_26 
REMARK    8  A    between atoms: C_14  and  C_15 
REMARK    9  A    between atoms: C_28  and  N_29 
ROOT
HETATM    1  C   UNL     1      24.944  45.836  51.101  1.00  0.00     0.062 C 
ENDROOT
BRANCH   1   2
HETATM    2  C   UNL     1      23.721  45.057  50.590  1.00  0.00     0.116 C 
BRANCH   2   3
HETATM    3  C   UNL     1      23.454  45.101  49.096  1.00  0.00     0.218 C 
HETATM    4  N   UNL     1      22.346  45.821  48.713  1.00  0.00    -0.361 N 
HETATM    5  H   UNL     1      21.676  46.106  49.420  1.00  0.00     0.162 HD
HETATM    6  O   UNL     1      24.211  44.569  48.287  1.00  0.00    -0.274 OA
BRANCH   4   7
HETATM    7  C   UNL     1      21.984  45.921  47.311  1.00  0.00     0.128 C 
BRANCH   7   8
HETATM    8  C   UNL     1      20.544  46.376  47.106  1.00  0.00     0.079 C 
BRANCH   8   9
HETATM    9  C   UNL     1      20.133  47.335  48.191  1.00  0.00     0.035 A 
HETATM   10  C   UNL     1      18.929  47.170  48.872  1.00  0.00     0.027 A 
HETATM   11  C   UNL     1      18.567  48.110  49.833  1.00  0.00     0.003 A 
HETATM   12  C   UNL     1      19.407  49.187  50.085  1.00  0.00     0.019 A 
HETATM   13  C   UNL     1      20.584  49.278  49.362  1.00  0.00     0.117 A 
HETATM   14  N   UNL     1      20.961  48.380  48.426  1.00  0.00    -0.266 NA
ENDBRANCH   8   9
ENDBRANCH   7   8
ENDBRANCH   4   7
ENDBRANCH   2   3
ENDBRANCH   1   2
BRANCH   1  15
HETATM   15  C   UNL     1      26.114  44.938  51.453  1.00  0.00    -0.021 A 
HETATM   16  C   UNL     1      26.939  45.084  52.622  1.00  0.00    -0.001 A 
HETATM   17  C   UNL     1      27.874  44.052  52.617  1.00  0.00     0.043 A 
HETATM   18  C   UNL     1      26.954  45.991  53.698  1.00  0.00     0.015 A 
HETATM   19  C   UNL     1      28.825  43.883  53.635  1.00  0.00     0.044 A 
HETATM   20  N   UNL     1      27.649  43.310  51.482  1.00  0.00    -0.365 N 
HETATM   21  C   UNL     1      28.835  44.784  54.720  1.00  0.00    -0.005 A 
HETATM   22  C   UNL     1      27.890  45.823  54.729  1.00  0.00     0.015 A 
HETATM   23  H   UNL     1      28.190  42.502  51.207  1.00  0.00     0.165 HD
HETATM   24  C   UNL     1      26.574  43.809  50.796  1.00  0.00     0.097 A 
BRANCH  21  25
HETATM   25  C   UNL     1      29.792  44.644  55.838  1.00  0.00     0.066 A 
HETATM   26  N   UNL     1      29.685  45.575  56.821  1.00  0.00    -0.260 NA
HETATM   27  C   UNL     1      30.532  45.489  57.870  1.00  0.00     0.117 A 
HETATM   28  C   UNL     1      31.505  44.514  57.996  1.00  0.00     0.019 A 
HETATM   29  C   UNL     1      31.616  43.570  56.984  1.00  0.00     0.004 A 
HETATM   30  C   UNL     1      30.752  43.634  55.892  1.00  0.00     0.032 A 
ENDBRANCH  21  25
ENDBRANCH   1  15
BRANCH   1  31
HETATM   31  C   UNL     1      25.477  47.016  50.286  1.00  0.00    -0.047 A 
HETATM   32  C   UNL     1      24.578  48.002  49.821  1.00  0.00     0.043 A 
HETATM   33  C   UNL     1      25.032  49.087  49.055  1.00  0.00     0.103 A 
HETATM   34  C   UNL     1      26.383  49.204  48.718  1.00  0.00     0.036 A 
HETATM   35  C   UNL     1      27.275  48.226  49.147  1.00  0.00     0.003 A 
HETATM   36  C   UNL     1      26.825  47.146  49.916  1.00  0.00     0.008 A 
BRANCH  33  37
HETATM   37  N   UNL     1      24.082  50.111  48.605  1.00  0.00    -0.116 N 
HETATM   38  O   UNL     1      23.572  50.845  49.464  1.00  0.00    -0.532 OA
HETATM   39  O   UNL     1      23.845  50.185  47.390  1.00  0.00    -0.532 OA
ENDBRANCH  33  37
ENDBRANCH   1  31
TORSDOF 9
ENDMDL
MODEL 3
REMARK VINA RESULT:     -10.0      3.311      7.892
REMARK  9 active torsions:
REMARK  status: ('A' for Active; 'I' for Inactive)
REMARK    1  A    between atoms: C_3  and  C_4 
REMARK    2  A    between atoms: C_4  and  C_5 
REMARK    3  A    between atoms: C_5  and  N_6 
REMARK       I    between atoms: N_6  and  C_7 
REMARK    4  A    between atoms: C_7  and  C_8 
REMARK    5  A    between atoms: C_8  and  C_9 
REMARK    6  A    between atoms: C_9  and  C_10 
REMARK    7  A    between atoms: C_9  and  C_26 
REMARK    8  A    between atoms: C_14  and  C_15 
REMARK    9  A    between atoms: C_28  and  N_29 
ROOT
HETATM    1  C   UNL     1      26.471  42.133  49.951  1.00  0.00     0.062 C 
ENDROOT
BRANCH   1   2
HETATM    2  C   UNL     1      25.078  42.283  50.585  1.00  0.00     0.116 C 
BRANCH   2   3
HETATM    3  C   UNL     1      24.624  43.693  50.916  1.00  0.00     0.218 C 
HETATM    4  N   UNL     1      24.701  44.598  49.883  1.00  0.00    -0.361 N 
HETATM    5  H   UNL     1      25.220  44.349  49.048  1.00  0.00     0.162 HD
HETATM    6  O   UNL     1      24.171  43.985  52.020  1.00  0.00    -0.274 OA
BRANCH   4   7
HETATM    7  C   UNL     1      24.307  45.980  50.087  1.00  0.00     0.128 C 
BRANCH   7   8
HETATM    8  C   UNL     1      25.394  46.808  50.763  1.00  0.00     0.079 C 
BRANCH   8   9
HETATM    9  C   UNL     1      25.824  47.942  49.871  1.00  0.00     0.035 A 
HETATM   10  C   UNL     1      27.173  48.258  49.717  1.00  0.00     0.027 A 
HETATM   11  C   UNL     1      27.521  49.346  48.922  1.00  0.00     0.003 A 
HETATM   12  C   UNL     1      26.522  50.091  48.309  1.00  0.00     0.019 A 
HETATM   13  C   UNL     1      25.208  49.712  48.515  1.00  0.00     0.117 A 
HETATM   14  N   UNL     1      24.840  48.660  49.279  1.00  0.00    -0.266 NA
ENDBRANCH   8   9
ENDBRANCH   7   8
ENDBRANCH   4   7
ENDBRANCH   2   3
ENDBRANCH   1   2
BRANCH   1  15
HETATM   15  C   UNL     1      27.520  41.648  50.934  1.00  0.00    -0.021 A 
HETATM   16  C   UNL     1      28.053  42.427  52.018  1.00  0.00    -0.001 A 
HETATM   17  C   UNL     1      28.954  41.628  52.717  1.00  0.00     0.043 A 
HETATM   18  C   UNL     1      27.827  43.738  52.481  1.00  0.00     0.015 A 
HETATM   19  C   UNL     1      29.643  42.075  53.856  1.00  0.00     0.044 A 
HETATM   20  N   UNL     1      28.992  40.411  52.079  1.00  0.00    -0.365 N 
HETATM   21  C   UNL     1      29.410  43.384  54.327  1.00  0.00    -0.005 A 
HETATM   22  C   UNL     1      28.498  44.190  53.626  1.00  0.00     0.015 A 
HETATM   23  H   UNL     1      29.574  39.634  52.359  1.00  0.00     0.165 HD
HETATM   24  C   UNL     1      28.109  40.398  51.033  1.00  0.00     0.097 A 
BRANCH  21  25
HETATM   25  C   UNL     1      30.081  43.905  55.537  1.00  0.00     0.066 A 
HETATM   26  N   UNL     1      29.679  45.136  55.947  1.00  0.00    -0.260 NA
HETATM   27  C   UNL     1      30.256  45.656  57.052  1.00  0.00     0.117 A 
HETATM   28  C   UNL     1      31.236  45.012  57.783  1.00  0.00     0.019 A 
HETATM   29  C   UNL     1      31.651  43.758  57.355  1.00  0.00     0.004 A 
HETATM   30  C   UNL     1      31.069  43.196  56.220  1.00  0.00     0.032 A 
ENDBRANCH  21  25
ENDBRANCH   1  15
BRANCH   1  31
HETATM   31  C   UNL     1      26.626  41.334  48.656  1.00  0.00    -0.047 A 
HETATM   32  C   UNL     1      25.577  40.490  48.231  1.00  0.00     0.043 A 
HETATM   33  C   UNL     1      25.695  39.729  47.058  1.00  0.00     0.103 A 
HETATM   34  C   UNL     1      26.864  39.774  46.294  1.00  0.00     0.036 A 
HETATM   35  C   UNL     1      27.916  40.581  46.716  1.00  0.00     0.003 A 
HETATM   36  C   UNL     1      27.799  41.346  47.883  1.00  0.00     0.008 A 
BRANCH  33  37
HETATM   37  N   UNL     1      24.580  38.878  46.624  1.00  0.00    -0.116 N 
HETATM   38  O   UNL     1      23.427  39.285  46.830  1.00  0.00    -0.532 OA
HETATM   39  O   UNL     1      24.855  37.801  46.074  1.00  0.00    -0.532 OA
ENDBRANCH  33  37
ENDBRANCH   1  31
TORSDOF 9
ENDMDL
MODEL 4
REMARK VINA RESULT:      -9.8      3.271      8.774
REMARK  9 active torsions:
REMARK  status: ('A' for Active; 'I' for Inactive)
REMARK    1  A    between atoms: C_3  and  C_4 
REMARK    2  A    between atoms: C_4  and  C_5 
REMARK    3  A    between atoms: C_5  and  N_6 
REMARK       I    between atoms: N_6  and  C_7 
REMARK    4  A    between atoms: C_7  and  C_8 
REMARK    5  A    between atoms: C_8  and  C_9 
REMARK    6  A    between atoms: C_9  and  C_10 
REMARK    7  A    between atoms: C_9  and  C_26 
REMARK    8  A    between atoms: C_14  and  C_15 
REMARK    9  A    between atoms: C_28  and  N_29 
ROOT
HETATM    1  C   UNL     1      26.345  43.492  49.836  1.00  0.00     0.062 C 
ENDROOT
BRANCH   1   2
HETATM    2  C   UNL     1      25.422  44.466  49.086  1.00  0.00     0.116 C 
BRANCH   2   3
HETATM    3  C   UNL     1      25.599  45.944  49.383  1.00  0.00     0.218 C 
HETATM    4  N   UNL     1      24.437  46.648  49.603  1.00  0.00    -0.361 N 
HETATM    5  H   UNL     1      23.550  46.217  49.369  1.00  0.00     0.162 HD
HETATM    6  O   UNL     1      26.712  46.459  49.469  1.00  0.00    -0.274 OA
BRANCH   4   7
HETATM    7  C   UNL     1      24.483  48.072  49.881  1.00  0.00     0.128 C 
BRANCH   7   8
HETATM    8  C   UNL     1      24.161  48.922  48.658  1.00  0.00     0.079 C 
BRANCH   8   9
HETATM    9  C   UNL     1      22.754  49.451  48.738  1.00  0.00     0.035 A 
HETATM   10  C   UNL     1      22.471  50.780  48.431  1.00  0.00     0.027 A 
HETATM   11  C   UNL     1      21.164  51.238  48.567  1.00  0.00     0.003 A 
HETATM   12  C   UNL     1      20.178  50.364  49.009  1.00  0.00     0.019 A 
HETATM   13  C   UNL     1      20.543  49.061  49.296  1.00  0.00     0.117 A 
HETATM   14  N   UNL     1      21.802  48.589  49.170  1.00  0.00    -0.266 NA
ENDBRANCH   8   9
ENDBRANCH   7   8
ENDBRANCH   4   7
ENDBRANCH   2   3
ENDBRANCH   1   2
BRANCH   1  15
HETATM   15  C   UNL     1      26.213  43.592  51.343  1.00  0.00    -0.021 A 
HETATM   16  C   UNL     1      27.316  43.658  52.262  1.00  0.00    -0.001 A 
HETATM   17  C   UNL     1      26.796  43.786  53.548  1.00  0.00     0.043 A 
HETATM   18  C   UNL     1      28.716  43.646  52.109  1.00  0.00     0.015 A 
HETATM   19  C   UNL     1      27.606  43.900  54.689  1.00  0.00     0.044 A 
HETATM   20  N   UNL     1      25.426  43.779  53.430  1.00  0.00    -0.365 N 
HETATM   21  C   UNL     1      29.008  43.899  54.536  1.00  0.00    -0.005 A 
HETATM   22  C   UNL     1      29.535  43.774  53.240  1.00  0.00     0.015 A 
HETATM   23  H   UNL     1      24.783  43.842  54.207  1.00  0.00     0.165 HD
HETATM   24  C   UNL     1      25.066  43.702  52.112  1.00  0.00     0.097 A 
BRANCH  21  25
HETATM   25  C   UNL     1      29.916  44.044  55.693  1.00  0.00     0.066 A 
HETATM   26  N   UNL     1      29.729  45.157  56.450  1.00  0.00    -0.260 NA
HETATM   27  C   UNL     1      30.528  45.335  57.524  1.00  0.00     0.117 A 
HETATM   28  C   UNL     1      31.529  44.455  57.893  1.00  0.00     0.019 A 
HETATM   29  C   UNL     1      31.723  43.324  57.111  1.00  0.00     0.004 A 
HETATM   30  C   UNL     1      30.910  43.114  55.999  1.00  0.00     0.032 A 
ENDBRANCH  21  25
ENDBRANCH   1  15
BRANCH   1  31
HETATM   31  C   UNL     1      26.343  42.011  49.455  1.00  0.00    -0.047 A 
HETATM   32  C   UNL     1      27.366  41.167  49.943  1.00  0.00     0.043 A 
HETATM   33  C   UNL     1      27.404  39.807  49.597  1.00  0.00     0.103 A 
HETATM   34  C   UNL     1      26.442  39.262  48.743  1.00  0.00     0.036 A 
HETATM   35  C   UNL     1      25.445  40.089  48.233  1.00  0.00     0.003 A 
HETATM   36  C   UNL     1      25.400  41.444  48.582  1.00  0.00     0.008 A 
BRANCH  33  37
HETATM   37  N   UNL     1      28.463  38.946  50.138  1.00  0.00    -0.116 N 
HETATM   38  O   UNL     1      28.631  37.836  49.613  1.00  0.00    -0.532 OA
HETATM   39  O   UNL     1      29.131  39.380  51.088  1.00  0.00    -0.532 OA
ENDBRANCH  33  37
ENDBRANCH   1  31
TORSDOF 9
ENDMDL
MODEL 5
REMARK VINA RESULT:      -9.7      2.286      6.812
REMARK  9 active torsions:
REMARK  status: ('A' for Active; 'I' for Inactive)
REMARK    1  A    between atoms: C_3  and  C_4 
REMARK    2  A    between atoms: C_4  and  C_5 
REMARK    3  A    between atoms: C_5  and  N_6 
REMARK       I    between atoms: N_6  and  C_7 
REMARK    4  A    between atoms: C_7  and  C_8 
REMARK    5  A    between atoms: C_8  and  C_9 
REMARK    6  A    between atoms: C_9  and  C_10 
REMARK    7  A    between atoms: C_9  and  C_26 
REMARK    8  A    between atoms: C_14  and  C_15 
REMARK    9  A    between atoms: C_28  and  N_29 
ROOT
HETATM    1  C   UNL     1      25.058  45.877  51.061  1.00  0.00     0.062 C 
ENDROOT
BRANCH   1   2
HETATM    2  C   UNL     1      23.846  45.065  50.575  1.00  0.00     0.116 C 
BRANCH   2   3
HETATM    3  C   UNL     1      24.096  44.053  49.472  1.00  0.00     0.218 C 
HETATM    4  N   UNL     1      23.941  42.734  49.831  1.00  0.00    -0.361 N 
HETATM    5  H   UNL     1      23.869  42.497  50.815  1.00  0.00     0.162 HD
HETATM    6  O   UNL     1      24.369  44.400  48.325  1.00  0.00    -0.274 OA
BRANCH   4   7
HETATM    7  C   UNL     1      24.169  41.677  48.862  1.00  0.00     0.128 C 
BRANCH   7   8
HETATM    8  C   UNL     1      25.349  40.786  49.229  1.00  0.00     0.079 C 
BRANCH   8   9
HETATM    9  C   UNL     1      26.184  40.488  48.013  1.00  0.00     0.035 A 
HETATM   10  C   UNL     1      27.381  41.164  47.784  1.00  0.00     0.027 A 
HETATM   11  C   UNL     1      28.095  40.892  46.621  1.00  0.00     0.003 A 
HETATM   12  C   UNL     1      27.598  39.961  45.718  1.00  0.00     0.019 A 
HETATM   13  C   UNL     1      26.401  39.335  46.019  1.00  0.00     0.117 A 
HETATM   14  N   UNL     1      25.688  39.578  47.141  1.00  0.00    -0.266 NA
ENDBRANCH   8   9
ENDBRANCH   7   8
ENDBRANCH   4   7
ENDBRANCH   2   3
ENDBRANCH   1   2
BRANCH   1  15
HETATM   15  C   UNL     1      26.261  45.011  51.383  1.00  0.00    -0.021 A 
HETATM   16  C   UNL     1      27.047  45.110  52.583  1.00  0.00    -0.001 A 
HETATM   17  C   UNL     1      28.030  44.125  52.533  1.00  0.00     0.043 A 
HETATM   18  C   UNL     1      26.990  45.937  53.721  1.00  0.00     0.015 A 
HETATM   19  C   UNL     1      28.962  43.927  53.565  1.00  0.00     0.044 A 
HETATM   20  N   UNL     1      27.871  43.457  51.342  1.00  0.00    -0.365 N 
HETATM   21  C   UNL     1      28.900  44.748  54.710  1.00  0.00    -0.005 A 
HETATM   22  C   UNL     1      27.906  45.739  54.764  1.00  0.00     0.015 A 
HETATM   23  H   UNL     1      28.458  42.696  51.028  1.00  0.00     0.165 HD
HETATM   24  C   UNL     1      26.792  43.953  50.662  1.00  0.00     0.097 A 
BRANCH  21  25
HETATM   25  C   UNL     1      29.833  44.572  55.843  1.00  0.00     0.066 A 
HETATM   26  N   UNL     1      29.732  45.495  56.834  1.00  0.00    -0.260 NA
HETATM   27  C   UNL     1      30.558  45.377  57.897  1.00  0.00     0.117 A 
HETATM   28  C   UNL     1      31.503  44.377  58.030  1.00  0.00     0.019 A 
HETATM   29  C   UNL     1      31.608  43.441  57.010  1.00  0.00     0.004 A 
HETATM   30  C   UNL     1      30.766  43.537  55.903  1.00  0.00     0.032 A 
ENDBRANCH  21  25
ENDBRANCH   1  15
BRANCH   1  31
HETATM   31  C   UNL     1      25.540  47.073  50.238  1.00  0.00    -0.047 A 
HETATM   32  C   UNL     1      24.596  47.992  49.730  1.00  0.00     0.043 A 
HETATM   33  C   UNL     1      25.003  49.090  48.956  1.00  0.00     0.103 A 
HETATM   34  C   UNL     1      26.353  49.286  48.652  1.00  0.00     0.036 A 
HETATM   35  C   UNL     1      27.291  48.372  49.124  1.00  0.00     0.003 A 
HETATM   36  C   UNL     1      26.888  47.280  49.901  1.00  0.00     0.008 A 
BRANCH  33  37
HETATM   37  N   UNL     1      24.004  50.045  48.462  1.00  0.00    -0.116 N 
HETATM   38  O   UNL     1      23.779  50.069  47.243  1.00  0.00    -0.532 OA
HETATM   39  O   UNL     1      23.438  50.772  49.293  1.00  0.00    -0.532 OA
ENDBRANCH  33  37
ENDBRANCH   1  31
TORSDOF 9
ENDMDL
MODEL 6
REMARK VINA RESULT:      -9.6      2.996      8.119
REMARK  9 active torsions:
REMARK  status: ('A' for Active; 'I' for Inactive)
REMARK    1  A    between atoms: C_3  and  C_4 
REMARK    2  A    between atoms: C_4  and  C_5 
REMARK    3  A    between atoms: C_5  and  N_6 
REMARK       I    between atoms: N_6  and  C_7 
REMARK    4  A    between atoms: C_7  and  C_8 
REMARK    5  A    between atoms: C_8  and  C_9 
REMARK    6  A    between atoms: C_9  and  C_10 
REMARK    7  A    between atoms: C_9  and  C_26 
REMARK    8  A    between atoms: C_14  and  C_15 
REMARK    9  A    between atoms: C_28  and  N_29 
ROOT
HETATM    1  C   UNL     1      26.216  45.572  50.183  1.00  0.00     0.062 C 
ENDROOT
BRANCH   1   2
HETATM    2  C   UNL     1      25.629  44.502  49.248  1.00  0.00     0.116 C 
BRANCH   2   3
HETATM    3  C   UNL     1      25.978  43.057  49.555  1.00  0.00     0.218 C 
HETATM    4  N   UNL     1      27.237  42.848  50.071  1.00  0.00    -0.361 N 
HETATM    5  H   UNL     1      27.914  43.602  50.037  1.00  0.00     0.162 HD
HETATM    6  O   UNL     1      25.168  42.147  49.396  1.00  0.00    -0.274 OA
BRANCH   4   7
HETATM    7  C   UNL     1      27.686  41.505  50.388  1.00  0.00     0.128 C 
BRANCH   7   8
HETATM    8  C   UNL     1      27.415  41.120  51.838  1.00  0.00     0.079 C 
BRANCH   8   9
HETATM    9  C   UNL     1      28.273  41.933  52.770  1.00  0.00     0.035 A 
HETATM   10  C   UNL     1      27.726  42.541  53.898  1.00  0.00     0.027 A 
HETATM   11  C   UNL     1      28.548  43.324  54.703  1.00  0.00     0.003 A 
HETATM   12  C   UNL     1      29.885  43.486  54.362  1.00  0.00     0.019 A 
HETATM   13  C   UNL     1      30.348  42.851  53.224  1.00  0.00     0.117 A 
HETATM   14  N   UNL     1      29.575  42.082  52.425  1.00  0.00    -0.266 NA
ENDBRANCH   8   9
ENDBRANCH   7   8
ENDBRANCH   4   7
ENDBRANCH   2   3
ENDBRANCH   1   2
BRANCH   1  15
HETATM   15  C   UNL     1      25.956  46.986  49.702  1.00  0.00    -0.021 A 
HETATM   16  C   UNL     1      24.661  47.518  49.373  1.00  0.00    -0.001 A 
HETATM   17  C   UNL     1      24.825  48.854  49.015  1.00  0.00     0.043 A 
HETATM   18  C   UNL     1      23.358  46.984  49.374  1.00  0.00     0.015 A 
HETATM   19  C   UNL     1      23.750  49.682  48.656  1.00  0.00     0.044 A 
HETATM   20  N   UNL     1      26.168  49.131  49.099  1.00  0.00    -0.365 N 
HETATM   21  C   UNL     1      22.443  49.152  48.667  1.00  0.00    -0.005 A 
HETATM   22  C   UNL     1      22.275  47.806  49.031  1.00  0.00     0.015 A 
HETATM   23  H   UNL     1      26.585  50.026  48.882  1.00  0.00     0.165 HD
HETATM   24  C   UNL     1      26.851  48.033  49.546  1.00  0.00     0.097 A 
BRANCH  21  25
HETATM   25  C   UNL     1      21.266  49.979  48.327  1.00  0.00     0.066 A 
HETATM   26  N   UNL     1      20.395  49.425  47.443  1.00  0.00    -0.260 NA
HETATM   27  C   UNL     1      19.298  50.137  47.104  1.00  0.00     0.117 A 
HETATM   28  C   UNL     1      19.016  51.397  47.597  1.00  0.00     0.019 A 
HETATM   29  C   UNL     1      19.913  51.963  48.492  1.00  0.00     0.004 A 
HETATM   30  C   UNL     1      21.051  51.249  48.863  1.00  0.00     0.032 A 
ENDBRANCH  21  25
ENDBRANCH   1  15
BRANCH   1  31
HETATM   31  C   UNL     1      25.907  45.513  51.680  1.00  0.00    -0.047 A 
HETATM   32  C   UNL     1      26.453  46.492  52.541  1.00  0.00     0.043 A 
HETATM   33  C   UNL     1      26.205  46.456  53.922  1.00  0.00     0.103 A 
HETATM   34  C   UNL     1      25.429  45.437  54.479  1.00  0.00     0.036 A 
HETATM   35  C   UNL     1      24.907  44.451  53.646  1.00  0.00     0.003 A 
HETATM   36  C   UNL     1      25.148  44.488  52.268  1.00  0.00     0.008 A 
BRANCH  33  37
HETATM   37  N   UNL     1      26.763  47.499  54.791  1.00  0.00    -0.116 N 
HETATM   38  O   UNL     1      27.997  47.585  54.874  1.00  0.00    -0.532 OA
HETATM   39  O   UNL     1      25.967  48.237  55.390  1.00  0.00    -0.532 OA
ENDBRANCH  33  37
ENDBRANCH   1  31
TORSDOF 9
ENDMDL
MODEL 7
REMARK VINA RESULT:      -9.6      3.338      7.841
REMARK  9 active torsions:
REMARK  status: ('A' for Active; 'I' for Inactive)
REMARK    1  A    between atoms: C_3  and  C_4 
REMARK    2  A    between atoms: C_4  and  C_5 
REMARK    3  A    between atoms: C_5  and  N_6 
REMARK       I    between atoms: N_6  and  C_7 
REMARK    4  A    between atoms: C_7  and  C_8 
REMARK    5  A    between atoms: C_8  and  C_9 
REMARK    6  A    between atoms: C_9  and  C_10 
REMARK    7  A    between atoms: C_9  and  C_26 
REMARK    8  A    between atoms: C_14  and  C_15 
REMARK    9  A    between atoms: C_28  and  N_29 
ROOT
HETATM    1  C   UNL     1      23.748  45.395  49.633  1.00  0.00     0.062 C 
ENDROOT
BRANCH   1   2
HETATM    2  C   UNL     1      22.797  44.705  48.641  1.00  0.00     0.116 C 
BRANCH   2   3
HETATM    3  C   UNL     1      21.362  45.198  48.611  1.00  0.00     0.218 C 
HETATM    4  N   UNL     1      21.068  46.105  47.619  1.00  0.00    -0.361 N 
HETATM    5  H   UNL     1      21.829  46.536  47.105  1.00  0.00     0.162 HD
HETATM    6  O   UNL     1      20.514  44.773  49.392  1.00  0.00    -0.274 OA
BRANCH   4   7
HETATM    7  C   UNL     1      19.730  46.658  47.502  1.00  0.00     0.128 C 
BRANCH   7   8
HETATM    8  C   UNL     1      19.716  48.030  46.839  1.00  0.00     0.079 C 
BRANCH   8   9
HETATM    9  C   UNL     1      19.977  49.110  47.855  1.00  0.00     0.035 A 
HETATM   10  C   UNL     1      20.529  50.331  47.473  1.00  0.00     0.027 A 
HETATM   11  C   UNL     1      20.800  51.281  48.454  1.00  0.00     0.003 A 
HETATM   12  C   UNL     1      20.519  50.989  49.783  1.00  0.00     0.019 A 
HETATM   13  C   UNL     1      19.974  49.752  50.077  1.00  0.00     0.117 A 
HETATM   14  N   UNL     1      19.698  48.812  49.146  1.00  0.00    -0.266 NA
ENDBRANCH   8   9
ENDBRANCH   7   8
ENDBRANCH   4   7
ENDBRANCH   2   3
ENDBRANCH   1   2
BRANCH   1  15
HETATM   15  C   UNL     1      24.987  44.574  49.934  1.00  0.00    -0.021 A 
HETATM   16  C   UNL     1      25.828  44.748  51.087  1.00  0.00    -0.001 A 
HETATM   17  C   UNL     1      26.833  43.786  51.033  1.00  0.00     0.043 A 
HETATM   18  C   UNL     1      25.805  45.626  52.188  1.00  0.00     0.015 A 
HETATM   19  C   UNL     1      27.819  43.659  52.025  1.00  0.00     0.044 A 
HETATM   20  N   UNL     1      26.635  43.060  49.883  1.00  0.00    -0.365 N 
HETATM   21  C   UNL     1      27.791  44.530  53.133  1.00  0.00    -0.005 A 
HETATM   22  C   UNL     1      26.776  45.499  53.192  1.00  0.00     0.015 A 
HETATM   23  H   UNL     1      27.225  42.300  49.574  1.00  0.00     0.165 HD
HETATM   24  C   UNL     1      25.511  43.498  49.236  1.00  0.00     0.097 A 
BRANCH  21  25
HETATM   25  C   UNL     1      28.783  44.431  54.225  1.00  0.00     0.066 A 
HETATM   26  N   UNL     1      28.816  45.482  55.085  1.00  0.00    -0.260 NA
HETATM   27  C   UNL     1      29.700  45.438  56.106  1.00  0.00     0.117 A 
HETATM   28  C   UNL     1      30.577  44.390  56.320  1.00  0.00     0.019 A 
HETATM   29  C   UNL     1      30.545  43.322  55.433  1.00  0.00     0.004 A 
HETATM   30  C   UNL     1      29.640  43.340  54.374  1.00  0.00     0.032 A 
ENDBRANCH  21  25
ENDBRANCH   1  15
BRANCH   1  31
HETATM   31  C   UNL     1      24.183  46.839  49.376  1.00  0.00    -0.047 A 
HETATM   32  C   UNL     1      25.559  47.141  49.271  1.00  0.00     0.043 A 
HETATM   33  C   UNL     1      25.993  48.458  49.055  1.00  0.00     0.103 A 
HETATM   34  C   UNL     1      25.072  49.505  48.961  1.00  0.00     0.036 A 
HETATM   35  C   UNL     1      23.715  49.225  49.091  1.00  0.00     0.003 A 
HETATM   36  C   UNL     1      23.279  47.911  49.300  1.00  0.00     0.008 A 
BRANCH  33  37
HETATM   37  N   UNL     1      27.427  48.742  48.923  1.00  0.00    -0.116 N 
HETATM   38  O   UNL     1      27.791  49.926  48.978  1.00  0.00    -0.532 OA
HETATM   39  O   UNL     1      28.194  47.780  48.766  1.00  0.00    -0.532 OA
ENDBRANCH  33  37
ENDBRANCH   1  31
TORSDOF 9
ENDMDL
MODEL 8
REMARK VINA RESULT:      -9.6      3.254      8.140
REMARK  9 active torsions:
REMARK  status: ('A' for Active; 'I' for Inactive)
REMARK    1  A    between atoms: C_3  and  C_4 
REMARK    2  A    between atoms: C_4  and  C_5 
REMARK    3  A    between atoms: C_5  and  N_6 
REMARK       I    between atoms: N_6  and  C_7 
REMARK    4  A    between atoms: C_7  and  C_8 
REMARK    5  A    between atoms: C_8  and  C_9 
REMARK    6  A    between atoms: C_9  and  C_10 
REMARK    7  A    between atoms: C_9  and  C_26 
REMARK    8  A    between atoms: C_14  and  C_15 
REMARK    9  A    between atoms: C_28  and  N_29 
ROOT
HETATM    1  C   UNL     1      25.898  42.678  50.276  1.00  0.00     0.062 C 
ENDROOT
BRANCH   1   2
HETATM    2  C   UNL     1      24.620  43.196  50.954  1.00  0.00     0.116 C 
BRANCH   2   3
HETATM    3  C   UNL     1      24.644  44.626  51.463  1.00  0.00     0.218 C 
HETATM    4  N   UNL     1      25.042  45.574  50.548  1.00  0.00    -0.361 N 
HETATM    5  H   UNL     1      25.474  45.270  49.682  1.00  0.00     0.162 HD
HETATM    6  O   UNL     1      24.282  44.915  52.601  1.00  0.00    -0.274 OA
BRANCH   4   7
HETATM    7  C   UNL     1      25.118  46.973  50.926  1.00  0.00     0.128 C 
BRANCH   7   8
HETATM    8  C   UNL     1      25.661  47.856  49.810  1.00  0.00     0.079 C 
BRANCH   8   9
HETATM    9  C   UNL     1      24.548  48.639  49.166  1.00  0.00     0.035 A 
HETATM   10  C   UNL     1      24.820  49.769  48.398  1.00  0.00     0.027 A 
HETATM   11  C   UNL     1      23.755  50.490  47.864  1.00  0.00     0.003 A 
HETATM   12  C   UNL     1      22.454  50.072  48.113  1.00  0.00     0.019 A 
HETATM   13  C   UNL     1      22.271  48.941  48.888  1.00  0.00     0.117 A 
HETATM   14  N   UNL     1      23.284  48.220  49.417  1.00  0.00    -0.266 NA
ENDBRANCH   8   9
ENDBRANCH   7   8
ENDBRANCH   4   7
ENDBRANCH   2   3
ENDBRANCH   1   2
BRANCH   1  15
HETATM   15  C   UNL     1      26.871  42.044  51.251  1.00  0.00    -0.021 A 
HETATM   16  C   UNL     1      27.586  42.752  52.277  1.00  0.00    -0.001 A 
HETATM   17  C   UNL     1      28.343  41.825  52.990  1.00  0.00     0.043 A 
HETATM   18  C   UNL     1      27.635  44.101  52.679  1.00  0.00     0.015 A 
HETATM   19  C   UNL     1      29.148  42.180  54.084  1.00  0.00     0.044 A 
HETATM   20  N   UNL     1      28.120  40.597  52.415  1.00  0.00    -0.365 N 
HETATM   21  C   UNL     1      29.190  43.529  54.494  1.00  0.00    -0.005 A 
HETATM   22  C   UNL     1      28.425  44.465  53.779  1.00  0.00     0.015 A 
HETATM   23  H   UNL     1      28.552  39.734  52.717  1.00  0.00     0.165 HD
HETATM   24  C   UNL     1      27.212  40.708  51.397  1.00  0.00     0.097 A 
BRANCH  21  25
HETATM   25  C   UNL     1      29.995  43.964  55.655  1.00  0.00     0.066 A 
HETATM   26  N   UNL     1      30.939  43.083  56.077  1.00  0.00    -0.260 NA
HETATM   27  C   UNL     1      31.707  43.434  57.131  1.00  0.00     0.117 A 
HETATM   28  C   UNL     1      31.583  44.633  57.809  1.00  0.00     0.019 A 
HETATM   29  C   UNL     1      30.611  45.526  57.379  1.00  0.00     0.004 A 
HETATM   30  C   UNL     1      29.807  45.191  56.291  1.00  0.00     0.032 A 
ENDBRANCH  21  25
ENDBRANCH   1  15
BRANCH   1  31
HETATM   31  C   UNL     1      25.785  41.766  49.054  1.00  0.00    -0.047 A 
HETATM   32  C   UNL     1      26.921  41.545  48.244  1.00  0.00     0.043 A 
HETATM   33  C   UNL     1      26.846  40.729  47.104  1.00  0.00     0.103 A 
HETATM   34  C   UNL     1      25.638  40.132  46.734  1.00  0.00     0.036 A 
HETATM   35  C   UNL     1      24.505  40.363  47.508  1.00  0.00     0.003 A 
HETATM   36  C   UNL     1      24.578  41.172  48.649  1.00  0.00     0.008 A 
BRANCH  33  37
HETATM   37  N   UNL     1      28.047  40.495  46.294  1.00  0.00    -0.116 N 
HETATM   38  O   UNL     1      28.132  39.421  45.680  1.00  0.00    -0.532 OA
HETATM   39  O   UNL     1      28.908  41.388  46.266  1.00  0.00    -0.532 OA
ENDBRANCH  33  37
ENDBRANCH   1  31
TORSDOF 9
ENDMDL
MODEL 9
REMARK VINA RESULT:      -9.4     11.410     14.338
REMARK  9 active torsions:
REMARK  status: ('A' for Active; 'I' for Inactive)
REMARK    1  A    between atoms: C_3  and  C_4 
REMARK    2  A    between atoms: C_4  and  C_5 
REMARK    3  A    between atoms: C_5  and  N_6 
REMARK       I    between atoms: N_6  and  C_7 
REMARK    4  A    between atoms: C_7  and  C_8 
REMARK    5  A    between atoms: C_8  and  C_9 
REMARK    6  A    between atoms: C_9  and  C_10 
REMARK    7  A    between atoms: C_9  and  C_26 
REMARK    8  A    between atoms: C_14  and  C_15 
REMARK    9  A    between atoms: C_28  and  N_29 
ROOT
HETATM    1  C   UNL     1      28.193  47.471  38.878  1.00  0.00     0.062 C 
ENDROOT
BRANCH   1   2
HETATM    2  C   UNL     1      26.783  47.981  38.540  1.00  0.00     0.116 C 
BRANCH   2   3
HETATM    3  C   UNL     1      26.614  49.483  38.391  1.00  0.00     0.218 C 
HETATM    4  N   UNL     1      27.776  50.193  38.194  1.00  0.00    -0.361 N 
HETATM    5  H   UNL     1      28.666  49.733  38.351  1.00  0.00     0.162 HD
HETATM    6  O   UNL     1      25.506  50.013  38.397  1.00  0.00    -0.274 OA
BRANCH   4   7
HETATM    7  C   UNL     1      27.739  51.637  38.053  1.00  0.00     0.128 C 
BRANCH   7   8
HETATM    8  C   UNL     1      29.118  52.276  38.164  1.00  0.00     0.079 C 
BRANCH   8   9
HETATM    9  C   UNL     1      29.467  52.534  39.605  1.00  0.00     0.035 A 
HETATM   10  C   UNL     1      30.675  53.135  39.951  1.00  0.00     0.027 A 
HETATM   11  C   UNL     1      30.977  53.309  41.299  1.00  0.00     0.003 A 
HETATM   12  C   UNL     1      30.073  52.876  42.262  1.00  0.00     0.019 A 
HETATM   13  C   UNL     1      28.898  52.286  41.834  1.00  0.00     0.117 A 
HETATM   14  N   UNL     1      28.578  52.107  40.533  1.00  0.00    -0.266 NA
ENDBRANCH   8   9
ENDBRANCH   7   8
ENDBRANCH   4   7
ENDBRANCH   2   3
ENDBRANCH   1   2
BRANCH   1  15
HETATM   15  C   UNL     1      28.646  47.864  40.271  1.00  0.00    -0.021 A 
HETATM   16  C   UNL     1      29.890  48.517  40.578  1.00  0.00    -0.001 A 
HETATM   17  C   UNL     1      29.925  48.748  41.951  1.00  0.00     0.043 A 
HETATM   18  C   UNL     1      30.979  48.955  39.801  1.00  0.00     0.015 A 
HETATM   19  C   UNL     1      30.997  49.395  42.586  1.00  0.00     0.044 A 
HETATM   20  N   UNL     1      28.760  48.241  42.475  1.00  0.00    -0.365 N 
HETATM   21  C   UNL     1      32.084  49.845  41.807  1.00  0.00    -0.005 A 
HETATM   22  C   UNL     1      32.048  49.615  40.422  1.00  0.00     0.015 A 
HETATM   23  H   UNL     1      28.518  48.255  43.456  1.00  0.00     0.165 HD
HETATM   24  C   UNL     1      27.970  47.743  41.475  1.00  0.00     0.097 A 
BRANCH  21  25
HETATM   25  C   UNL     1      33.230  50.558  42.410  1.00  0.00     0.066 A 
HETATM   26  N   UNL     1      34.425  50.378  41.790  1.00  0.00    -0.260 NA
HETATM   27  C   UNL     1      35.504  51.013  42.298  1.00  0.00     0.117 A 
HETATM   28  C   UNL     1      35.463  51.827  43.414  1.00  0.00     0.019 A 
HETATM   29  C   UNL     1      34.241  52.001  44.050  1.00  0.00     0.004 A 
HETATM   30  C   UNL     1      33.111  51.360  43.545  1.00  0.00     0.032 A 
ENDBRANCH  21  25
ENDBRANCH   1  15
BRANCH   1  31
HETATM   31  C   UNL     1      28.530  45.994  38.666  1.00  0.00    -0.047 A 
HETATM   32  C   UNL     1      28.140  45.047  39.638  1.00  0.00     0.043 A 
HETATM   33  C   UNL     1      28.450  43.686  39.483  1.00  0.00     0.103 A 
HETATM   34  C   UNL     1      29.171  43.243  38.372  1.00  0.00     0.036 A 
HETATM   35  C   UNL     1      29.585  44.170  37.420  1.00  0.00     0.003 A 
HETATM   36  C   UNL     1      29.271  45.526  37.569  1.00  0.00     0.008 A 
BRANCH  33  37
HETATM   37  N   UNL     1      28.011  42.718  40.495  1.00  0.00    -0.116 N 
HETATM   38  O   UNL     1      26.876  42.854  40.974  1.00  0.00    -0.532 OA
HETATM   39  O   UNL     1      28.801  41.816  40.812  1.00  0.00    -0.532 OA
ENDBRANCH  33  37
ENDBRANCH   1  31
TORSDOF 9
ENDMDL
MODEL 10
REMARK VINA RESULT:      -9.2      3.756      8.426
REMARK  9 active torsions:
REMARK  status: ('A' for Active; 'I' for Inactive)
REMARK    1  A    between atoms: C_3  and  C_4 
REMARK    2  A    between atoms: C_4  and  C_5 
REMARK    3  A    between atoms: C_5  and  N_6 
REMARK       I    between atoms: N_6  and  C_7 
REMARK    4  A    between atoms: C_7  and  C_8 
REMARK    5  A    between atoms: C_8  and  C_9 
REMARK    6  A    between atoms: C_9  and  C_10 
REMARK    7  A    between atoms: C_9  and  C_26 
REMARK    8  A    between atoms: C_14  and  C_15 
REMARK    9  A    between atoms: C_28  and  N_29 
ROOT
HETATM    1  C   UNL     1      24.769  47.181  50.433  1.00  0.00     0.062 C 
ENDROOT
BRANCH   1   2
HETATM    2  C   UNL     1      26.017  47.461  51.286  1.00  0.00     0.116 C 
BRANCH   2   3
HETATM    3  C   UNL     1      25.939  47.092  52.757  1.00  0.00     0.218 C 
HETATM    4  N   UNL     1      26.485  45.874  53.091  1.00  0.00    -0.361 N 
HETATM    5  H   UNL     1      26.722  45.221  52.352  1.00  0.00     0.162 HD
HETATM    6  O   UNL     1      25.463  47.857  53.592  1.00  0.00    -0.274 OA
BRANCH   4   7
HETATM    7  C   UNL     1      26.455  45.409  54.466  1.00  0.00     0.128 C 
BRANCH   7   8
HETATM    8  C   UNL     1      27.818  45.485  55.144  1.00  0.00     0.079 C 
BRANCH   8   9
HETATM    9  C   UNL     1      28.756  44.462  54.561  1.00  0.00     0.035 A 
HETATM   10  C   UNL     1      29.852  44.002  55.287  1.00  0.00     0.027 A 
HETATM   11  C   UNL     1      30.720  43.094  54.688  1.00  0.00     0.003 A 
HETATM   12  C   UNL     1      30.478  42.674  53.386  1.00  0.00     0.019 A 
HETATM   13  C   UNL     1      29.368  43.182  52.734  1.00  0.00     0.117 A 
HETATM   14  N   UNL     1      28.507  44.062  53.291  1.00  0.00    -0.266 NA
ENDBRANCH   8   9
ENDBRANCH   7   8
ENDBRANCH   4   7
ENDBRANCH   2   3
ENDBRANCH   1   2
BRANCH   1  15
HETATM   15  C   UNL     1      24.490  48.271  49.416  1.00  0.00    -0.021 A 
HETATM   16  C   UNL     1      23.181  48.735  49.046  1.00  0.00    -0.001 A 
HETATM   17  C   UNL     1      23.337  49.765  48.122  1.00  0.00     0.043 A 
HETATM   18  C   UNL     1      21.875  48.384  49.437  1.00  0.00     0.015 A 
HETATM   19  C   UNL     1      22.250  50.461  47.568  1.00  0.00     0.044 A 
HETATM   20  N   UNL     1      24.687  49.919  47.913  1.00  0.00    -0.365 N 
HETATM   21  C   UNL     1      20.942  50.118  47.968  1.00  0.00    -0.005 A 
HETATM   22  C   UNL     1      20.783  49.082  48.902  1.00  0.00     0.015 A 
HETATM   23  H   UNL     1      25.097  50.588  47.277  1.00  0.00     0.165 HD
HETATM   24  C   UNL     1      25.389  49.056  48.711  1.00  0.00     0.097 A 
BRANCH  21  25
HETATM   25  C   UNL     1      19.758  50.831  47.444  1.00  0.00     0.066 A 
HETATM   26  N   UNL     1      19.300  50.403  46.239  1.00  0.00    -0.260 NA
HETATM   27  C   UNL     1      18.215  51.017  45.718  1.00  0.00     0.117 A 
HETATM   28  C   UNL     1      17.550  52.059  46.336  1.00  0.00     0.019 A 
HETATM   29  C   UNL     1      18.027  52.500  47.564  1.00  0.00     0.004 A 
HETATM   30  C   UNL     1      19.142  51.882  48.126  1.00  0.00     0.032 A 
ENDBRANCH  21  25
ENDBRANCH   1  15
BRANCH   1  31
HETATM   31  C   UNL     1      24.624  45.828  49.734  1.00  0.00    -0.047 A 
HETATM   32  C   UNL     1      23.355  45.421  49.265  1.00  0.00     0.043 A 
HETATM   33  C   UNL     1      23.184  44.178  48.637  1.00  0.00     0.103 A 
HETATM   34  C   UNL     1      24.263  43.305  48.480  1.00  0.00     0.036 A 
HETATM   35  C   UNL     1      25.513  43.682  48.961  1.00  0.00     0.003 A 
HETATM   36  C   UNL     1      25.688  44.925  49.583  1.00  0.00     0.008 A 
BRANCH  33  37
HETATM   37  N   UNL     1      21.860  43.790  48.136  1.00  0.00    -0.116 N 
HETATM   38  O   UNL     1      21.796  42.838  47.344  1.00  0.00    -0.532 OA
HETATM   39  O   UNL     1      20.879  44.435  48.536  1.00  0.00    -0.532 OA
ENDBRANCH  33  37
ENDBRANCH   1  31
TORSDOF 9
ENDMDL
