MODEL 1
REMARK VINA RESULT:      -8.4      0.000      0.000
REMARK  8 active torsions:
REMARK  status: ('A' for Active; 'I' for Inactive)
REMARK    1  A    between atoms: CG_8  and  CB_9 
REMARK    2  A    between atoms: CB_9  and  CA_10 
REMARK    3  A    between atoms: CA_10  and  N_11 
REMARK    4  A    between atoms: CA_10  and  C_14 
REMARK    5  A    between atoms: N_11  and  C_19 
REMARK    6  A    between atoms: C_14  and  O_15 
REMARK    7  A    between atoms: C_19  and  C_20 
REMARK    8  A    between atoms: C_22  and  C_23 
ROOT
ATOM      1  CA  TRP A   1      26.441  44.930  52.197  1.00  0.00     0.214 C 
ENDROOT
BRANCH   1   2
ATOM      2  CB  TRP A   1      26.098  45.093  53.681  1.00  0.00     0.076 C 
BRANCH   2   3
ATOM      3  CG  TRP A   1      27.283  45.475  54.505  1.00  0.00    -0.028 A 
ATOM      4  CD2 TRP A   1      28.443  44.676  54.772  1.00  0.00    -0.002 A 
ATOM      5  CE3 TRP A   1      28.864  43.388  54.383  1.00  0.00     0.014 A 
ATOM      6  CE2 TRP A   1      29.273  45.420  55.611  1.00  0.00     0.042 A 
ATOM      7  CZ3 TRP A   1      30.084  42.888  54.858  1.00  0.00     0.001 A 
ATOM      8  CH2 TRP A   1      30.884  43.653  55.702  1.00  0.00     0.002 A 
ATOM      9  CZ2 TRP A   1      30.495  44.937  56.092  1.00  0.00     0.030 A 
ATOM     10  NE1 TRP A   1      28.664  46.635  55.821  1.00  0.00    -0.365 N 
ATOM     11  HE1 TRP A   1      29.058  47.384  56.375  1.00  0.00     0.165 HD
ATOM     12  CD1 TRP A   1      27.460  46.676  55.167  1.00  0.00     0.096 A 
ENDBRANCH   2   3
ENDBRANCH   1   2
BRANCH   1  13
ATOM     13  N   TRP A   1      25.850  46.057  51.376  1.00  0.00    -0.064 N 
ATOM     14  H1  TRP A   1      24.871  45.749  51.200  1.00  0.00     0.278 HD
ATOM     15  H2  TRP A   1      25.744  46.912  51.933  1.00  0.00     0.278 HD
BRANCH  13  16
HETATM   16  C   UNK A   0      26.495  46.365  50.074  1.00  0.00     0.280 C 
BRANCH  16  17
HETATM   17  C   UNK A   0      26.031  47.669  49.539  1.00  0.00     0.027 A 
HETATM   18  S   UNK A   0      24.361  48.078  49.508  1.00  0.00    -0.076 SA
HETATM   19  C   UNK A   0      24.752  49.578  48.774  1.00  0.00     0.079 A 
HETATM   20  N   UNK A   0      26.034  49.786  48.567  1.00  0.00    -0.257 NA
HETATM   21  C   UNK A   0      26.767  48.709  49.013  1.00  0.00     0.133 A 
BRANCH  19  22
HETATM   22  C   UNK A   0      23.678  50.592  48.376  1.00  0.00     0.045 C 
HETATM   23  C   UNK A   0      22.464  49.974  47.618  1.00  0.00     0.011 C 
HETATM   24  C   UNK A   0      21.564  50.931  48.419  1.00  0.00     0.002 C 
HETATM   25  C   UNK A   0      22.650  50.899  49.509  1.00  0.00     0.011 C 
ENDBRANCH  19  22
ENDBRANCH  16  17
ENDBRANCH  13  16
ENDBRANCH   1  13
BRANCH   1  26
ATOM     26  C   TRP A   1      25.895  43.630  51.571  1.00  0.00     0.197 C 
BRANCH  26  27
ATOM     27  O   TRP A   1      24.615  43.380  52.173  1.00  0.00    -0.399 OA
ATOM     28  H   TRP A   1      23.953  43.419  51.449  1.00  0.00     0.209 HD
ENDBRANCH  26  27
ENDBRANCH   1  26
TORSDOF 8
ENDMDL
MODEL 2
REMARK VINA RESULT:      -8.4      1.409      1.898
REMARK  8 active torsions:
REMARK  status: ('A' for Active; 'I' for Inactive)
REMARK    1  A    between atoms: CG_8  and  CB_9 
REMARK    2  A    between atoms: CB_9  and  CA_10 
REMARK    3  A    between atoms: CA_10  and  N_11 
REMARK    4  A    between atoms: CA_10  and  C_14 
REMARK    5  A    between atoms: N_11  and  C_19 
REMARK    6  A    between atoms: C_14  and  O_15 
REMARK    7  A    between atoms: C_19  and  C_20 
REMARK    8  A    between atoms: C_22  and  C_23 
ROOT
ATOM      1  CA  TRP A   1      26.226  45.673  51.448  1.00  0.00     0.214 C 
ENDROOT
BRANCH   1   2
ATOM      2  CB  TRP A   1      26.318  45.448  52.961  1.00  0.00     0.076 C 
BRANCH   2   3
ATOM      3  CG  TRP A   1      27.371  44.456  53.331  1.00  0.00    -0.028 A 
ATOM      4  CD2 TRP A   1      28.416  44.627  54.296  1.00  0.00    -0.002 A 
ATOM      5  CE3 TRP A   1      28.787  45.665  55.176  1.00  0.00     0.014 A 
ATOM      6  CE2 TRP A   1      29.182  43.460  54.287  1.00  0.00     0.042 A 
ATOM      7  CZ3 TRP A   1      29.913  45.506  55.995  1.00  0.00     0.001 A 
ATOM      8  CH2 TRP A   1      30.661  44.332  55.953  1.00  0.00     0.002 A 
ATOM      9  CZ2 TRP A   1      30.307  43.284  55.100  1.00  0.00     0.030 A 
ATOM     10  NE1 TRP A   1      28.609  42.600  53.380  1.00  0.00    -0.365 N 
ATOM     11  HE1 TRP A   1      28.947  41.666  53.187  1.00  0.00     0.165 HD
ATOM     12  CD1 TRP A   1      27.523  43.193  52.791  1.00  0.00     0.096 A 
ENDBRANCH   2   3
ENDBRANCH   1   2
BRANCH   1  13
ATOM     13  N   TRP A   1      26.061  47.143  51.126  1.00  0.00    -0.064 N 
ATOM     14  H1  TRP A   1      25.044  47.242  50.932  1.00  0.00     0.278 HD
ATOM     15  H2  TRP A   1      26.214  47.728  51.955  1.00  0.00     0.278 HD
BRANCH  13  16
HETATM   16  C   UNK A   0      26.823  47.679  49.969  1.00  0.00     0.280 C 
BRANCH  16  17
HETATM   17  C   UNK A   0      25.993  48.606  49.161  1.00  0.00     0.027 A 
HETATM   18  S   UNK A   0      24.278  48.607  49.284  1.00  0.00    -0.076 SA
HETATM   19  C   UNK A   0      24.203  49.838  48.093  1.00  0.00     0.079 A 
HETATM   20  N   UNK A   0      25.364  50.244  47.629  1.00  0.00    -0.257 NA
HETATM   21  C   UNK A   0      26.387  49.557  48.243  1.00  0.00     0.133 A 
BRANCH  19  22
HETATM   22  C   UNK A   0      22.873  50.409  47.598  1.00  0.00     0.045 C 
HETATM   23  C   UNK A   0      21.675  49.416  47.693  1.00  0.00     0.011 C 
HETATM   24  C   UNK A   0      20.808  50.610  48.129  1.00  0.00     0.002 C 
HETATM   25  C   UNK A   0      22.103  51.239  48.672  1.00  0.00     0.011 C 
ENDBRANCH  19  22
ENDBRANCH  16  17
ENDBRANCH  13  16
ENDBRANCH   1  13
BRANCH   1  26
ATOM     26  C   TRP A   1      25.025  44.965  50.786  1.00  0.00     0.197 C 
BRANCH  26  27
ATOM     27  O   TRP A   1      24.034  44.776  51.808  1.00  0.00    -0.399 OA
ATOM     28  H   TRP A   1      23.310  45.411  51.619  1.00  0.00     0.209 HD
ENDBRANCH  26  27
ENDBRANCH   1  26
TORSDOF 8
ENDMDL
MODEL 3
REMARK VINA RESULT:      -8.3      1.625      2.014
REMARK  8 active torsions:
REMARK  status: ('A' for Active; 'I' for Inactive)
REMARK    1  A    between atoms: CG_8  and  CB_9 
REMARK    2  A    between atoms: CB_9  and  CA_10 
REMARK    3  A    between atoms: CA_10  and  N_11 
REMARK    4  A    between atoms: CA_10  and  C_14 
REMARK    5  A    between atoms: N_11  and  C_19 
REMARK    6  A    between atoms: C_14  and  O_15 
REMARK    7  A    between atoms: C_19  and  C_20 
REMARK    8  A    between atoms: C_22  and  C_23 
ROOT
ATOM      1  CA  TRP A   1      27.251  43.324  51.860  1.00  0.00     0.214 C 
ENDROOT
BRANCH   1   2
ATOM      2  CB  TRP A   1      26.659  43.553  53.254  1.00  0.00     0.076 C 
BRANCH   2   3
ATOM      3  CG  TRP A   1      27.470  44.502  54.073  1.00  0.00    -0.028 A 
ATOM      4  CD2 TRP A   1      28.725  44.236  54.711  1.00  0.00    -0.002 A 
ATOM      5  CE3 TRP A   1      29.581  43.117  54.777  1.00  0.00     0.014 A 
ATOM      6  CE2 TRP A   1      29.097  45.395  55.392  1.00  0.00     0.042 A 
ATOM      7  CZ3 TRP A   1      30.759  43.193  55.530  1.00  0.00     0.001 A 
ATOM      8  CH2 TRP A   1      31.095  44.363  56.207  1.00  0.00     0.002 A 
ATOM      9  CZ2 TRP A   1      30.271  45.489  56.147  1.00  0.00     0.030 A 
ATOM     10  NE1 TRP A   1      28.127  46.341  55.154  1.00  0.00    -0.365 N 
ATOM     11  HE1 TRP A   1      28.154  47.288  55.508  1.00  0.00     0.165 HD
ATOM     12  CD1 TRP A   1      27.137  45.810  54.368  1.00  0.00     0.096 A 
ENDBRANCH   2   3
ENDBRANCH   1   2
BRANCH   1  13
ATOM     13  N   TRP A   1      26.285  43.764  50.779  1.00  0.00    -0.064 N 
ATOM     14  H1  TRP A   1      26.787  44.538  50.298  1.00  0.00     0.278 HD
ATOM     15  H2  TRP A   1      26.183  43.046  50.053  1.00  0.00     0.278 HD
BRANCH  13  16
HETATM   16  C   UNK A   0      24.952  44.253  51.212  1.00  0.00     0.280 C 
BRANCH  16  17
HETATM   17  C   UNK A   0      24.718  45.647  50.762  1.00  0.00     0.027 A 
HETATM   18  S   UNK A   0      23.773  45.989  49.367  1.00  0.00    -0.076 SA
HETATM   19  C   UNK A   0      24.062  47.664  49.593  1.00  0.00     0.079 A 
HETATM   20  N   UNK A   0      24.800  47.972  50.637  1.00  0.00    -0.257 NA
HETATM   21  C   UNK A   0      25.165  46.830  51.314  1.00  0.00     0.133 A 
BRANCH  19  22
HETATM   22  C   UNK A   0      23.509  48.720  48.635  1.00  0.00     0.045 C 
HETATM   23  C   UNK A   0      22.607  49.793  49.317  1.00  0.00     0.011 C 
HETATM   24  C   UNK A   0      23.264  50.834  48.394  1.00  0.00     0.002 C 
HETATM   25  C   UNK A   0      24.489  49.903  48.364  1.00  0.00     0.011 C 
ENDBRANCH  19  22
ENDBRANCH  16  17
ENDBRANCH  13  16
ENDBRANCH   1  13
BRANCH   1  26
ATOM     26  C   TRP A   1      27.571  41.846  51.554  1.00  0.00     0.197 C 
BRANCH  26  27
ATOM     27  O   TRP A   1      27.159  41.082  52.700  1.00  0.00    -0.399 OA
ATOM     28  H   TRP A   1      27.978  40.820  53.171  1.00  0.00     0.209 HD
ENDBRANCH  26  27
ENDBRANCH   1  26
TORSDOF 8
ENDMDL
MODEL 4
REMARK VINA RESULT:      -8.3      1.664      2.549
REMARK  8 active torsions:
REMARK  status: ('A' for Active; 'I' for Inactive)
REMARK    1  A    between atoms: CG_8  and  CB_9 
REMARK    2  A    between atoms: CB_9  and  CA_10 
REMARK    3  A    between atoms: CA_10  and  N_11 
REMARK    4  A    between atoms: CA_10  and  C_14 
REMARK    5  A    between atoms: N_11  and  C_19 
REMARK    6  A    between atoms: C_14  and  O_15 
REMARK    7  A    between atoms: C_19  and  C_20 
REMARK    8  A    between atoms: C_22  and  C_23 
ROOT
ATOM      1  CA  TRP A   1      26.777  44.554  53.599  1.00  0.00     0.214 C 
ENDROOT
BRANCH   1   2
ATOM      2  CB  TRP A   1      27.881  45.439  54.184  1.00  0.00     0.076 C 
BRANCH   2   3
ATOM      3  CG  TRP A   1      29.010  44.648  54.757  1.00  0.00    -0.028 A 
ATOM      4  CD2 TRP A   1      29.676  44.874  56.005  1.00  0.00    -0.002 A 
ATOM      5  CE3 TRP A   1      29.521  45.807  57.052  1.00  0.00     0.014 A 
ATOM      6  CE2 TRP A   1      30.685  43.916  56.116  1.00  0.00     0.042 A 
ATOM      7  CZ3 TRP A   1      30.385  45.758  58.154  1.00  0.00     0.001 A 
ATOM      8  CH2 TRP A   1      31.388  44.794  58.227  1.00  0.00     0.002 A 
ATOM      9  CZ2 TRP A   1      31.554  43.852  57.209  1.00  0.00     0.030 A 
ATOM     10  NE1 TRP A   1      30.616  43.117  54.999  1.00  0.00    -0.365 N 
ATOM     11  HE1 TRP A   1      31.217  42.321  54.828  1.00  0.00     0.165 HD
ATOM     12  CD1 TRP A   1      29.616  43.554  54.169  1.00  0.00     0.096 A 
ENDBRANCH   2   3
ENDBRANCH   1   2
BRANCH   1  13
ATOM     13  N   TRP A   1      26.735  44.663  52.089  1.00  0.00    -0.064 N 
ATOM     14  H1  TRP A   1      27.249  45.545  51.889  1.00  0.00     0.278 HD
ATOM     15  H2  TRP A   1      27.308  43.936  51.644  1.00  0.00     0.278 HD
BRANCH  13  16
HETATM   16  C   UNK A   0      25.398  44.732  51.446  1.00  0.00     0.280 C 
BRANCH  16  17
HETATM   17  C   UNK A   0      25.184  46.046  50.791  1.00  0.00     0.027 A 
HETATM   18  S   UNK A   0      23.887  46.293  49.689  1.00  0.00    -0.076 SA
HETATM   19  C   UNK A   0      24.410  47.910  49.452  1.00  0.00     0.079 A 
HETATM   20  N   UNK A   0      25.468  48.266  50.145  1.00  0.00    -0.257 NA
HETATM   21  C   UNK A   0      25.905  47.214  50.919  1.00  0.00     0.133 A 
BRANCH  19  22
HETATM   22  C   UNK A   0      23.697  48.860  48.490  1.00  0.00     0.045 C 
HETATM   23  C   UNK A   0      22.817  49.940  49.190  1.00  0.00     0.011 C 
HETATM   24  C   UNK A   0      23.311  50.935  48.125  1.00  0.00     0.002 C 
HETATM   25  C   UNK A   0      24.575  50.063  48.023  1.00  0.00     0.011 C 
ENDBRANCH  19  22
ENDBRANCH  16  17
ENDBRANCH  13  16
ENDBRANCH   1  13
BRANCH   1  26
ATOM     26  C   TRP A   1      25.360  44.925  54.082  1.00  0.00     0.197 C 
BRANCH  26  27
ATOM     27  O   TRP A   1      24.798  43.747  54.682  1.00  0.00    -0.399 OA
ATOM     28  H   TRP A   1      24.016  44.040  55.197  1.00  0.00     0.209 HD
ENDBRANCH  26  27
ENDBRANCH   1  26
TORSDOF 8
ENDMDL
MODEL 5
REMARK VINA RESULT:      -8.1      1.784      2.070
REMARK  8 active torsions:
REMARK  status: ('A' for Active; 'I' for Inactive)
REMARK    1  A    between atoms: CG_8  and  CB_9 
REMARK    2  A    between atoms: CB_9  and  CA_10 
REMARK    3  A    between atoms: CA_10  and  N_11 
REMARK    4  A    between atoms: CA_10  and  C_14 
REMARK    5  A    between atoms: N_11  and  C_19 
REMARK    6  A    between atoms: C_14  and  O_15 
REMARK    7  A    between atoms: C_19  and  C_20 
REMARK    8  A    between atoms: C_22  and  C_23 
ROOT
ATOM      1  CA  TRP A   1      25.679  45.297  50.982  1.00  0.00     0.214 C 
ENDROOT
BRANCH   1   2
ATOM      2  CB  TRP A   1      25.861  44.219  52.056  1.00  0.00     0.076 C 
BRANCH   2   3
ATOM      3  CG  TRP A   1      26.763  44.657  53.161  1.00  0.00    -0.028 A 
ATOM      4  CD2 TRP A   1      28.031  44.091  53.516  1.00  0.00    -0.002 A 
ATOM      5  CE3 TRP A   1      28.824  43.044  53.001  1.00  0.00     0.014 A 
ATOM      6  CE2 TRP A   1      28.501  44.792  54.628  1.00  0.00     0.042 A 
ATOM      7  CZ3 TRP A   1      30.039  42.729  53.621  1.00  0.00     0.001 A 
ATOM      8  CH2 TRP A   1      30.473  43.443  54.736  1.00  0.00     0.002 A 
ATOM      9  CZ2 TRP A   1      29.713  44.492  55.258  1.00  0.00     0.030 A 
ATOM     10  NE1 TRP A   1      27.576  45.767  54.919  1.00  0.00    -0.365 N 
ATOM     11  HE1 TRP A   1      27.674  46.442  55.666  1.00  0.00     0.165 HD
ATOM     12  CD1 TRP A   1      26.521  45.690  54.047  1.00  0.00     0.096 A 
ENDBRANCH   2   3
ENDBRANCH   1   2
BRANCH   1  13
ATOM     13  N   TRP A   1      24.211  45.556  50.715  1.00  0.00    -0.064 N 
ATOM     14  H1  TRP A   1      23.755  44.645  50.929  1.00  0.00     0.278 HD
ATOM     15  H2  TRP A   1      23.812  46.201  51.408  1.00  0.00     0.278 HD
BRANCH  13  16
HETATM   16  C   UNK A   0      23.829  45.972  49.342  1.00  0.00     0.280 C 
BRANCH  16  17
HETATM   17  C   UNK A   0      23.611  47.437  49.264  1.00  0.00     0.027 A 
HETATM   18  S   UNK A   0      22.055  48.093  48.938  1.00  0.00    -0.076 SA
HETATM   19  C   UNK A   0      22.719  49.673  49.001  1.00  0.00     0.079 A 
HETATM   20  N   UNK A   0      24.007  49.733  49.257  1.00  0.00    -0.257 NA
HETATM   21  C   UNK A   0      24.517  48.465  49.422  1.00  0.00     0.133 A 
BRANCH  19  22
HETATM   22  C   UNK A   0      21.869  50.921  48.760  1.00  0.00     0.045 C 
HETATM   23  C   UNK A   0      20.707  50.716  47.739  1.00  0.00     0.011 C 
HETATM   24  C   UNK A   0      19.840  51.600  48.653  1.00  0.00     0.002 C 
HETATM   25  C   UNK A   0      20.735  51.126  49.812  1.00  0.00     0.011 C 
ENDBRANCH  19  22
ENDBRANCH  16  17
ENDBRANCH  13  16
ENDBRANCH   1  13
BRANCH   1  26
ATOM     26  C   TRP A   1      26.289  44.923  49.615  1.00  0.00     0.197 C 
BRANCH  26  27
ATOM     27  O   TRP A   1      27.414  45.791  49.406  1.00  0.00    -0.399 OA
ATOM     28  H   TRP A   1      27.593  45.792  48.441  1.00  0.00     0.209 HD
ENDBRANCH  26  27
ENDBRANCH   1  26
TORSDOF 8
ENDMDL
MODEL 6
REMARK VINA RESULT:      -8.0      2.384      8.413
REMARK  8 active torsions:
REMARK  status: ('A' for Active; 'I' for Inactive)
REMARK    1  A    between atoms: CG_8  and  CB_9 
REMARK    2  A    between atoms: CB_9  and  CA_10 
REMARK    3  A    between atoms: CA_10  and  N_11 
REMARK    4  A    between atoms: CA_10  and  C_14 
REMARK    5  A    between atoms: N_11  and  C_19 
REMARK    6  A    between atoms: C_14  and  O_15 
REMARK    7  A    between atoms: C_19  and  C_20 
REMARK    8  A    between atoms: C_22  and  C_23 
ROOT
ATOM      1  CA  TRP A   1      24.820  44.823  51.657  1.00  0.00     0.214 C 
ENDROOT
BRANCH   1   2
ATOM      2  CB  TRP A   1      25.858  45.591  50.833  1.00  0.00     0.076 C 
BRANCH   2   3
ATOM      3  CG  TRP A   1      25.262  46.735  50.081  1.00  0.00    -0.028 A 
ATOM      4  CD2 TRP A   1      25.953  47.874  49.552  1.00  0.00    -0.002 A 
ATOM      5  CE3 TRP A   1      27.302  48.284  49.524  1.00  0.00     0.014 A 
ATOM      6  CE2 TRP A   1      24.997  48.699  48.959  1.00  0.00     0.042 A 
ATOM      7  CZ3 TRP A   1      27.640  49.504  48.924  1.00  0.00     0.001 A 
ATOM      8  CH2 TRP A   1      26.658  50.309  48.351  1.00  0.00     0.002 A 
ATOM      9  CZ2 TRP A   1      25.317  49.919  48.355  1.00  0.00     0.030 A 
ATOM     10  NE1 TRP A   1      23.778  48.075  49.090  1.00  0.00    -0.365 N 
ATOM     11  HE1 TRP A   1      22.907  48.441  48.727  1.00  0.00     0.165 HD
ATOM     12  CD1 TRP A   1      23.925  46.896  49.772  1.00  0.00     0.096 A 
ENDBRANCH   2   3
ENDBRANCH   1   2
BRANCH   1  13
ATOM     13  N   TRP A   1      25.171  44.844  53.130  1.00  0.00    -0.064 N 
ATOM     14  H1  TRP A   1      24.260  45.021  53.600  1.00  0.00     0.278 HD
ATOM     15  H2  TRP A   1      25.446  43.913  53.463  1.00  0.00     0.278 HD
BRANCH  13  16
HETATM   16  C   UNK A   0      26.150  45.865  53.585  1.00  0.00     0.280 C 
BRANCH  16  17
HETATM   17  C   UNK A   0      27.396  45.231  54.082  1.00  0.00     0.027 A 
HETATM   18  S   UNK A   0      28.423  46.038  55.200  1.00  0.00    -0.076 SA
HETATM   19  C   UNK A   0      29.496  44.700  55.164  1.00  0.00     0.079 A 
HETATM   20  N   UNK A   0      29.129  43.705  54.389  1.00  0.00    -0.257 NA
HETATM   21  C   UNK A   0      27.928  43.995  53.781  1.00  0.00     0.133 A 
BRANCH  19  22
HETATM   22  C   UNK A   0      30.795  44.681  55.970  1.00  0.00     0.045 C 
HETATM   23  C   UNK A   0      30.605  44.934  57.497  1.00  0.00     0.011 C 
HETATM   24  C   UNK A   0      31.685  43.864  57.739  1.00  0.00     0.002 C 
HETATM   25  C   UNK A   0      31.254  43.252  56.395  1.00  0.00     0.011 C 
ENDBRANCH  19  22
ENDBRANCH  16  17
ENDBRANCH  13  16
ENDBRANCH   1  13
BRANCH   1  26
ATOM     26  C   TRP A   1      24.705  43.331  51.279  1.00  0.00     0.197 C 
BRANCH  26  27
ATOM     27  O   TRP A   1      23.323  43.080  50.980  1.00  0.00    -0.399 OA
ATOM     28  H   TRP A   1      23.057  43.741  50.305  1.00  0.00     0.209 HD
ENDBRANCH  26  27
ENDBRANCH   1  26
TORSDOF 8
ENDMDL
MODEL 7
REMARK VINA RESULT:      -7.7      3.991      5.653
REMARK  8 active torsions:
REMARK  status: ('A' for Active; 'I' for Inactive)
REMARK    1  A    between atoms: CG_8  and  CB_9 
REMARK    2  A    between atoms: CB_9  and  CA_10 
REMARK    3  A    between atoms: CA_10  and  N_11 
REMARK    4  A    between atoms: CA_10  and  C_14 
REMARK    5  A    between atoms: N_11  and  C_19 
REMARK    6  A    between atoms: C_14  and  O_15 
REMARK    7  A    between atoms: C_19  and  C_20 
REMARK    8  A    between atoms: C_22  and  C_23 
ROOT
ATOM      1  CA  TRP A   1      26.309  45.879  54.281  1.00  0.00     0.214 C 
ENDROOT
BRANCH   1   2
ATOM      2  CB  TRP A   1      27.802  45.571  54.135  1.00  0.00     0.076 C 
BRANCH   2   3
ATOM      3  CG  TRP A   1      28.535  45.651  55.433  1.00  0.00    -0.028 A 
ATOM      4  CD2 TRP A   1      29.631  44.831  55.858  1.00  0.00    -0.002 A 
ATOM      5  CE3 TRP A   1      30.362  43.778  55.270  1.00  0.00     0.014 A 
ATOM      6  CE2 TRP A   1      29.976  45.237  57.148  1.00  0.00     0.042 A 
ATOM      7  CZ3 TRP A   1      31.390  43.163  55.994  1.00  0.00     0.001 A 
ATOM      8  CH2 TRP A   1      31.702  43.586  57.284  1.00  0.00     0.002 A 
ATOM      9  CZ2 TRP A   1      31.001  44.635  57.884  1.00  0.00     0.030 A 
ATOM     10  NE1 TRP A   1      29.149  46.283  57.484  1.00  0.00    -0.365 N 
ATOM     11  HE1 TRP A   1      29.195  46.789  58.359  1.00  0.00     0.165 HD
ATOM     12  CD1 TRP A   1      28.271  46.535  56.462  1.00  0.00     0.096 A 
ENDBRANCH   2   3
ENDBRANCH   1   2
BRANCH   1  13
ATOM     13  N   TRP A   1      25.469  44.873  53.523  1.00  0.00    -0.064 N 
ATOM     14  H1  TRP A   1      26.066  44.020  53.497  1.00  0.00     0.278 HD
ATOM     15  H2  TRP A   1      24.648  44.583  54.068  1.00  0.00     0.278 HD
BRANCH  13  16
HETATM   16  C   UNK A   0      25.072  45.221  52.135  1.00  0.00     0.280 C 
BRANCH  16  17
HETATM   17  C   UNK A   0      25.740  44.340  51.147  1.00  0.00     0.027 A 
HETATM   18  S   UNK A   0      25.444  42.646  51.116  1.00  0.00    -0.076 SA
HETATM   19  C   UNK A   0      26.554  42.486  49.818  1.00  0.00     0.079 A 
HETATM   20  N   UNK A   0      27.111  43.605  49.412  1.00  0.00    -0.257 NA
HETATM   21  C   UNK A   0      26.641  44.666  50.155  1.00  0.00     0.133 A 
BRANCH  19  22
HETATM   22  C   UNK A   0      26.880  41.129  49.192  1.00  0.00     0.045 C 
HETATM   23  C   UNK A   0      27.620  41.218  47.823  1.00  0.00     0.011 C 
HETATM   24  C   UNK A   0      28.466  40.016  48.280  1.00  0.00     0.002 C 
HETATM   25  C   UNK A   0      28.202  40.491  49.720  1.00  0.00     0.011 C 
ENDBRANCH  19  22
ENDBRANCH  16  17
ENDBRANCH  13  16
ENDBRANCH   1  13
BRANCH   1  26
ATOM     26  C   TRP A   1      25.901  47.260  53.728  1.00  0.00     0.197 C 
BRANCH  26  27
ATOM     27  O   TRP A   1      25.758  48.138  54.856  1.00  0.00    -0.399 OA
ATOM     28  H   TRP A   1      26.122  47.660  55.632  1.00  0.00     0.209 HD
ENDBRANCH  26  27
ENDBRANCH   1  26
TORSDOF 8
ENDMDL
MODEL 8
REMARK VINA RESULT:      -7.6     12.107     14.334
REMARK  8 active torsions:
REMARK  status: ('A' for Active; 'I' for Inactive)
REMARK    1  A    between atoms: CG_8  and  CB_9 
REMARK    2  A    between atoms: CB_9  and  CA_10 
REMARK    3  A    between atoms: CA_10  and  N_11 
REMARK    4  A    between atoms: CA_10  and  C_14 
REMARK    5  A    between atoms: N_11  and  C_19 
REMARK    6  A    between atoms: C_14  and  O_15 
REMARK    7  A    between atoms: C_19  and  C_20 
REMARK    8  A    between atoms: C_22  and  C_23 
ROOT
ATOM      1  CA  TRP A   1      27.402  49.513  39.242  1.00  0.00     0.214 C 
ENDROOT
BRANCH   1   2
ATOM      2  CB  TRP A   1      28.277  50.358  38.311  1.00  0.00     0.076 C 
BRANCH   2   3
ATOM      3  CG  TRP A   1      29.052  51.403  39.043  1.00  0.00    -0.028 A 
ATOM      4  CD2 TRP A   1      30.470  51.607  39.010  1.00  0.00    -0.002 A 
ATOM      5  CE3 TRP A   1      31.541  50.986  38.334  1.00  0.00     0.014 A 
ATOM      6  CE2 TRP A   1      30.756  52.669  39.869  1.00  0.00     0.042 A 
ATOM      7  CZ3 TRP A   1      32.850  51.436  38.553  1.00  0.00     0.001 A 
ATOM      8  CH2 TRP A   1      33.100  52.492  39.425  1.00  0.00     0.002 A 
ATOM      9  CZ2 TRP A   1      32.056  53.132  40.098  1.00  0.00     0.030 A 
ATOM     10  NE1 TRP A   1      29.560  53.118  40.379  1.00  0.00    -0.365 N 
ATOM     11  HE1 TRP A   1      29.467  53.900  41.013  1.00  0.00     0.165 HD
ATOM     12  CD1 TRP A   1      28.528  52.356  39.895  1.00  0.00     0.096 A 
ENDBRANCH   2   3
ENDBRANCH   1   2
BRANCH   1  13
ATOM     13  N   TRP A   1      27.604  48.035  38.985  1.00  0.00    -0.064 N 
ATOM     14  H1  TRP A   1      26.653  47.693  38.737  1.00  0.00     0.278 HD
ATOM     15  H2  TRP A   1      28.155  47.874  38.134  1.00  0.00     0.278 HD
BRANCH  13  16
HETATM   16  C   UNK A   0      28.131  47.212  40.104  1.00  0.00     0.280 C 
BRANCH  16  17
HETATM   17  C   UNK A   0      29.420  47.748  40.605  1.00  0.00     0.027 A 
HETATM   18  S   UNK A   0      29.513  48.603  42.094  1.00  0.00    -0.076 SA
HETATM   19  C   UNK A   0      31.195  48.832  41.845  1.00  0.00     0.079 A 
HETATM   20  N   UNK A   0      31.678  48.306  40.742  1.00  0.00    -0.257 NA
HETATM   21  C   UNK A   0      30.675  47.675  40.039  1.00  0.00     0.133 A 
BRANCH  19  22
HETATM   22  C   UNK A   0      32.063  49.608  42.836  1.00  0.00     0.045 C 
HETATM   23  C   UNK A   0      33.344  50.238  42.209  1.00  0.00     0.011 C 
HETATM   24  C   UNK A   0      33.093  51.467  43.099  1.00  0.00     0.002 C 
HETATM   25  C   UNK A   0      31.604  51.082  43.059  1.00  0.00     0.011 C 
ENDBRANCH  19  22
ENDBRANCH  16  17
ENDBRANCH  13  16
ENDBRANCH   1  13
BRANCH   1  26
ATOM     26  C   TRP A   1      25.889  49.761  39.070  1.00  0.00     0.197 C 
BRANCH  26  27
ATOM     27  O   TRP A   1      25.734  50.654  37.955  1.00  0.00    -0.399 OA
ATOM     28  H   TRP A   1      25.819  50.107  37.145  1.00  0.00     0.209 HD
ENDBRANCH  26  27
ENDBRANCH   1  26
TORSDOF 8
ENDMDL
MODEL 9
REMARK VINA RESULT:      -7.6      4.502      7.399
REMARK  8 active torsions:
REMARK  status: ('A' for Active; 'I' for Inactive)
REMARK    1  A    between atoms: CG_8  and  CB_9 
REMARK    2  A    between atoms: CB_9  and  CA_10 
REMARK    3  A    between atoms: CA_10  and  N_11 
REMARK    4  A    between atoms: CA_10  and  C_14 
REMARK    5  A    between atoms: N_11  and  C_19 
REMARK    6  A    between atoms: C_14  and  O_15 
REMARK    7  A    between atoms: C_19  and  C_20 
REMARK    8  A    between atoms: C_22  and  C_23 
ROOT
ATOM      1  CA  TRP A   1      26.879  44.018  53.108  1.00  0.00     0.214 C 
ENDROOT
BRANCH   1   2
ATOM      2  CB  TRP A   1      28.389  44.196  53.293  1.00  0.00     0.076 C 
BRANCH   2   3
ATOM      3  CG  TRP A   1      28.732  44.906  54.561  1.00  0.00    -0.028 A 
ATOM      4  CD2 TRP A   1      29.724  44.525  55.522  1.00  0.00    -0.002 A 
ATOM      5  CE3 TRP A   1      30.659  43.472  55.612  1.00  0.00     0.014 A 
ATOM      6  CE2 TRP A   1      29.675  45.457  56.560  1.00  0.00     0.042 A 
ATOM      7  CZ3 TRP A   1      31.491  43.382  56.735  1.00  0.00     0.001 A 
ATOM      8  CH2 TRP A   1      31.408  44.323  57.758  1.00  0.00     0.002 A 
ATOM      9  CZ2 TRP A   1      30.499  45.382  57.687  1.00  0.00     0.030 A 
ATOM     10  NE1 TRP A   1      28.717  46.387  56.231  1.00  0.00    -0.365 N 
ATOM     11  HE1 TRP A   1      28.487  47.194  56.795  1.00  0.00     0.165 HD
ATOM     12  CD1 TRP A   1      28.136  46.060  55.033  1.00  0.00     0.096 A 
ENDBRANCH   2   3
ENDBRANCH   1   2
BRANCH   1  13
ATOM     13  N   TRP A   1      26.549  42.612  52.652  1.00  0.00    -0.064 N 
ATOM     14  H1  TRP A   1      27.338  42.040  53.018  1.00  0.00     0.278 HD
ATOM     15  H2  TRP A   1      25.727  42.241  53.143  1.00  0.00     0.278 HD
BRANCH  13  16
HETATM   16  C   UNK A   0      26.427  42.378  51.191  1.00  0.00     0.280 C 
BRANCH  16  17
HETATM   17  C   UNK A   0      27.144  41.145  50.782  1.00  0.00     0.027 A 
HETATM   18  S   UNK A   0      26.465  40.054  49.640  1.00  0.00    -0.076 SA
HETATM   19  C   UNK A   0      27.837  39.038  49.809  1.00  0.00     0.079 A 
HETATM   20  N   UNK A   0      28.756  39.468  50.645  1.00  0.00    -0.257 NA
HETATM   21  C   UNK A   0      28.374  40.673  51.191  1.00  0.00     0.133 A 
BRANCH  19  22
HETATM   22  C   UNK A   0      27.967  37.718  49.049  1.00  0.00     0.045 C 
HETATM   23  C   UNK A   0      26.642  36.902  48.949  1.00  0.00     0.011 C 
HETATM   24  C   UNK A   0      27.050  36.546  47.509  1.00  0.00     0.002 C 
HETATM   25  C   UNK A   0      27.842  37.865  47.501  1.00  0.00     0.011 C 
ENDBRANCH  19  22
ENDBRANCH  16  17
ENDBRANCH  13  16
ENDBRANCH   1  13
BRANCH   1  26
ATOM     26  C   TRP A   1      26.267  44.953  52.044  1.00  0.00     0.197 C 
BRANCH  26  27
ATOM     27  O   TRP A   1      25.608  46.017  52.749  1.00  0.00    -0.399 OA
ATOM     28  H   TRP A   1      26.288  46.701  52.924  1.00  0.00     0.209 HD
ENDBRANCH  26  27
ENDBRANCH   1  26
TORSDOF 8
ENDMDL
MODEL 10
REMARK VINA RESULT:      -7.5     11.798     13.102
REMARK  8 active torsions:
REMARK  status: ('A' for Active; 'I' for Inactive)
REMARK    1  A    between atoms: CG_8  and  CB_9 
REMARK    2  A    between atoms: CB_9  and  CA_10 
REMARK    3  A    between atoms: CA_10  and  N_11 
REMARK    4  A    between atoms: CA_10  and  C_14 
REMARK    5  A    between atoms: N_11  and  C_19 
REMARK    6  A    between atoms: C_14  and  O_15 
REMARK    7  A    between atoms: C_19  and  C_20 
REMARK    8  A    between atoms: C_22  and  C_23 
ROOT
ATOM      1  CA  TRP A   1      28.095  47.097  39.449  1.00  0.00     0.214 C 
ENDROOT
BRANCH   1   2
ATOM      2  CB  TRP A   1      29.072  47.301  40.611  1.00  0.00     0.076 C 
BRANCH   2   3
ATOM      3  CG  TRP A   1      30.204  48.208  40.257  1.00  0.00    -0.028 A 
ATOM      4  CD2 TRP A   1      31.011  48.974  41.160  1.00  0.00    -0.002 A 
ATOM      5  CE3 TRP A   1      31.052  49.124  42.562  1.00  0.00     0.014 A 
ATOM      6  CE2 TRP A   1      31.922  49.697  40.389  1.00  0.00     0.042 A 
ATOM      7  CZ3 TRP A   1      31.984  50.000  43.135  1.00  0.00     0.001 A 
ATOM      8  CH2 TRP A   1      32.872  50.715  42.335  1.00  0.00     0.002 A 
ATOM      9  CZ2 TRP A   1      32.859  50.574  40.945  1.00  0.00     0.030 A 
ATOM     10  NE1 TRP A   1      31.703  49.362  39.073  1.00  0.00    -0.365 N 
ATOM     11  HE1 TRP A   1      32.240  49.722  38.295  1.00  0.00     0.165 HD
ATOM     12  CD1 TRP A   1      30.665  48.472  38.981  1.00  0.00     0.096 A 
ENDBRANCH   2   3
ENDBRANCH   1   2
BRANCH   1  13
ATOM     13  N   TRP A   1      26.670  47.369  39.882  1.00  0.00    -0.064 N 
ATOM     14  H1  TRP A   1      26.167  46.489  39.648  1.00  0.00     0.278 HD
ATOM     15  H2  TRP A   1      26.594  47.434  40.903  1.00  0.00     0.278 HD
BRANCH  13  16
HETATM   16  C   UNK A   0      25.966  48.508  39.239  1.00  0.00     0.280 C 
BRANCH  16  17
HETATM   17  C   UNK A   0      26.834  49.709  39.173  1.00  0.00     0.027 A 
HETATM   18  S   UNK A   0      27.281  50.567  40.594  1.00  0.00    -0.076 SA
HETATM   19  C   UNK A   0      28.155  51.686  39.632  1.00  0.00     0.079 A 
HETATM   20  N   UNK A   0      28.139  51.450  38.339  1.00  0.00    -0.257 NA
HETATM   21  C   UNK A   0      27.401  50.318  38.072  1.00  0.00     0.133 A 
BRANCH  19  22
HETATM   22  C   UNK A   0      28.888  52.882  40.242  1.00  0.00     0.045 C 
HETATM   23  C   UNK A   0      29.494  52.609  41.653  1.00  0.00     0.011 C 
HETATM   24  C   UNK A   0      30.713  53.440  41.214  1.00  0.00     0.002 C 
HETATM   25  C   UNK A   0      30.370  53.020  39.774  1.00  0.00     0.011 C 
ENDBRANCH  19  22
ENDBRANCH  16  17
ENDBRANCH  13  16
ENDBRANCH   1  13
BRANCH   1  26
ATOM     26  C   TRP A   1      28.090  45.660  38.885  1.00  0.00     0.197 C 
BRANCH  26  27
ATOM     27  O   TRP A   1      29.075  44.917  39.621  1.00  0.00    -0.399 OA
ATOM     28  H   TRP A   1      29.951  45.263  39.345  1.00  0.00     0.209 HD
ENDBRANCH  26  27
ENDBRANCH   1  26
TORSDOF 8
ENDMDL
