MODEL 1
REMARK VINA RESULT:      -8.8      0.000      0.000
REMARK  7 active torsions:
REMARK  status: ('A' for Active; 'I' for Inactive)
REMARK    1  A    between atoms: C_2  and  O_3 
REMARK    2  A    between atoms: O_3  and  C_4 
REMARK    3  A    between atoms: C_4  and  C_5 
REMARK    4  A    between atoms: C_6  and  C_7 
REMARK    5  A    between atoms: C_18  and  S_19 
REMARK    6  A    between atoms: S_19  and  C_20 
REMARK    7  A    between atoms: C_20  and  C_21 
ROOT
HETATM    1  C   UNL     1      24.627  48.895  49.065  1.00  0.00     0.070 A 
HETATM    2  C   UNL     1      23.838  47.774  49.730  1.00  0.00     0.203 A 
HETATM    3  N   UNL     1      24.727  46.738  50.269  1.00  0.00    -0.082 N 
HETATM    4  C   UNL     1      26.091  46.790  50.211  1.00  0.00     0.726 A 
HETATM    5  N   UNL     1      26.685  47.841  49.616  1.00  0.00    -0.192 N 
HETATM    6  N   UNL     1      24.306  45.649  50.945  1.00  0.00    -0.128 NA
HETATM    7  C   UNL     1      25.475  45.050  51.205  1.00  0.00     0.226 A 
HETATM    8  N   UNL     1      26.592  45.732  50.791  1.00  0.00    -0.035 NA
HETATM    9  C   UNL     1      25.984  48.892  49.037  1.00  0.00     0.037 A 
HETATM   10  C   UNL     1      26.833  49.987  48.437  1.00  0.00     0.070 C 
HETATM   11  H   UNL     1      27.701  47.869  49.575  1.00  0.00     0.184 HD
ENDROOT
BRANCH   7  12
HETATM   12  S   UNL     1      25.578  43.529  52.046  1.00  0.00    -0.083 SA
BRANCH  12  13
HETATM   13  C   UNL     1      26.003  44.115  53.711  1.00  0.00     0.123 C 
BRANCH  13  14
HETATM   14  C   UNL     1      27.450  43.836  54.048  1.00  0.00    -0.027 A 
HETATM   15  C   UNL     1      28.247  44.723  54.788  1.00  0.00     0.041 A 
HETATM   16 CL   UNL     1      27.641  46.233  55.370  1.00  0.00    -0.084 Cl
HETATM   17  C   UNL     1      29.578  44.407  55.080  1.00  0.00     0.024 A 
HETATM   18  C   UNL     1      30.128  43.201  54.644  1.00  0.00     0.002 A 
HETATM   19  C   UNL     1      29.348  42.308  53.917  1.00  0.00     0.001 A 
HETATM   20  C   UNL     1      28.019  42.620  53.624  1.00  0.00     0.009 A 
ENDBRANCH  13  14
ENDBRANCH  12  13
ENDBRANCH   7  12
BRANCH   2  21
HETATM   21  C   UNL     1      22.793  47.132  48.819  1.00  0.00    -0.026 A 
HETATM   22  C   UNL     1      23.173  46.085  47.959  1.00  0.00     0.033 A 
HETATM   23  C   UNL     1      22.234  45.483  47.124  1.00  0.00     0.034 A 
HETATM   24 CL   UNL     1      22.716  44.195  46.090  1.00  0.00    -0.084 Cl
HETATM   25  C   UNL     1      20.909  45.911  47.126  1.00  0.00     0.024 A 
HETATM   26  C   UNL     1      20.521  46.954  47.965  1.00  0.00     0.002 A 
HETATM   27  C   UNL     1      21.456  47.565  48.806  1.00  0.00     0.010 A 
ENDBRANCH   2  21
BRANCH   1  28
HETATM   28  C   UNL     1      23.841  49.955  48.401  1.00  0.00     0.293 C 
HETATM   29  O   UNL     1      23.791  50.118  47.192  1.00  0.00    -0.259 OA
BRANCH  28  30
HETATM   30  O   UNL     1      23.177  50.682  49.334  1.00  0.00    -0.318 OA
BRANCH  30  31
HETATM   31  C   UNL     1      21.900  51.194  48.922  1.00  0.00     0.174 C 
HETATM   32  C   UNL     1      20.861  50.939  49.999  1.00  0.00     0.034 C 
ENDBRANCH  30  31
ENDBRANCH  28  30
ENDBRANCH   1  28
TORSDOF 7
ENDMDL
MODEL 2
REMARK VINA RESULT:      -8.7      1.521      1.981
REMARK  7 active torsions:
REMARK  status: ('A' for Active; 'I' for Inactive)
REMARK    1  A    between atoms: C_2  and  O_3 
REMARK    2  A    between atoms: O_3  and  C_4 
REMARK    3  A    between atoms: C_4  and  C_5 
REMARK    4  A    between atoms: C_6  and  C_7 
REMARK    5  A    between atoms: C_18  and  S_19 
REMARK    6  A    between atoms: S_19  and  C_20 
REMARK    7  A    between atoms: C_20  and  C_21 
ROOT
HETATM    1  C   UNL     1      24.437  49.074  48.933  1.00  0.00     0.070 A 
HETATM    2  C   UNL     1      23.717  47.946  49.664  1.00  0.00     0.203 A 
HETATM    3  N   UNL     1      24.665  46.956  50.188  1.00  0.00    -0.082 N 
HETATM    4  C   UNL     1      26.021  47.050  50.064  1.00  0.00     0.726 A 
HETATM    5  N   UNL     1      26.552  48.102  49.414  1.00  0.00    -0.192 N 
HETATM    6  N   UNL     1      24.312  45.873  50.912  1.00  0.00    -0.128 NA
HETATM    7  C   UNL     1      25.512  45.319  51.131  1.00  0.00     0.226 A 
HETATM    8  N   UNL     1      26.585  46.026  50.647  1.00  0.00    -0.035 NA
HETATM    9  C   UNL     1      25.790  49.114  48.841  1.00  0.00     0.037 A 
HETATM   10  C   UNL     1      26.573  50.219  48.173  1.00  0.00     0.070 C 
HETATM   11  H   UNL     1      27.563  48.162  49.324  1.00  0.00     0.184 HD
ENDROOT
BRANCH   7  12
HETATM   12  S   UNL     1      25.705  43.826  52.006  1.00  0.00    -0.083 SA
BRANCH  12  13
HETATM   13  C   UNL     1      27.516  43.705  52.030  1.00  0.00     0.123 C 
BRANCH  13  14
HETATM   14  C   UNL     1      28.091  44.198  53.338  1.00  0.00    -0.027 A 
HETATM   15  C   UNL     1      29.287  43.705  53.881  1.00  0.00     0.041 A 
HETATM   16 CL   UNL     1      30.210  42.469  53.100  1.00  0.00    -0.084 Cl
HETATM   17  C   UNL     1      29.778  44.207  55.092  1.00  0.00     0.024 A 
HETATM   18  C   UNL     1      29.085  45.209  55.771  1.00  0.00     0.002 A 
HETATM   19  C   UNL     1      27.902  45.714  55.241  1.00  0.00     0.001 A 
HETATM   20  C   UNL     1      27.410  45.215  54.033  1.00  0.00     0.009 A 
ENDBRANCH  13  14
ENDBRANCH  12  13
ENDBRANCH   7  12
BRANCH   2  21
HETATM   21  C   UNL     1      22.653  47.247  48.821  1.00  0.00    -0.026 A 
HETATM   22  C   UNL     1      21.298  47.578  49.001  1.00  0.00     0.033 A 
HETATM   23  C   UNL     1      20.312  46.955  48.238  1.00  0.00     0.034 A 
HETATM   24 CL   UNL     1      18.662  47.384  48.465  1.00  0.00    -0.084 Cl
HETATM   25  C   UNL     1      20.654  45.995  47.290  1.00  0.00     0.024 A 
HETATM   26  C   UNL     1      21.993  45.649  47.108  1.00  0.00     0.002 A 
HETATM   27  C   UNL     1      22.988  46.268  47.869  1.00  0.00     0.010 A 
ENDBRANCH   2  21
BRANCH   1  28
HETATM   28  C   UNL     1      23.585  50.089  48.280  1.00  0.00     0.293 C 
HETATM   29  O   UNL     1      23.441  50.190  47.071  1.00  0.00    -0.259 OA
BRANCH  28  30
HETATM   30  O   UNL     1      22.983  50.854  49.224  1.00  0.00    -0.318 OA
BRANCH  30  31
HETATM   31  C   UNL     1      21.625  51.229  48.939  1.00  0.00     0.174 C 
HETATM   32  C   UNL     1      20.742  50.956  50.143  1.00  0.00     0.034 C 
ENDBRANCH  30  31
ENDBRANCH  28  30
ENDBRANCH   1  28
TORSDOF 7
ENDMDL
MODEL 3
REMARK VINA RESULT:      -8.5      4.375      6.225
REMARK  7 active torsions:
REMARK  status: ('A' for Active; 'I' for Inactive)
REMARK    1  A    between atoms: C_2  and  O_3 
REMARK    2  A    between atoms: O_3  and  C_4 
REMARK    3  A    between atoms: C_4  and  C_5 
REMARK    4  A    between atoms: C_6  and  C_7 
REMARK    5  A    between atoms: C_18  and  S_19 
REMARK    6  A    between atoms: S_19  and  C_20 
REMARK    7  A    between atoms: C_20  and  C_21 
ROOT
HETATM    1  C   UNL     1      27.294  41.454  49.675  1.00  0.00     0.070 A 
HETATM    2  C   UNL     1      26.830  42.800  50.220  1.00  0.00     0.203 A 
HETATM    3  N   UNL     1      27.113  42.925  51.654  1.00  0.00    -0.082 N 
HETATM    4  C   UNL     1      27.741  41.968  52.399  1.00  0.00     0.726 A 
HETATM    5  N   UNL     1      28.126  40.821  51.810  1.00  0.00    -0.192 N 
HETATM    6  N   UNL     1      26.848  44.025  52.390  1.00  0.00    -0.128 NA
HETATM    7  C   UNL     1      27.283  43.629  53.594  1.00  0.00     0.226 A 
HETATM    8  N   UNL     1      27.859  42.384  53.633  1.00  0.00    -0.035 NA
HETATM    9  C   UNL     1      27.912  40.540  50.465  1.00  0.00     0.037 A 
HETATM   10  C   UNL     1      28.437  39.208  49.989  1.00  0.00     0.070 C 
HETATM   11  H   UNL     1      28.591  40.114  52.374  1.00  0.00     0.184 HD
ENDROOT
BRANCH   7  12
HETATM   12  S   UNL     1      27.165  44.639  55.007  1.00  0.00    -0.083 SA
BRANCH  12  13
HETATM   13  C   UNL     1      28.752  45.514  54.905  1.00  0.00     0.123 C 
BRANCH  13  14
HETATM   14  C   UNL     1      29.774  44.929  55.853  1.00  0.00    -0.027 A 
HETATM   15  C   UNL     1      29.900  45.340  57.189  1.00  0.00     0.041 A 
HETATM   16 CL   UNL     1      28.899  46.575  57.868  1.00  0.00    -0.084 Cl
HETATM   17  C   UNL     1      30.857  44.754  58.026  1.00  0.00     0.024 A 
HETATM   18  C   UNL     1      31.694  43.749  57.541  1.00  0.00     0.002 A 
HETATM   19  C   UNL     1      31.575  43.324  56.222  1.00  0.00     0.001 A 
HETATM   20  C   UNL     1      30.621  43.907  55.385  1.00  0.00     0.009 A 
ENDBRANCH  13  14
ENDBRANCH  12  13
ENDBRANCH   7  12
BRANCH   2  21
HETATM   21  C   UNL     1      25.355  43.096  49.958  1.00  0.00    -0.026 A 
HETATM   22  C   UNL     1      25.002  44.153  49.099  1.00  0.00     0.033 A 
HETATM   23  C   UNL     1      23.662  44.435  48.842  1.00  0.00     0.034 A 
HETATM   24 CL   UNL     1      23.252  45.724  47.779  1.00  0.00    -0.084 Cl
HETATM   25  C   UNL     1      22.655  43.679  49.434  1.00  0.00     0.024 A 
HETATM   26  C   UNL     1      22.989  42.635  50.295  1.00  0.00     0.002 A 
HETATM   27  C   UNL     1      24.331  42.344  50.559  1.00  0.00     0.010 A 
ENDBRANCH   2  21
BRANCH   1  28
HETATM   28  C   UNL     1      26.982  41.170  48.259  1.00  0.00     0.293 C 
HETATM   29  O   UNL     1      27.689  41.503  47.321  1.00  0.00    -0.259 OA
BRANCH  28  30
HETATM   30  O   UNL     1      25.824  40.469  48.180  1.00  0.00    -0.318 OA
BRANCH  30  31
HETATM   31  C   UNL     1      25.038  40.711  47.002  1.00  0.00     0.174 C 
HETATM   32  C   UNL     1      23.561  40.555  47.317  1.00  0.00     0.034 C 
ENDBRANCH  30  31
ENDBRANCH  28  30
ENDBRANCH   1  28
TORSDOF 7
ENDMDL
MODEL 4
REMARK VINA RESULT:      -8.4      2.719      3.713
REMARK  7 active torsions:
REMARK  status: ('A' for Active; 'I' for Inactive)
REMARK    1  A    between atoms: C_2  and  O_3 
REMARK    2  A    between atoms: O_3  and  C_4 
REMARK    3  A    between atoms: C_4  and  C_5 
REMARK    4  A    between atoms: C_6  and  C_7 
REMARK    5  A    between atoms: C_18  and  S_19 
REMARK    6  A    between atoms: S_19  and  C_20 
REMARK    7  A    between atoms: C_20  and  C_21 
ROOT
HETATM    1  C   UNL     1      23.298  45.752  49.417  1.00  0.00     0.070 A 
HETATM    2  C   UNL     1      23.518  44.521  50.288  1.00  0.00     0.203 A 
HETATM    3  N   UNL     1      24.519  44.773  51.331  1.00  0.00    -0.082 N 
HETATM    4  C   UNL     1      25.149  45.970  51.517  1.00  0.00     0.726 A 
HETATM    5  N   UNL     1      24.863  47.000  50.699  1.00  0.00    -0.192 N 
HETATM    6  N   UNL     1      24.883  43.875  52.270  1.00  0.00    -0.128 NA
HETATM    7  C   UNL     1      25.795  44.583  52.950  1.00  0.00     0.226 A 
HETATM    8  N   UNL     1      25.967  45.879  52.532  1.00  0.00    -0.035 NA
HETATM    9  C   UNL     1      23.955  46.917  49.650  1.00  0.00     0.037 A 
HETATM   10  C   UNL     1      23.757  48.188  48.860  1.00  0.00     0.070 C 
HETATM   11  H   UNL     1      25.340  47.886  50.844  1.00  0.00     0.184 HD
ENDROOT
BRANCH   7  12
HETATM   12  S   UNL     1      26.675  43.920  54.298  1.00  0.00    -0.083 SA
BRANCH  12  13
HETATM   13  C   UNL     1      28.378  44.219  53.742  1.00  0.00     0.123 C 
BRANCH  13  14
HETATM   14  C   UNL     1      29.337  44.305  54.907  1.00  0.00    -0.027 A 
HETATM   15  C   UNL     1      29.392  45.410  55.770  1.00  0.00     0.041 A 
HETATM   16 CL   UNL     1      28.368  46.787  55.566  1.00  0.00    -0.084 Cl
HETATM   17  C   UNL     1      30.294  45.431  56.841  1.00  0.00     0.024 A 
HETATM   18  C   UNL     1      31.146  44.350  57.065  1.00  0.00     0.002 A 
HETATM   19  C   UNL     1      31.097  43.244  56.223  1.00  0.00     0.001 A 
HETATM   20  C   UNL     1      30.198  43.220  55.154  1.00  0.00     0.009 A 
ENDBRANCH  13  14
ENDBRANCH  12  13
ENDBRANCH   7  12
BRANCH   2  21
HETATM   21  C   UNL     1      23.899  43.270  49.499  1.00  0.00    -0.026 A 
HETATM   22  C   UNL     1      25.252  43.022  49.203  1.00  0.00     0.033 A 
HETATM   23  C   UNL     1      25.621  41.884  48.490  1.00  0.00     0.034 A 
HETATM   24 CL   UNL     1      27.283  41.594  48.150  1.00  0.00    -0.084 Cl
HETATM   25  C   UNL     1      24.658  40.978  48.057  1.00  0.00     0.024 A 
HETATM   26  C   UNL     1      23.312  41.214  48.335  1.00  0.00     0.002 A 
HETATM   27  C   UNL     1      22.932  42.354  49.049  1.00  0.00     0.010 A 
ENDBRANCH   2  21
BRANCH   1  28
HETATM   28  C   UNL     1      22.378  45.598  48.271  1.00  0.00     0.293 C 
HETATM   29  O   UNL     1      22.739  45.364  47.128  1.00  0.00    -0.259 OA
BRANCH  28  30
HETATM   30  O   UNL     1      21.097  45.727  48.695  1.00  0.00    -0.318 OA
BRANCH  30  31
HETATM   31  C   UNL     1      20.329  46.746  48.035  1.00  0.00     0.174 C 
HETATM   32  C   UNL     1      19.997  47.865  49.006  1.00  0.00     0.034 C 
ENDBRANCH  30  31
ENDBRANCH  28  30
ENDBRANCH   1  28
TORSDOF 7
ENDMDL
MODEL 5
REMARK VINA RESULT:      -8.2      4.632      6.754
REMARK  7 active torsions:
REMARK  status: ('A' for Active; 'I' for Inactive)
REMARK    1  A    between atoms: C_2  and  O_3 
REMARK    2  A    between atoms: O_3  and  C_4 
REMARK    3  A    between atoms: C_4  and  C_5 
REMARK    4  A    between atoms: C_6  and  C_7 
REMARK    5  A    between atoms: C_18  and  S_19 
REMARK    6  A    between atoms: S_19  and  C_20 
REMARK    7  A    between atoms: C_20  and  C_21 
ROOT
HETATM    1  C   UNL     1      24.938  42.517  49.377  1.00  0.00     0.070 A 
HETATM    2  C   UNL     1      25.896  41.643  50.178  1.00  0.00     0.203 A 
HETATM    3  N   UNL     1      26.822  42.454  50.977  1.00  0.00    -0.082 N 
HETATM    4  C   UNL     1      26.805  43.819  51.022  1.00  0.00     0.726 A 
HETATM    5  N   UNL     1      25.900  44.491  50.287  1.00  0.00    -0.192 N 
HETATM    6  N   UNL     1      27.752  41.948  51.813  1.00  0.00    -0.128 NA
HETATM    7  C   UNL     1      28.309  43.074  52.278  1.00  0.00     0.226 A 
HETATM    8  N   UNL     1      27.738  44.240  51.834  1.00  0.00    -0.035 NA
HETATM    9  C   UNL     1      24.969  43.872  49.461  1.00  0.00     0.037 A 
HETATM   10  C   UNL     1      24.025  44.799  48.735  1.00  0.00     0.070 C 
HETATM   11  H   UNL     1      25.897  45.508  50.325  1.00  0.00     0.184 HD
ENDROOT
BRANCH   7  12
HETATM   12  S   UNL     1      29.640  43.062  53.400  1.00  0.00    -0.083 SA
BRANCH  12  13
HETATM   13  C   UNL     1      29.138  44.416  54.501  1.00  0.00     0.123 C 
BRANCH  13  14
HETATM   14  C   UNL     1      29.973  44.450  55.760  1.00  0.00    -0.027 A 
HETATM   15  C   UNL     1      29.744  45.359  56.804  1.00  0.00     0.041 A 
HETATM   16 CL   UNL     1      28.484  46.541  56.733  1.00  0.00    -0.084 Cl
HETATM   17  C   UNL     1      30.542  45.338  57.953  1.00  0.00     0.024 A 
HETATM   18  C   UNL     1      31.573  44.406  58.076  1.00  0.00     0.002 A 
HETATM   19  C   UNL     1      31.807  43.493  57.054  1.00  0.00     0.001 A 
HETATM   20  C   UNL     1      31.012  43.512  55.906  1.00  0.00     0.009 A 
ENDBRANCH  13  14
ENDBRANCH  12  13
ENDBRANCH   7  12
BRANCH   2  21
HETATM   21  C   UNL     1      26.685  40.652  49.324  1.00  0.00    -0.026 A 
HETATM   22  C   UNL     1      26.481  39.271  49.499  1.00  0.00     0.033 A 
HETATM   23  C   UNL     1      27.186  38.351  48.727  1.00  0.00     0.034 A 
HETATM   24 CL   UNL     1      26.912  36.666  48.948  1.00  0.00    -0.084 Cl
HETATM   25  C   UNL     1      28.104  38.783  47.775  1.00  0.00     0.024 A 
HETATM   26  C   UNL     1      28.324  40.149  47.597  1.00  0.00     0.002 A 
HETATM   27  C   UNL     1      27.622  41.080  48.368  1.00  0.00     0.010 A 
ENDBRANCH   2  21
BRANCH   1  28
HETATM   28  C   UNL     1      24.014  41.819  48.460  1.00  0.00     0.293 C 
HETATM   29  O   UNL     1      22.927  41.372  48.790  1.00  0.00    -0.259 OA
BRANCH  28  30
HETATM   30  O   UNL     1      24.549  41.783  47.215  1.00  0.00    -0.318 OA
BRANCH  30  31
HETATM   31  C   UNL     1      24.436  40.525  46.531  1.00  0.00     0.174 C 
HETATM   32  C   UNL     1      25.177  40.579  45.207  1.00  0.00     0.034 C 
ENDBRANCH  30  31
ENDBRANCH  28  30
ENDBRANCH   1  28
TORSDOF 7
ENDMDL
MODEL 6
REMARK VINA RESULT:      -8.1      3.737      5.470
REMARK  7 active torsions:
REMARK  status: ('A' for Active; 'I' for Inactive)
REMARK    1  A    between atoms: C_2  and  O_3 
REMARK    2  A    between atoms: O_3  and  C_4 
REMARK    3  A    between atoms: C_4  and  C_5 
REMARK    4  A    between atoms: C_6  and  C_7 
REMARK    5  A    between atoms: C_18  and  S_19 
REMARK    6  A    between atoms: S_19  and  C_20 
REMARK    7  A    between atoms: C_20  and  C_21 
ROOT
HETATM    1  C   UNL     1      20.540  48.854  48.989  1.00  0.00     0.070 A 
HETATM    2  C   UNL     1      21.555  48.290  48.001  1.00  0.00     0.203 A 
HETATM    3  N   UNL     1      21.447  46.830  47.897  1.00  0.00    -0.082 N 
HETATM    4  C   UNL     1      20.532  46.076  48.575  1.00  0.00     0.726 A 
HETATM    5  N   UNL     1      19.668  46.683  49.409  1.00  0.00    -0.192 N 
HETATM    6  N   UNL     1      22.193  46.069  47.068  1.00  0.00    -0.128 NA
HETATM    7  C   UNL     1      21.716  44.850  47.355  1.00  0.00     0.226 A 
HETATM    8  N   UNL     1      20.681  44.818  48.256  1.00  0.00    -0.035 NA
HETATM    9  C   UNL     1      19.654  48.055  49.636  1.00  0.00     0.037 A 
HETATM   10  C   UNL     1      18.594  48.545  50.592  1.00  0.00     0.070 C 
HETATM   11  H   UNL     1      18.992  46.113  49.912  1.00  0.00     0.184 HD
ENDROOT
BRANCH   7  12
HETATM   12  S   UNL     1      22.338  43.406  46.607  1.00  0.00    -0.083 SA
BRANCH  12  13
HETATM   13  C   UNL     1      22.646  42.393  48.082  1.00  0.00     0.123 C 
BRANCH  13  14
HETATM   14  C   UNL     1      24.106  42.404  48.471  1.00  0.00    -0.027 A 
HETATM   15  C   UNL     1      24.634  43.281  49.432  1.00  0.00     0.041 A 
HETATM   16 CL   UNL     1      23.652  44.445  50.250  1.00  0.00    -0.084 Cl
HETATM   17  C   UNL     1      25.993  43.239  49.762  1.00  0.00     0.024 A 
HETATM   18  C   UNL     1      26.840  42.320  49.142  1.00  0.00     0.002 A 
HETATM   19  C   UNL     1      26.330  41.439  48.194  1.00  0.00     0.001 A 
HETATM   20  C   UNL     1      24.974  41.478  47.863  1.00  0.00     0.009 A 
ENDBRANCH  13  14
ENDBRANCH  12  13
ENDBRANCH   7  12
BRANCH   2  21
HETATM   21  C   UNL     1      22.998  48.680  48.311  1.00  0.00    -0.026 A 
HETATM   22  C   UNL     1      23.728  47.938  49.259  1.00  0.00     0.033 A 
HETATM   23  C   UNL     1      25.048  48.274  49.552  1.00  0.00     0.034 A 
HETATM   24 CL   UNL     1      25.927  47.346  50.704  1.00  0.00    -0.084 Cl
HETATM   25  C   UNL     1      25.662  49.349  48.916  1.00  0.00     0.024 A 
HETATM   26  C   UNL     1      24.948  50.099  47.982  1.00  0.00     0.002 A 
HETATM   27  C   UNL     1      23.623  49.770  47.682  1.00  0.00     0.010 A 
ENDBRANCH   2  21
BRANCH   1  28
HETATM   28  C   UNL     1      20.608  50.306  49.252  1.00  0.00     0.293 C 
HETATM   29  O   UNL     1      21.191  50.805  50.202  1.00  0.00    -0.259 OA
BRANCH  28  30
HETATM   30  O   UNL     1      19.957  50.977  48.271  1.00  0.00    -0.318 OA
BRANCH  30  31
HETATM   31  C   UNL     1      19.457  52.274  48.638  1.00  0.00     0.174 C 
HETATM   32  C   UNL     1      18.163  52.135  49.418  1.00  0.00     0.034 C 
ENDBRANCH  30  31
ENDBRANCH  28  30
ENDBRANCH   1  28
TORSDOF 7
ENDMDL
MODEL 7
REMARK VINA RESULT:      -8.0      3.439      5.260
REMARK  7 active torsions:
REMARK  status: ('A' for Active; 'I' for Inactive)
REMARK    1  A    between atoms: C_2  and  O_3 
REMARK    2  A    between atoms: O_3  and  C_4 
REMARK    3  A    between atoms: C_4  and  C_5 
REMARK    4  A    between atoms: C_6  and  C_7 
REMARK    5  A    between atoms: C_18  and  S_19 
REMARK    6  A    between atoms: S_19  and  C_20 
REMARK    7  A    between atoms: C_20  and  C_21 
ROOT
HETATM    1  C   UNL     1      19.905  46.650  47.022  1.00  0.00     0.070 A 
HETATM    2  C   UNL     1      20.791  47.738  47.619  1.00  0.00     0.203 A 
HETATM    3  N   UNL     1      21.926  47.164  48.351  1.00  0.00    -0.082 N 
HETATM    4  C   UNL     1      22.175  45.825  48.455  1.00  0.00     0.726 A 
HETATM    5  N   UNL     1      21.335  44.952  47.870  1.00  0.00    -0.192 N 
HETATM    6  N   UNL     1      22.894  47.891  48.947  1.00  0.00    -0.128 NA
HETATM    7  C   UNL     1      23.660  46.917  49.454  1.00  0.00     0.226 A 
HETATM    8  N   UNL     1      23.264  45.637  49.153  1.00  0.00    -0.035 NA
HETATM    9  C   UNL     1      20.202  45.333  47.160  1.00  0.00     0.037 A 
HETATM   10  C   UNL     1      19.400  44.204  46.561  1.00  0.00     0.070 C 
HETATM   11  H   UNL     1      21.527  43.956  47.957  1.00  0.00     0.184 HD
ENDROOT
BRANCH   7  12
HETATM   12  S   UNL     1      25.086  47.246  50.398  1.00  0.00    -0.083 SA
BRANCH  12  13
HETATM   13  C   UNL     1      25.106  45.776  51.464  1.00  0.00     0.123 C 
BRANCH  13  14
HETATM   14  C   UNL     1      26.019  45.963  52.654  1.00  0.00    -0.027 A 
HETATM   15  C   UNL     1      26.874  44.955  53.126  1.00  0.00     0.041 A 
HETATM   16 CL   UNL     1      26.947  43.393  52.390  1.00  0.00    -0.084 Cl
HETATM   17  C   UNL     1      27.708  45.188  54.226  1.00  0.00     0.024 A 
HETATM   18  C   UNL     1      27.701  46.429  54.864  1.00  0.00     0.002 A 
HETATM   19  C   UNL     1      26.866  47.440  54.402  1.00  0.00     0.001 A 
HETATM   20  C   UNL     1      26.033  47.211  53.305  1.00  0.00     0.009 A 
ENDBRANCH  13  14
ENDBRANCH  12  13
ENDBRANCH   7  12
BRANCH   2  21
HETATM   21  C   UNL     1      20.040  48.718  48.518  1.00  0.00    -0.026 A 
HETATM   22  C   UNL     1      19.915  50.063  48.125  1.00  0.00     0.033 A 
HETATM   23  C   UNL     1      19.229  50.972  48.928  1.00  0.00     0.034 A 
HETATM   24 CL   UNL     1      19.076  52.609  48.421  1.00  0.00    -0.084 Cl
HETATM   25  C   UNL     1      18.663  50.564  50.132  1.00  0.00     0.024 A 
HETATM   26  C   UNL     1      18.788  49.236  50.540  1.00  0.00     0.002 A 
HETATM   27  C   UNL     1      19.474  48.318  49.741  1.00  0.00     0.010 A 
ENDBRANCH   2  21
BRANCH   1  28
HETATM   28  C   UNL     1      18.676  47.099  46.337  1.00  0.00     0.293 C 
HETATM   29  O   UNL     1      18.652  47.580  45.215  1.00  0.00    -0.259 OA
BRANCH  28  30
HETATM   30  O   UNL     1      17.601  46.867  47.131  1.00  0.00    -0.318 OA
BRANCH  30  31
HETATM   31  C   UNL     1      16.453  47.689  46.869  1.00  0.00     0.174 C 
HETATM   32  C   UNL     1      16.053  48.447  48.123  1.00  0.00     0.034 C 
ENDBRANCH  30  31
ENDBRANCH  28  30
ENDBRANCH   1  28
TORSDOF 7
ENDMDL
MODEL 8
REMARK VINA RESULT:      -8.0      3.895      6.207
REMARK  7 active torsions:
REMARK  status: ('A' for Active; 'I' for Inactive)
REMARK    1  A    between atoms: C_2  and  O_3 
REMARK    2  A    between atoms: O_3  and  C_4 
REMARK    3  A    between atoms: C_4  and  C_5 
REMARK    4  A    between atoms: C_6  and  C_7 
REMARK    5  A    between atoms: C_18  and  S_19 
REMARK    6  A    between atoms: S_19  and  C_20 
REMARK    7  A    between atoms: C_20  and  C_21 
ROOT
HETATM    1  C   UNL     1      25.366  46.219  50.281  1.00  0.00     0.070 A 
HETATM    2  C   UNL     1      26.229  44.962  50.308  1.00  0.00     0.203 A 
HETATM    3  N   UNL     1      25.630  43.883  49.515  1.00  0.00    -0.082 N 
HETATM    4  C   UNL     1      24.464  44.000  48.814  1.00  0.00     0.726 A 
HETATM    5  N   UNL     1      23.792  45.166  48.845  1.00  0.00    -0.192 N 
HETATM    6  N   UNL     1      26.195  42.671  49.328  1.00  0.00    -0.128 NA
HETATM    7  C   UNL     1      25.272  42.083  48.556  1.00  0.00     0.226 A 
HETATM    8  N   UNL     1      24.208  42.875  48.201  1.00  0.00    -0.035 NA
HETATM    9  C   UNL     1      24.214  46.277  49.567  1.00  0.00     0.037 A 
HETATM   10  C   UNL     1      23.332  47.497  49.456  1.00  0.00     0.070 C 
HETATM   11  H   UNL     1      22.923  45.242  48.322  1.00  0.00     0.184 HD
ENDROOT
BRANCH   7  12
HETATM   12  S   UNL     1      25.426  40.439  48.005  1.00  0.00    -0.083 SA
BRANCH  12  13
HETATM   13  C   UNL     1      26.052  39.655  49.519  1.00  0.00     0.123 C 
BRANCH  13  14
HETATM   14  C   UNL     1      27.450  39.114  49.329  1.00  0.00    -0.027 A 
HETATM   15  C   UNL     1      28.516  39.433  50.185  1.00  0.00     0.041 A 
HETATM   16 CL   UNL     1      28.323  40.496  51.534  1.00  0.00    -0.084 Cl
HETATM   17  C   UNL     1      29.788  38.893  49.967  1.00  0.00     0.024 A 
HETATM   18  C   UNL     1      30.011  38.024  48.898  1.00  0.00     0.002 A 
HETATM   19  C   UNL     1      28.963  37.691  48.047  1.00  0.00     0.001 A 
HETATM   20  C   UNL     1      27.692  38.229  48.261  1.00  0.00     0.009 A 
ENDBRANCH  13  14
ENDBRANCH  12  13
ENDBRANCH   7  12
BRANCH   2  21
HETATM   21  C   UNL     1      26.537  44.457  51.716  1.00  0.00    -0.026 A 
HETATM   22  C   UNL     1      27.861  44.127  52.060  1.00  0.00     0.033 A 
HETATM   23  C   UNL     1      28.163  43.670  53.341  1.00  0.00     0.034 A 
HETATM   24 CL   UNL     1      29.791  43.285  53.745  1.00  0.00    -0.084 Cl
HETATM   25  C   UNL     1      27.162  43.529  54.296  1.00  0.00     0.024 A 
HETATM   26  C   UNL     1      25.843  43.843  53.967  1.00  0.00     0.002 A 
HETATM   27  C   UNL     1      25.530  44.302  52.684  1.00  0.00     0.010 A 
ENDBRANCH   2  21
BRANCH   1  28
HETATM   28  C   UNL     1      25.816  47.349  51.118  1.00  0.00     0.293 C 
HETATM   29  O   UNL     1      25.289  47.678  52.169  1.00  0.00    -0.259 OA
BRANCH  28  30
HETATM   30  O   UNL     1      26.904  47.930  50.553  1.00  0.00    -0.318 OA
BRANCH  30  31
HETATM   31  C   UNL     1      26.656  48.642  49.330  1.00  0.00     0.174 C 
HETATM   32  C   UNL     1      27.829  49.550  49.006  1.00  0.00     0.034 C 
ENDBRANCH  30  31
ENDBRANCH  28  30
ENDBRANCH   1  28
TORSDOF 7
ENDMDL
MODEL 9
REMARK VINA RESULT:      -7.9      1.809      2.339
REMARK  7 active torsions:
REMARK  status: ('A' for Active; 'I' for Inactive)
REMARK    1  A    between atoms: C_2  and  O_3 
REMARK    2  A    between atoms: O_3  and  C_4 
REMARK    3  A    between atoms: C_4  and  C_5 
REMARK    4  A    between atoms: C_6  and  C_7 
REMARK    5  A    between atoms: C_18  and  S_19 
REMARK    6  A    between atoms: S_19  and  C_20 
REMARK    7  A    between atoms: C_20  and  C_21 
ROOT
HETATM    1  C   UNL     1      22.189  48.982  48.789  1.00  0.00     0.070 A 
HETATM    2  C   UNL     1      22.262  47.525  49.229  1.00  0.00     0.203 A 
HETATM    3  N   UNL     1      23.649  47.096  49.442  1.00  0.00    -0.082 N 
HETATM    4  C   UNL     1      24.735  47.911  49.295  1.00  0.00     0.726 A 
HETATM    5  N   UNL     1      24.554  49.190  48.921  1.00  0.00    -0.192 N 
HETATM    6  N   UNL     1      24.010  45.869  49.873  1.00  0.00    -0.128 NA
HETATM    7  C   UNL     1      25.343  45.996  49.896  1.00  0.00     0.226 A 
HETATM    8  N   UNL     1      25.823  47.241  49.571  1.00  0.00    -0.035 NA
HETATM    9  C   UNL     1      23.306  49.744  48.659  1.00  0.00     0.037 A 
HETATM   10  C   UNL     1      23.310  51.203  48.271  1.00  0.00     0.070 C 
HETATM   11  H   UNL     1      25.369  49.788  48.811  1.00  0.00     0.184 HD
ENDROOT
BRANCH   7  12
HETATM   12  S   UNL     1      26.397  44.686  50.346  1.00  0.00    -0.083 SA
BRANCH  12  13
HETATM   13  C   UNL     1      25.768  44.329  52.011  1.00  0.00     0.123 C 
BRANCH  13  14
HETATM   14  C   UNL     1      26.779  44.686  53.077  1.00  0.00    -0.027 A 
HETATM   15  C   UNL     1      26.811  45.937  53.711  1.00  0.00     0.041 A 
HETATM   16 CL   UNL     1      25.696  47.197  53.314  1.00  0.00    -0.084 Cl
HETATM   17  C   UNL     1      27.763  46.208  54.701  1.00  0.00     0.024 A 
HETATM   18  C   UNL     1      28.689  45.233  55.072  1.00  0.00     0.002 A 
HETATM   19  C   UNL     1      28.664  43.985  54.458  1.00  0.00     0.001 A 
HETATM   20  C   UNL     1      27.716  43.712  53.471  1.00  0.00     0.009 A 
ENDBRANCH  13  14
ENDBRANCH  12  13
ENDBRANCH   7  12
BRANCH   2  21
HETATM   21  C   UNL     1      21.564  46.558  48.274  1.00  0.00    -0.026 A 
HETATM   22  C   UNL     1      22.105  46.338  46.993  1.00  0.00     0.033 A 
HETATM   23  C   UNL     1      21.488  45.456  46.109  1.00  0.00     0.034 A 
HETATM   24 CL   UNL     1      22.173  45.191  44.553  1.00  0.00    -0.084 Cl
HETATM   25  C   UNL     1      20.326  44.784  46.477  1.00  0.00     0.024 A 
HETATM   26  C   UNL     1      19.773  44.999  47.740  1.00  0.00     0.002 A 
HETATM   27  C   UNL     1      20.385  45.883  48.633  1.00  0.00     0.010 A 
ENDBRANCH   2  21
BRANCH   1  28
HETATM   28  C   UNL     1      20.850  49.507  48.453  1.00  0.00     0.293 C 
HETATM   29  O   UNL     1      20.435  49.653  47.314  1.00  0.00    -0.259 OA
BRANCH  28  30
HETATM   30  O   UNL     1      20.165  49.768  49.594  1.00  0.00    -0.318 OA
BRANCH  30  31
HETATM   31  C   UNL     1      18.851  49.193  49.668  1.00  0.00     0.174 C 
HETATM   32  C   UNL     1      18.627  48.572  51.035  1.00  0.00     0.034 C 
ENDBRANCH  30  31
ENDBRANCH  28  30
ENDBRANCH   1  28
TORSDOF 7
ENDMDL
MODEL 10
REMARK VINA RESULT:      -7.8     11.184     13.209
REMARK  7 active torsions:
REMARK  status: ('A' for Active; 'I' for Inactive)
REMARK    1  A    between atoms: C_2  and  O_3 
REMARK    2  A    between atoms: O_3  and  C_4 
REMARK    3  A    between atoms: C_4  and  C_5 
REMARK    4  A    between atoms: C_6  and  C_7 
REMARK    5  A    between atoms: C_18  and  S_19 
REMARK    6  A    between atoms: S_19  and  C_20 
REMARK    7  A    between atoms: C_20  and  C_21 
ROOT
HETATM    1  C   UNL     1      31.906  49.857  41.855  1.00  0.00     0.070 A 
HETATM    2  C   UNL     1      30.425  49.543  41.672  1.00  0.00     0.203 A 
HETATM    3  N   UNL     1      30.229  48.311  40.900  1.00  0.00    -0.082 N 
HETATM    4  C   UNL     1      31.245  47.527  40.433  1.00  0.00     0.726 A 
HETATM    5  N   UNL     1      32.519  47.890  40.670  1.00  0.00    -0.192 N 
HETATM    6  N   UNL     1      29.024  47.771  40.619  1.00  0.00    -0.128 NA
HETATM    7  C   UNL     1      29.393  46.693  39.916  1.00  0.00     0.226 A 
HETATM    8  N   UNL     1      30.746  46.498  39.801  1.00  0.00    -0.035 NA
HETATM    9  C   UNL     1      32.873  49.040  41.367  1.00  0.00     0.037 A 
HETATM   10  C   UNL     1      34.355  49.260  41.546  1.00  0.00     0.070 C 
HETATM   11  H   UNL     1      33.269  47.301  40.315  1.00  0.00     0.184 HD
ENDROOT
BRANCH   7  12
HETATM   12  S   UNL     1      28.236  45.589  39.225  1.00  0.00    -0.083 SA
BRANCH  12  13
HETATM   13  C   UNL     1      27.772  46.511  37.731  1.00  0.00     0.123 C 
BRANCH  13  14
HETATM   14  C   UNL     1      26.755  47.587  38.034  1.00  0.00    -0.027 A 
HETATM   15  C   UNL     1      25.421  47.305  38.370  1.00  0.00     0.041 A 
HETATM   16 CL   UNL     1      24.818  45.687  38.453  1.00  0.00    -0.084 Cl
HETATM   17  C   UNL     1      24.525  48.342  38.651  1.00  0.00     0.024 A 
HETATM   18  C   UNL     1      24.948  49.670  38.607  1.00  0.00     0.002 A 
HETATM   19  C   UNL     1      26.269  49.965  38.284  1.00  0.00     0.001 A 
HETATM   20  C   UNL     1      27.166  48.932  38.002  1.00  0.00     0.009 A 
ENDBRANCH  13  14
ENDBRANCH  12  13
ENDBRANCH   7  12
BRANCH   2  21
HETATM   21  C   UNL     1      29.629  50.682  41.038  1.00  0.00    -0.026 A 
HETATM   22  C   UNL     1      29.907  51.068  39.713  1.00  0.00     0.033 A 
HETATM   23  C   UNL     1      29.188  52.100  39.114  1.00  0.00     0.034 A 
HETATM   24 CL   UNL     1      29.535  52.547  37.489  1.00  0.00    -0.084 Cl
HETATM   25  C   UNL     1      28.189  52.766  39.817  1.00  0.00     0.024 A 
HETATM   26  C   UNL     1      27.910  52.401  41.134  1.00  0.00     0.002 A 
HETATM   27  C   UNL     1      28.626  51.367  41.743  1.00  0.00     0.010 A 
ENDBRANCH   2  21
BRANCH   1  28
HETATM   28  C   UNL     1      32.235  51.124  42.540  1.00  0.00     0.293 C 
HETATM   29  O   UNL     1      32.466  52.175  41.963  1.00  0.00    -0.259 OA
BRANCH  28  30
HETATM   30  O   UNL     1      32.210  50.936  43.882  1.00  0.00    -0.318 OA
BRANCH  30  31
HETATM   31  C   UNL     1      32.847  51.962  44.660  1.00  0.00     0.174 C 
HETATM   32  C   UNL     1      34.322  52.045  44.311  1.00  0.00     0.034 C 
ENDBRANCH  30  31
ENDBRANCH  28  30
ENDBRANCH   1  28
TORSDOF 7
ENDMDL
