MODEL 1
REMARK VINA RESULT:      -7.3      0.000      0.000
REMARK  11 active torsions:
REMARK  status: ('A' for Active; 'I' for Inactive)
REMARK    1  A    between atoms: C_5  and  C_6 
REMARK    2  A    between atoms: C_6  and  N_7 
REMARK    3  A    between atoms: N_7  and  C_10 
REMARK    4  A    between atoms: C_10  and  C_11 
REMARK    5  A    between atoms: C_13  and  O_14 
REMARK    6  A    between atoms: C_16  and  O_17 
REMARK    7  A    between atoms: O_17  and  C_18 
REMARK    8  A    between atoms: C_18  and  C_19 
REMARK    9  A    between atoms: C_19  and  O_20 
REMARK   10  A    between atoms: C_19  and  C_21 
REMARK   11  A    between atoms: C_21  and  N_22 
ROOT
HETATM    1  C   UNL     1      23.388  48.484  48.606  1.00  0.00    -0.030 A 
HETATM    2  C   UNL     1      24.670  48.930  48.968  1.00  0.00     0.048 A 
HETATM    3  C   UNL     1      25.578  48.068  49.600  1.00  0.00     0.102 A 
HETATM    4  C   UNL     1      25.203  46.739  49.879  1.00  0.00     0.102 A 
HETATM    5  C   UNL     1      23.918  46.303  49.550  1.00  0.00     0.040 A 
HETATM    6  C   UNL     1      23.019  47.166  48.916  1.00  0.00     0.012 A 
ENDROOT
BRANCH   4   7
HETATM    7  O   UNL     1      26.156  45.958  50.483  1.00  0.00    -0.346 OA
BRANCH   7   8
HETATM    8  C   UNL     1      25.880  44.565  50.647  1.00  0.00     0.209 C 
BRANCH   8   9
HETATM    9  C   UNL     1      25.897  44.284  52.154  1.00  0.00     0.168 C 
BRANCH   9  10
HETATM   10  O   UNL     1      24.837  43.379  52.520  1.00  0.00    -0.392 OA
HETATM   11  H   UNL     1      24.469  43.722  53.365  1.00  0.00     0.210 HD
ENDBRANCH   9  10
BRANCH   9  12
HETATM   12  C   UNL     1      27.216  43.635  52.601  1.00  0.00     0.268 C 
BRANCH  12  13
HETATM   13  N   UNL     1      27.933  44.587  53.557  1.00  0.00    -0.067 N 
HETATM   14  H   UNL     1      28.616  45.069  52.941  1.00  0.00     0.280 HD
HETATM   15  C   UNL     1      26.994  45.640  54.124  1.00  0.00     0.245 C 
HETATM   16  C   UNL     1      27.748  46.733  54.879  1.00  0.00     0.101 C 
HETATM   17  S   UNL     1      28.667  46.070  56.299  1.00  0.00    -0.166 SA
HETATM   18  C   UNL     1      29.622  44.798  55.423  1.00  0.00     0.101 C 
HETATM   19  C   UNL     1      28.719  43.853  54.633  1.00  0.00     0.245 C 
ENDBRANCH  12  13
ENDBRANCH   9  12
ENDBRANCH   8   9
ENDBRANCH   7   8
ENDBRANCH   4   7
BRANCH   3  20
HETATM   20  O   UNL     1      26.852  48.415  49.973  1.00  0.00    -0.353 OA
HETATM   21  C   UNL     1      27.652  49.137  49.045  1.00  0.00     0.210 C 
ENDBRANCH   3  20
BRANCH   1  22
HETATM   22  C   UNL     1      22.416  49.403  47.916  1.00  0.00     0.271 C 
BRANCH  22  23
HETATM   23  N   UNL     1      22.395  50.742  48.535  1.00  0.00    -0.066 N 
HETATM   24  H   UNL     1      21.982  51.441  47.905  1.00  0.00     0.277 HD
HETATM   25  H   UNL     1      23.352  51.107  48.680  1.00  0.00     0.277 HD
BRANCH  23  26
HETATM   26  C   UNL     1      21.727  50.848  49.876  1.00  0.00     0.293 C 
BRANCH  26  27
HETATM   27  C   UNL     1      20.252  51.077  49.705  1.00  0.00     0.077 A 
HETATM   28  C   UNL     1      19.316  50.345  50.418  1.00  0.00     0.145 A 
HETATM   29  N   UNL     1      17.991  50.560  50.289  1.00  0.00    -0.262 NA
HETATM   30  C   UNL     1      17.610  51.535  49.428  1.00  0.00     0.048 A 
HETATM   31  C   UNL     1      16.145  51.793  49.258  1.00  0.00     0.072 C 
HETATM   32  C   UNL     1      18.551  52.270  48.717  1.00  0.00     0.143 A 
HETATM   33  N   UNL     1      19.890  52.069  48.838  1.00  0.00    -0.260 NA
ENDBRANCH  26  27
ENDBRANCH  23  26
ENDBRANCH  22  23
ENDBRANCH   1  22
TORSDOF 11
ENDMDL
MODEL 2
REMARK VINA RESULT:      -7.2      3.160     10.331
REMARK  11 active torsions:
REMARK  status: ('A' for Active; 'I' for Inactive)
REMARK    1  A    between atoms: C_5  and  C_6 
REMARK    2  A    between atoms: C_6  and  N_7 
REMARK    3  A    between atoms: N_7  and  C_10 
REMARK    4  A    between atoms: C_10  and  C_11 
REMARK    5  A    between atoms: C_13  and  O_14 
REMARK    6  A    between atoms: C_16  and  O_17 
REMARK    7  A    between atoms: O_17  and  C_18 
REMARK    8  A    between atoms: C_18  and  C_19 
REMARK    9  A    between atoms: C_19  and  O_20 
REMARK   10  A    between atoms: C_19  and  C_21 
REMARK   11  A    between atoms: C_21  and  N_22 
ROOT
HETATM    1  C   UNL     1      26.393  45.204  50.998  1.00  0.00    -0.030 A 
HETATM    2  C   UNL     1      27.060  46.019  50.067  1.00  0.00     0.048 A 
HETATM    3  C   UNL     1      26.470  47.202  49.599  1.00  0.00     0.102 A 
HETATM    4  C   UNL     1      25.196  47.581  50.063  1.00  0.00     0.102 A 
HETATM    5  C   UNL     1      24.518  46.756  50.963  1.00  0.00     0.040 A 
HETATM    6  C   UNL     1      25.113  45.580  51.429  1.00  0.00     0.012 A 
ENDROOT
BRANCH   4   7
HETATM    7  O   UNL     1      24.699  48.761  49.567  1.00  0.00    -0.346 OA
BRANCH   7   8
HETATM    8  C   UNL     1      23.619  48.697  48.633  1.00  0.00     0.209 C 
BRANCH   8   9
HETATM    9  C   UNL     1      22.617  49.784  49.039  1.00  0.00     0.168 C 
BRANCH   9  10
HETATM   10  O   UNL     1      23.279  50.856  49.740  1.00  0.00    -0.392 OA
HETATM   11  H   UNL     1      23.901  51.258  49.093  1.00  0.00     0.210 HD
ENDBRANCH   9  10
BRANCH   9  12
HETATM   12  C   UNL     1      21.923  50.407  47.819  1.00  0.00     0.268 C 
BRANCH  12  13
HETATM   13  N   UNL     1      20.431  50.544  48.120  1.00  0.00    -0.067 N 
HETATM   14  H   UNL     1      19.985  50.298  47.215  1.00  0.00     0.280 HD
HETATM   15  C   UNL     1      19.964  49.537  49.159  1.00  0.00     0.245 C 
HETATM   16  C   UNL     1      18.442  49.505  49.281  1.00  0.00     0.101 C 
HETATM   17  S   UNL     1      17.766  51.107  49.804  1.00  0.00    -0.166 SA
HETATM   18  C   UNL     1      18.515  52.142  48.514  1.00  0.00     0.101 C 
HETATM   19  C   UNL     1      20.032  51.972  48.458  1.00  0.00     0.245 C 
ENDBRANCH  12  13
ENDBRANCH   9  12
ENDBRANCH   8   9
ENDBRANCH   7   8
ENDBRANCH   4   7
BRANCH   3  20
HETATM   20  O   UNL     1      27.055  48.063  48.703  1.00  0.00    -0.353 OA
HETATM   21  C   UNL     1      27.869  49.113  49.213  1.00  0.00     0.210 C 
ENDBRANCH   3  20
BRANCH   1  22
HETATM   22  C   UNL     1      27.029  43.940  51.512  1.00  0.00     0.271 C 
BRANCH  22  23
HETATM   23  N   UNL     1      27.089  43.919  52.987  1.00  0.00    -0.066 N 
HETATM   24  H   UNL     1      27.563  43.076  53.332  1.00  0.00     0.277 HD
HETATM   25  H   UNL     1      26.146  43.835  53.403  1.00  0.00     0.277 HD
BRANCH  23  26
HETATM   26  C   UNL     1      27.704  45.120  53.647  1.00  0.00     0.293 C 
BRANCH  26  27
HETATM   27  C   UNL     1      28.828  44.697  54.551  1.00  0.00     0.077 A 
HETATM   28  C   UNL     1      29.265  45.503  55.590  1.00  0.00     0.145 A 
HETATM   29  N   UNL     1      30.256  45.121  56.422  1.00  0.00    -0.262 NA
HETATM   30  C   UNL     1      30.808  43.904  56.198  1.00  0.00     0.048 A 
HETATM   31  C   UNL     1      31.916  43.455  57.101  1.00  0.00     0.072 C 
HETATM   32  C   UNL     1      30.365  43.097  55.157  1.00  0.00     0.143 A 
HETATM   33  N   UNL     1      29.364  43.464  54.312  1.00  0.00    -0.260 NA
ENDBRANCH  26  27
ENDBRANCH  23  26
ENDBRANCH  22  23
ENDBRANCH   1  22
TORSDOF 11
ENDMDL
MODEL 3
REMARK VINA RESULT:      -7.1      1.521      2.050
REMARK  11 active torsions:
REMARK  status: ('A' for Active; 'I' for Inactive)
REMARK    1  A    between atoms: C_5  and  C_6 
REMARK    2  A    between atoms: C_6  and  N_7 
REMARK    3  A    between atoms: N_7  and  C_10 
REMARK    4  A    between atoms: C_10  and  C_11 
REMARK    5  A    between atoms: C_13  and  O_14 
REMARK    6  A    between atoms: C_16  and  O_17 
REMARK    7  A    between atoms: O_17  and  C_18 
REMARK    8  A    between atoms: C_18  and  C_19 
REMARK    9  A    between atoms: C_19  and  O_20 
REMARK   10  A    between atoms: C_19  and  C_21 
REMARK   11  A    between atoms: C_21  and  N_22 
ROOT
HETATM    1  C   UNL     1      23.473  46.989  49.200  1.00  0.00    -0.030 A 
HETATM    2  C   UNL     1      24.353  47.466  50.186  1.00  0.00     0.048 A 
HETATM    3  C   UNL     1      25.288  46.610  50.788  1.00  0.00     0.102 A 
HETATM    4  C   UNL     1      25.347  45.256  50.403  1.00  0.00     0.102 A 
HETATM    5  C   UNL     1      24.452  44.773  49.446  1.00  0.00     0.040 A 
HETATM    6  C   UNL     1      23.525  45.632  48.847  1.00  0.00     0.012 A 
ENDROOT
BRANCH   4   7
HETATM    7  O   UNL     1      26.301  44.493  51.028  1.00  0.00    -0.346 OA
BRANCH   7   8
HETATM    8  C   UNL     1      25.888  43.269  51.639  1.00  0.00     0.209 C 
BRANCH   8   9
HETATM    9  C   UNL     1      26.841  43.017  52.814  1.00  0.00     0.168 C 
BRANCH   9  10
HETATM   10  O   UNL     1      27.307  41.654  52.814  1.00  0.00    -0.392 OA
HETATM   11  H   UNL     1      27.066  41.286  51.934  1.00  0.00     0.210 HD
ENDBRANCH   9  10
BRANCH   9  12
HETATM   12  C   UNL     1      28.084  43.917  52.746  1.00  0.00     0.268 C 
BRANCH  12  13
HETATM   13  N   UNL     1      28.692  44.021  54.144  1.00  0.00    -0.067 N 
HETATM   14  H   UNL     1      28.046  43.450  54.724  1.00  0.00     0.280 HD
HETATM   15  C   UNL     1      30.070  43.382  54.216  1.00  0.00     0.245 C 
HETATM   16  C   UNL     1      30.572  43.264  55.654  1.00  0.00     0.101 C 
HETATM   17  S   UNL     1      30.734  44.887  56.454  1.00  0.00    -0.166 SA
HETATM   18  C   UNL     1      29.046  45.491  56.167  1.00  0.00     0.101 C 
HETATM   19  C   UNL     1      28.668  45.441  54.688  1.00  0.00     0.245 C 
ENDBRANCH  12  13
ENDBRANCH   9  12
ENDBRANCH   8   9
ENDBRANCH   7   8
ENDBRANCH   4   7
BRANCH   3  20
HETATM   20  O   UNL     1      26.193  46.994  51.746  1.00  0.00    -0.353 OA
HETATM   21  C   UNL     1      25.736  47.128  53.087  1.00  0.00     0.210 C 
ENDBRANCH   3  20
BRANCH   1  22
HETATM   22  C   UNL     1      22.478  47.907  48.544  1.00  0.00     0.271 C 
BRANCH  22  23
HETATM   23  N   UNL     1      21.708  48.681  49.538  1.00  0.00    -0.066 N 
HETATM   24  H   UNL     1      21.976  48.431  50.497  1.00  0.00     0.277 HD
HETATM   25  H   UNL     1      20.704  48.436  49.512  1.00  0.00     0.277 HD
BRANCH  23  26
HETATM   26  C   UNL     1      21.751  50.176  49.399  1.00  0.00     0.293 C 
BRANCH  26  27
HETATM   27  C   UNL     1      20.362  50.745  49.477  1.00  0.00     0.077 A 
HETATM   28  C   UNL     1      19.398  50.194  50.305  1.00  0.00     0.145 A 
HETATM   29  N   UNL     1      18.157  50.714  50.400  1.00  0.00    -0.262 NA
HETATM   30  C   UNL     1      17.892  51.809  49.647  1.00  0.00     0.048 A 
HETATM   31  C   UNL     1      16.520  52.404  49.726  1.00  0.00     0.072 C 
HETATM   32  C   UNL     1      18.863  52.361  48.820  1.00  0.00     0.143 A 
HETATM   33  N   UNL     1      20.120  51.854  48.716  1.00  0.00    -0.260 NA
ENDBRANCH  26  27
ENDBRANCH  23  26
ENDBRANCH  22  23
ENDBRANCH   1  22
TORSDOF 11
ENDMDL
MODEL 4
REMARK VINA RESULT:      -7.1      4.743     10.127
REMARK  11 active torsions:
REMARK  status: ('A' for Active; 'I' for Inactive)
REMARK    1  A    between atoms: C_5  and  C_6 
REMARK    2  A    between atoms: C_6  and  N_7 
REMARK    3  A    between atoms: N_7  and  C_10 
REMARK    4  A    between atoms: C_10  and  C_11 
REMARK    5  A    between atoms: C_13  and  O_14 
REMARK    6  A    between atoms: C_16  and  O_17 
REMARK    7  A    between atoms: O_17  and  C_18 
REMARK    8  A    between atoms: C_18  and  C_19 
REMARK    9  A    between atoms: C_19  and  O_20 
REMARK   10  A    between atoms: C_19  and  C_21 
REMARK   11  A    between atoms: C_21  and  N_22 
ROOT
HETATM    1  C   UNL     1      21.532  49.070  48.617  1.00  0.00    -0.030 A 
HETATM    2  C   UNL     1      20.456  48.802  49.480  1.00  0.00     0.048 A 
HETATM    3  C   UNL     1      19.584  49.826  49.879  1.00  0.00     0.102 A 
HETATM    4  C   UNL     1      19.787  51.140  49.412  1.00  0.00     0.102 A 
HETATM    5  C   UNL     1      20.875  51.414  48.581  1.00  0.00     0.040 A 
HETATM    6  C   UNL     1      21.738  50.388  48.183  1.00  0.00     0.012 A 
ENDROOT
BRANCH   4   7
HETATM    7  O   UNL     1      18.880  52.077  49.837  1.00  0.00    -0.346 OA
BRANCH   7   8
HETATM    8  C   UNL     1      18.113  52.767  48.848  1.00  0.00     0.209 C 
BRANCH   8   9
HETATM    9  C   UNL     1      16.639  52.459  49.136  1.00  0.00     0.168 C 
BRANCH   9  10
HETATM   10  O   UNL     1      15.879  53.674  49.282  1.00  0.00    -0.392 OA
HETATM   11  H   UNL     1      15.736  53.789  50.248  1.00  0.00     0.210 HD
ENDBRANCH   9  10
BRANCH   9  12
HETATM   12  C   UNL     1      15.988  51.657  47.998  1.00  0.00     0.268 C 
BRANCH  12  13
HETATM   13  N   UNL     1      16.668  50.291  47.909  1.00  0.00    -0.067 N 
HETATM   14  H   UNL     1      17.385  50.337  48.659  1.00  0.00     0.280 HD
HETATM   15  C   UNL     1      15.714  49.157  48.246  1.00  0.00     0.245 C 
HETATM   16  C   UNL     1      16.442  47.822  48.398  1.00  0.00     0.101 C 
HETATM   17  S   UNL     1      17.284  47.326  46.867  1.00  0.00    -0.166 SA
HETATM   18  C   UNL     1      18.267  48.831  46.609  1.00  0.00     0.101 C 
HETATM   19  C   UNL     1      17.393  50.084  46.589  1.00  0.00     0.245 C 
ENDBRANCH  12  13
ENDBRANCH   9  12
ENDBRANCH   8   9
ENDBRANCH   7   8
ENDBRANCH   4   7
BRANCH   3  20
HETATM   20  O   UNL     1      18.503  49.652  50.705  1.00  0.00    -0.353 OA
HETATM   21  C   UNL     1      18.452  48.479  51.509  1.00  0.00     0.210 C 
ENDBRANCH   3  20
BRANCH   1  22
HETATM   22  C   UNL     1      22.461  47.970  48.177  1.00  0.00     0.271 C 
BRANCH  22  23
HETATM   23  N   UNL     1      22.489  46.856  49.145  1.00  0.00    -0.066 N 
HETATM   24  H   UNL     1      21.662  46.254  49.048  1.00  0.00     0.277 HD
HETATM   25  H   UNL     1      22.407  47.198  50.118  1.00  0.00     0.277 HD
BRANCH  23  26
HETATM   26  C   UNL     1      23.717  45.992  49.134  1.00  0.00     0.293 C 
BRANCH  26  27
HETATM   27  C   UNL     1      24.437  46.096  50.449  1.00  0.00     0.077 A 
HETATM   28  C   UNL     1      25.038  47.276  50.856  1.00  0.00     0.145 A 
HETATM   29  N   UNL     1      25.665  47.386  52.046  1.00  0.00    -0.262 NA
HETATM   30  C   UNL     1      25.678  46.284  52.835  1.00  0.00     0.048 A 
HETATM   31  C   UNL     1      26.373  46.372  54.158  1.00  0.00     0.072 C 
HETATM   32  C   UNL     1      25.071  45.102  52.425  1.00  0.00     0.143 A 
HETATM   33  N   UNL     1      24.431  44.976  51.232  1.00  0.00    -0.260 NA
ENDBRANCH  26  27
ENDBRANCH  23  26
ENDBRANCH  22  23
ENDBRANCH   1  22
TORSDOF 11
ENDMDL
MODEL 5
REMARK VINA RESULT:      -7.1      4.597      7.803
REMARK  11 active torsions:
REMARK  status: ('A' for Active; 'I' for Inactive)
REMARK    1  A    between atoms: C_5  and  C_6 
REMARK    2  A    between atoms: C_6  and  N_7 
REMARK    3  A    between atoms: N_7  and  C_10 
REMARK    4  A    between atoms: C_10  and  C_11 
REMARK    5  A    between atoms: C_13  and  O_14 
REMARK    6  A    between atoms: C_16  and  O_17 
REMARK    7  A    between atoms: O_17  and  C_18 
REMARK    8  A    between atoms: C_18  and  C_19 
REMARK    9  A    between atoms: C_19  and  O_20 
REMARK   10  A    between atoms: C_19  and  C_21 
REMARK   11  A    between atoms: C_21  and  N_22 
ROOT
HETATM    1  C   UNL     1      16.857  51.753  49.534  1.00  0.00    -0.030 A 
HETATM    2  C   UNL     1      16.895  50.398  49.163  1.00  0.00     0.048 A 
HETATM    3  C   UNL     1      18.116  49.762  48.893  1.00  0.00     0.102 A 
HETATM    4  C   UNL     1      19.319  50.487  48.993  1.00  0.00     0.102 A 
HETATM    5  C   UNL     1      19.281  51.842  49.330  1.00  0.00     0.040 A 
HETATM    6  C   UNL     1      18.062  52.469  49.602  1.00  0.00     0.012 A 
ENDROOT
BRANCH   4   7
HETATM    7  O   UNL     1      20.469  49.786  48.728  1.00  0.00    -0.346 OA
BRANCH   7   8
HETATM    8  C   UNL     1      21.332  50.272  47.699  1.00  0.00     0.209 C 
BRANCH   8   9
HETATM    9  C   UNL     1      22.670  49.541  47.860  1.00  0.00     0.168 C 
BRANCH   9  10
HETATM   10  O   UNL     1      23.744  50.298  47.266  1.00  0.00    -0.392 OA
HETATM   11  H   UNL     1      24.572  49.951  47.667  1.00  0.00     0.210 HD
ENDBRANCH   9  10
BRANCH   9  12
HETATM   12  C   UNL     1      23.033  49.331  49.338  1.00  0.00     0.268 C 
BRANCH  12  13
HETATM   13  N   UNL     1      23.152  47.831  49.605  1.00  0.00    -0.067 N 
HETATM   14  H   UNL     1      22.480  47.677  50.383  1.00  0.00     0.280 HD
HETATM   15  C   UNL     1      22.689  47.002  48.418  1.00  0.00     0.245 C 
HETATM   16  C   UNL     1      22.574  45.519  48.766  1.00  0.00     0.101 C 
HETATM   17  S   UNL     1      24.167  44.812  49.276  1.00  0.00    -0.166 SA
HETATM   18  C   UNL     1      24.566  45.989  50.599  1.00  0.00     0.101 C 
HETATM   19  C   UNL     1      24.533  47.434  50.104  1.00  0.00     0.245 C 
ENDBRANCH  12  13
ENDBRANCH   9  12
ENDBRANCH   8   9
ENDBRANCH   7   8
ENDBRANCH   4   7
BRANCH   3  20
HETATM   20  O   UNL     1      18.246  48.443  48.539  1.00  0.00    -0.353 OA
HETATM   21  C   UNL     1      17.108  47.598  48.663  1.00  0.00     0.210 C 
ENDBRANCH   3  20
BRANCH   1  22
HETATM   22  C   UNL     1      15.550  52.435  49.838  1.00  0.00     0.271 C 
BRANCH  22  23
HETATM   23  N   UNL     1      15.744  53.660  50.637  1.00  0.00    -0.066 N 
HETATM   24  H   UNL     1      16.740  53.840  50.813  1.00  0.00     0.277 HD
HETATM   25  H   UNL     1      15.361  53.554  51.592  1.00  0.00     0.277 HD
BRANCH  23  26
HETATM   26  C   UNL     1      15.117  54.915  50.100  1.00  0.00     0.293 C 
BRANCH  26  27
HETATM   27  C   UNL     1      15.197  56.014  51.121  1.00  0.00     0.077 A 
HETATM   28  C   UNL     1      15.349  57.340  50.748  1.00  0.00     0.145 A 
HETATM   29  N   UNL     1      15.397  58.336  51.657  1.00  0.00    -0.262 NA
HETATM   30  C   UNL     1      15.285  57.983  52.960  1.00  0.00     0.048 A 
HETATM   31  C   UNL     1      15.342  59.066  53.993  1.00  0.00     0.072 C 
HETATM   32  C   UNL     1      15.129  56.652  53.330  1.00  0.00     0.143 A 
HETATM   33  N   UNL     1      15.074  55.636  52.428  1.00  0.00    -0.260 NA
ENDBRANCH  26  27
ENDBRANCH  23  26
ENDBRANCH  22  23
ENDBRANCH   1  22
TORSDOF 11
ENDMDL
MODEL 6
REMARK VINA RESULT:      -7.0     12.014     15.628
REMARK  11 active torsions:
REMARK  status: ('A' for Active; 'I' for Inactive)
REMARK    1  A    between atoms: C_5  and  C_6 
REMARK    2  A    between atoms: C_6  and  N_7 
REMARK    3  A    between atoms: N_7  and  C_10 
REMARK    4  A    between atoms: C_10  and  C_11 
REMARK    5  A    between atoms: C_13  and  O_14 
REMARK    6  A    between atoms: C_16  and  O_17 
REMARK    7  A    between atoms: O_17  and  C_18 
REMARK    8  A    between atoms: C_18  and  C_19 
REMARK    9  A    between atoms: C_19  and  O_20 
REMARK   10  A    between atoms: C_19  and  C_21 
REMARK   11  A    between atoms: C_21  and  N_22 
ROOT
HETATM    1  C   UNL     1      31.682  49.930  41.966  1.00  0.00    -0.030 A 
HETATM    2  C   UNL     1      31.894  50.283  40.623  1.00  0.00     0.048 A 
HETATM    3  C   UNL     1      31.145  49.686  39.598  1.00  0.00     0.102 A 
HETATM    4  C   UNL     1      30.170  48.720  39.914  1.00  0.00     0.102 A 
HETATM    5  C   UNL     1      29.981  48.344  41.246  1.00  0.00     0.040 A 
HETATM    6  C   UNL     1      30.728  48.946  42.264  1.00  0.00     0.012 A 
ENDROOT
BRANCH   4   7
HETATM    7  O   UNL     1      29.471  48.199  38.854  1.00  0.00    -0.346 OA
BRANCH   7   8
HETATM    8  C   UNL     1      28.077  47.940  39.030  1.00  0.00     0.209 C 
BRANCH   8   9
HETATM    9  C   UNL     1      27.324  49.044  38.279  1.00  0.00     0.168 C 
BRANCH   9  10
HETATM   10  O   UNL     1      26.451  48.482  37.280  1.00  0.00    -0.392 OA
HETATM   11  H   UNL     1      25.757  49.159  37.115  1.00  0.00     0.210 HD
ENDBRANCH   9  10
BRANCH   9  12
HETATM   12  C   UNL     1      26.446  49.881  39.222  1.00  0.00     0.268 C 
BRANCH  12  13
HETATM   13  N   UNL     1      27.151  51.209  39.500  1.00  0.00    -0.067 N 
HETATM   14  H   UNL     1      26.384  51.904  39.415  1.00  0.00     0.280 HD
HETATM   15  C   UNL     1      27.690  51.281  40.919  1.00  0.00     0.245 C 
HETATM   16  C   UNL     1      28.173  52.686  41.277  1.00  0.00     0.101 C 
HETATM   17  S   UNL     1      29.529  53.235  40.200  1.00  0.00    -0.166 SA
HETATM   18  C   UNL     1      28.715  52.975  38.598  1.00  0.00     0.101 C 
HETATM   19  C   UNL     1      28.198  51.545  38.449  1.00  0.00     0.245 C 
ENDBRANCH  12  13
ENDBRANCH   9  12
ENDBRANCH   8   9
ENDBRANCH   7   8
ENDBRANCH   4   7
BRANCH   3  20
HETATM   20  O   UNL     1      31.275  49.982  38.264  1.00  0.00    -0.353 OA
HETATM   21  C   UNL     1      31.968  51.170  37.902  1.00  0.00     0.210 C 
ENDBRANCH   3  20
BRANCH   1  22
HETATM   22  C   UNL     1      32.475  50.578  43.070  1.00  0.00     0.271 C 
BRANCH  22  23
HETATM   23  N   UNL     1      33.925  50.353  42.907  1.00  0.00    -0.066 N 
HETATM   24  H   UNL     1      34.128  49.819  42.054  1.00  0.00     0.277 HD
HETATM   25  H   UNL     1      34.298  49.741  43.652  1.00  0.00     0.277 HD
BRANCH  23  26
HETATM   26  C   UNL     1      34.797  51.576  42.929  1.00  0.00     0.293 C 
BRANCH  26  27
HETATM   27  C   UNL     1      35.559  51.694  41.639  1.00  0.00     0.077 A 
HETATM   28  C   UNL     1      35.734  50.607  40.798  1.00  0.00     0.145 A 
HETATM   29  N   UNL     1      36.394  50.709  39.626  1.00  0.00    -0.262 NA
HETATM   30  C   UNL     1      36.881  51.932  39.302  1.00  0.00     0.048 A 
HETATM   31  C   UNL     1      37.625  52.076  38.011  1.00  0.00     0.072 C 
HETATM   32  C   UNL     1      36.700  53.021  40.146  1.00  0.00     0.143 A 
HETATM   33  N   UNL     1      36.032  52.937  41.328  1.00  0.00    -0.260 NA
ENDBRANCH  26  27
ENDBRANCH  23  26
ENDBRANCH  22  23
ENDBRANCH   1  22
TORSDOF 11
ENDMDL
MODEL 7
REMARK VINA RESULT:      -7.0      6.286     12.103
REMARK  11 active torsions:
REMARK  status: ('A' for Active; 'I' for Inactive)
REMARK    1  A    between atoms: C_5  and  C_6 
REMARK    2  A    between atoms: C_6  and  N_7 
REMARK    3  A    between atoms: N_7  and  C_10 
REMARK    4  A    between atoms: C_10  and  C_11 
REMARK    5  A    between atoms: C_13  and  O_14 
REMARK    6  A    between atoms: C_16  and  O_17 
REMARK    7  A    between atoms: O_17  and  C_18 
REMARK    8  A    between atoms: C_18  and  C_19 
REMARK    9  A    between atoms: C_19  and  O_20 
REMARK   10  A    between atoms: C_19  and  C_21 
REMARK   11  A    between atoms: C_21  and  N_22 
ROOT
HETATM    1  C   UNL     1      19.488  51.347  48.350  1.00  0.00    -0.030 A 
HETATM    2  C   UNL     1      18.435  51.127  47.447  1.00  0.00     0.048 A 
HETATM    3  C   UNL     1      17.127  51.528  47.757  1.00  0.00     0.102 A 
HETATM    4  C   UNL     1      16.862  52.158  48.989  1.00  0.00     0.102 A 
HETATM    5  C   UNL     1      17.902  52.348  49.903  1.00  0.00     0.040 A 
HETATM    6  C   UNL     1      19.204  51.950  49.585  1.00  0.00     0.012 A 
ENDROOT
BRANCH   4   7
HETATM    7  O   UNL     1      15.560  52.533  49.207  1.00  0.00    -0.346 OA
BRANCH   7   8
HETATM    8  C   UNL     1      15.272  53.325  50.361  1.00  0.00     0.209 C 
BRANCH   8   9
HETATM    9  C   UNL     1      14.875  54.717  49.855  1.00  0.00     0.168 C 
BRANCH   9  10
HETATM   10  O   UNL     1      14.706  54.714  48.424  1.00  0.00    -0.392 OA
HETATM   11  H   UNL     1      13.894  54.188  48.249  1.00  0.00     0.210 HD
ENDBRANCH   9  10
BRANCH   9  12
HETATM   12  C   UNL     1      13.545  55.189  50.462  1.00  0.00     0.268 C 
BRANCH  12  13
HETATM   13  N   UNL     1      13.831  56.312  51.458  1.00  0.00    -0.067 N 
HETATM   14  H   UNL     1      13.018  56.946  51.337  1.00  0.00     0.280 HD
HETATM   15  C   UNL     1      13.825  55.815  52.895  1.00  0.00     0.245 C 
HETATM   16  C   UNL     1      13.865  56.965  53.899  1.00  0.00     0.101 C 
HETATM   17  S   UNL     1      15.368  57.969  53.727  1.00  0.00    -0.166 SA
HETATM   18  C   UNL     1      15.223  58.359  51.959  1.00  0.00     0.101 C 
HETATM   19  C   UNL     1      15.085  57.097  51.108  1.00  0.00     0.245 C 
ENDBRANCH  12  13
ENDBRANCH   9  12
ENDBRANCH   8   9
ENDBRANCH   7   8
ENDBRANCH   4   7
BRANCH   3  20
HETATM   20  O   UNL     1      16.044  51.366  46.930  1.00  0.00    -0.353 OA
HETATM   21  C   UNL     1      16.279  50.955  45.588  1.00  0.00     0.210 C 
ENDBRANCH   3  20
BRANCH   1  22
HETATM   22  C   UNL     1      20.895  50.930  48.014  1.00  0.00     0.271 C 
BRANCH  22  23
HETATM   23  N   UNL     1      21.374  49.853  48.902  1.00  0.00    -0.066 N 
HETATM   24  H   UNL     1      20.603  49.442  49.443  1.00  0.00     0.277 HD
HETATM   25  H   UNL     1      21.997  50.221  49.641  1.00  0.00     0.277 HD
BRANCH  23  26
HETATM   26  C   UNL     1      22.149  48.745  48.250  1.00  0.00     0.293 C 
BRANCH  26  27
HETATM   27  C   UNL     1      23.621  48.930  48.488  1.00  0.00     0.077 A 
HETATM   28  C   UNL     1      24.295  48.209  49.461  1.00  0.00     0.145 A 
HETATM   29  N   UNL     1      25.621  48.351  49.665  1.00  0.00    -0.262 NA
HETATM   30  C   UNL     1      26.272  49.233  48.868  1.00  0.00     0.048 A 
HETATM   31  C   UNL     1      27.744  49.417  49.076  1.00  0.00     0.072 C 
HETATM   32  C   UNL     1      25.594  49.952  47.891  1.00  0.00     0.143 A 
HETATM   33  N   UNL     1      24.259  49.818  47.669  1.00  0.00    -0.260 NA
ENDBRANCH  26  27
ENDBRANCH  23  26
ENDBRANCH  22  23
ENDBRANCH   1  22
TORSDOF 11
ENDMDL
MODEL 8
REMARK VINA RESULT:      -6.9     12.079     15.370
REMARK  11 active torsions:
REMARK  status: ('A' for Active; 'I' for Inactive)
REMARK    1  A    between atoms: C_5  and  C_6 
REMARK    2  A    between atoms: C_6  and  N_7 
REMARK    3  A    between atoms: N_7  and  C_10 
REMARK    4  A    between atoms: C_10  and  C_11 
REMARK    5  A    between atoms: C_13  and  O_14 
REMARK    6  A    between atoms: C_16  and  O_17 
REMARK    7  A    between atoms: O_17  and  C_18 
REMARK    8  A    between atoms: C_18  and  C_19 
REMARK    9  A    between atoms: C_19  and  O_20 
REMARK   10  A    between atoms: C_19  and  C_21 
REMARK   11  A    between atoms: C_21  and  N_22 
ROOT
HETATM    1  C   UNL     1      32.894  51.834  39.347  1.00  0.00    -0.030 A 
HETATM    2  C   UNL     1      32.059  52.449  40.295  1.00  0.00     0.048 A 
HETATM    3  C   UNL     1      30.673  52.520  40.092  1.00  0.00     0.102 A 
HETATM    4  C   UNL     1      30.108  51.971  38.924  1.00  0.00     0.102 A 
HETATM    5  C   UNL     1      30.939  51.389  37.965  1.00  0.00     0.040 A 
HETATM    6  C   UNL     1      32.320  51.316  38.176  1.00  0.00     0.012 A 
ENDROOT
BRANCH   4   7
HETATM    7  O   UNL     1      28.744  52.069  38.811  1.00  0.00    -0.346 OA
BRANCH   7   8
HETATM    8  C   UNL     1      28.002  50.872  38.569  1.00  0.00     0.209 C 
BRANCH   8   9
HETATM    9  C   UNL     1      27.159  50.611  39.823  1.00  0.00     0.168 C 
BRANCH   9  10
HETATM   10  O   UNL     1      25.757  50.551  39.496  1.00  0.00    -0.392 OA
HETATM   11  H   UNL     1      25.371  51.400  39.806  1.00  0.00     0.210 HD
ENDBRANCH   9  10
BRANCH   9  12
HETATM   12  C   UNL     1      27.523  49.275  40.489  1.00  0.00     0.268 C 
BRANCH  12  13
HETATM   13  N   UNL     1      29.036  49.077  40.397  1.00  0.00    -0.067 N 
HETATM   14  H   UNL     1      29.360  49.952  39.940  1.00  0.00     0.280 HD
HETATM   15  C   UNL     1      29.684  49.000  41.770  1.00  0.00     0.245 C 
HETATM   16  C   UNL     1      31.209  49.050  41.686  1.00  0.00     0.101 C 
HETATM   17  S   UNL     1      31.885  47.656  40.737  1.00  0.00    -0.166 SA
HETATM   18  C   UNL     1      30.921  47.881  39.216  1.00  0.00     0.101 C 
HETATM   19  C   UNL     1      29.418  47.915  39.494  1.00  0.00     0.245 C 
ENDBRANCH  12  13
ENDBRANCH   9  12
ENDBRANCH   8   9
ENDBRANCH   7   8
ENDBRANCH   4   7
BRANCH   3  20
HETATM   20  O   UNL     1      29.785  53.088  40.970  1.00  0.00    -0.353 OA
HETATM   21  C   UNL     1      29.852  52.704  42.338  1.00  0.00     0.210 C 
ENDBRANCH   3  20
BRANCH   1  22
HETATM   22  C   UNL     1      34.380  51.744  39.568  1.00  0.00     0.271 C 
BRANCH  22  23
HETATM   23  N   UNL     1      34.777  50.421  40.090  1.00  0.00    -0.066 N 
HETATM   24  H   UNL     1      35.761  50.215  39.881  1.00  0.00     0.277 HD
HETATM   25  H   UNL     1      34.278  49.658  39.603  1.00  0.00     0.277 HD
BRANCH  23  26
HETATM   26  C   UNL     1      34.534  50.179  41.552  1.00  0.00     0.293 C 
BRANCH  26  27
HETATM   27  C   UNL     1      35.547  50.922  42.377  1.00  0.00     0.077 A 
HETATM   28  C   UNL     1      36.897  50.617  42.315  1.00  0.00     0.145 A 
HETATM   29  N   UNL     1      37.816  51.295  43.033  1.00  0.00    -0.262 NA
HETATM   30  C   UNL     1      37.359  52.299  43.821  1.00  0.00     0.048 A 
HETATM   31  C   UNL     1      38.355  53.065  44.635  1.00  0.00     0.072 C 
HETATM   32  C   UNL     1      36.004  52.604  43.878  1.00  0.00     0.143 A 
HETATM   33  N   UNL     1      35.065  51.935  43.157  1.00  0.00    -0.260 NA
ENDBRANCH  26  27
ENDBRANCH  23  26
ENDBRANCH  22  23
ENDBRANCH   1  22
TORSDOF 11
ENDMDL
MODEL 9
REMARK VINA RESULT:      -6.9      3.426      9.987
REMARK  11 active torsions:
REMARK  status: ('A' for Active; 'I' for Inactive)
REMARK    1  A    between atoms: C_5  and  C_6 
REMARK    2  A    between atoms: C_6  and  N_7 
REMARK    3  A    between atoms: N_7  and  C_10 
REMARK    4  A    between atoms: C_10  and  C_11 
REMARK    5  A    between atoms: C_13  and  O_14 
REMARK    6  A    between atoms: C_16  and  O_17 
REMARK    7  A    between atoms: O_17  and  C_18 
REMARK    8  A    between atoms: C_18  and  C_19 
REMARK    9  A    between atoms: C_19  and  O_20 
REMARK   10  A    between atoms: C_19  and  C_21 
REMARK   11  A    between atoms: C_21  and  N_22 
ROOT
HETATM    1  C   UNL     1      25.839  45.026  49.755  1.00  0.00    -0.030 A 
HETATM    2  C   UNL     1      26.594  46.201  49.909  1.00  0.00     0.048 A 
HETATM    3  C   UNL     1      25.980  47.461  49.856  1.00  0.00     0.102 A 
HETATM    4  C   UNL     1      24.590  47.553  49.644  1.00  0.00     0.102 A 
HETATM    5  C   UNL     1      23.843  46.388  49.459  1.00  0.00     0.040 A 
HETATM    6  C   UNL     1      24.461  45.135  49.517  1.00  0.00     0.012 A 
ENDROOT
BRANCH   4   7
HETATM    7  O   UNL     1      24.067  48.822  49.623  1.00  0.00    -0.346 OA
BRANCH   7   8
HETATM    8  C   UNL     1      23.121  49.142  48.601  1.00  0.00     0.209 C 
BRANCH   8   9
HETATM    9  C   UNL     1      21.947  49.848  49.289  1.00  0.00     0.168 C 
BRANCH   9  10
HETATM   10  O   UNL     1      21.650  51.101  48.642  1.00  0.00    -0.392 OA
HETATM   11  H   UNL     1      21.525  51.755  49.365  1.00  0.00     0.210 HD
ENDBRANCH   9  10
BRANCH   9  12
HETATM   12  C   UNL     1      20.664  49.004  49.242  1.00  0.00     0.268 C 
BRANCH  12  13
HETATM   13  N   UNL     1      19.488  49.918  48.897  1.00  0.00    -0.067 N 
HETATM   14  H   UNL     1      19.953  50.803  48.616  1.00  0.00     0.280 HD
HETATM   15  C   UNL     1      18.700  49.405  47.702  1.00  0.00     0.245 C 
HETATM   16  C   UNL     1      17.684  50.431  47.204  1.00  0.00     0.101 C 
HETATM   17  S   UNL     1      16.452  50.843  48.473  1.00  0.00    -0.166 SA
HETATM   18  C   UNL     1      17.593  51.320  49.803  1.00  0.00     0.101 C 
HETATM   19  C   UNL     1      18.610  50.220  50.101  1.00  0.00     0.245 C 
ENDBRANCH  12  13
ENDBRANCH   9  12
ENDBRANCH   8   9
ENDBRANCH   7   8
ENDBRANCH   4   7
BRANCH   3  20
HETATM   20  O   UNL     1      26.637  48.656  50.011  1.00  0.00    -0.353 OA
HETATM   21  C   UNL     1      27.661  48.986  49.080  1.00  0.00     0.210 C 
ENDBRANCH   3  20
BRANCH   1  22
HETATM   22  C   UNL     1      26.494  43.672  49.825  1.00  0.00     0.271 C 
BRANCH  22  23
HETATM   23  N   UNL     1      26.013  42.891  50.982  1.00  0.00    -0.066 N 
HETATM   24  H   UNL     1      26.605  42.070  51.153  1.00  0.00     0.277 HD
HETATM   25  H   UNL     1      25.088  42.468  50.794  1.00  0.00     0.277 HD
BRANCH  23  26
HETATM   26  C   UNL     1      25.847  43.641  52.272  1.00  0.00     0.293 C 
BRANCH  26  27
HETATM   27  C   UNL     1      27.100  43.540  53.096  1.00  0.00     0.077 A 
HETATM   28  C   UNL     1      27.761  42.335  53.267  1.00  0.00     0.145 A 
HETATM   29  N   UNL     1      28.899  42.239  53.984  1.00  0.00    -0.262 NA
HETATM   30  C   UNL     1      29.376  43.383  54.532  1.00  0.00     0.048 A 
HETATM   31  C   UNL     1      30.635  43.308  55.339  1.00  0.00     0.072 C 
HETATM   32  C   UNL     1      28.713  44.592  54.356  1.00  0.00     0.143 A 
HETATM   33  N   UNL     1      27.567  44.707  53.632  1.00  0.00    -0.260 NA
ENDBRANCH  26  27
ENDBRANCH  23  26
ENDBRANCH  22  23
ENDBRANCH   1  22
TORSDOF 11
ENDMDL
MODEL 10
REMARK VINA RESULT:      -6.9      3.442     10.090
REMARK  11 active torsions:
REMARK  status: ('A' for Active; 'I' for Inactive)
REMARK    1  A    between atoms: C_5  and  C_6 
REMARK    2  A    between atoms: C_6  and  N_7 
REMARK    3  A    between atoms: N_7  and  C_10 
REMARK    4  A    between atoms: C_10  and  C_11 
REMARK    5  A    between atoms: C_13  and  O_14 
REMARK    6  A    between atoms: C_16  and  O_17 
REMARK    7  A    between atoms: O_17  and  C_18 
REMARK    8  A    between atoms: C_18  and  C_19 
REMARK    9  A    between atoms: C_19  and  O_20 
REMARK   10  A    between atoms: C_19  and  C_21 
REMARK   11  A    between atoms: C_21  and  N_22 
ROOT
HETATM    1  C   UNL     1      25.159  44.191  50.828  1.00  0.00    -0.030 A 
HETATM    2  C   UNL     1      25.501  45.136  51.810  1.00  0.00     0.048 A 
HETATM    3  C   UNL     1      25.213  46.497  51.626  1.00  0.00     0.102 A 
HETATM    4  C   UNL     1      24.577  46.925  50.445  1.00  0.00     0.102 A 
HETATM    5  C   UNL     1      24.265  45.991  49.454  1.00  0.00     0.040 A 
HETATM    6  C   UNL     1      24.550  44.635  49.645  1.00  0.00     0.012 A 
ENDROOT
BRANCH   4   7
HETATM    7  O   UNL     1      24.317  48.269  50.353  1.00  0.00    -0.346 OA
BRANCH   7   8
HETATM    8  C   UNL     1      23.945  48.797  49.078  1.00  0.00     0.209 C 
BRANCH   8   9
HETATM    9  C   UNL     1      22.690  49.649  49.300  1.00  0.00     0.168 C 
BRANCH   9  10
HETATM   10  O   UNL     1      23.042  50.986  49.703  1.00  0.00    -0.392 OA
HETATM   11  H   UNL     1      22.323  51.285  50.304  1.00  0.00     0.210 HD
ENDBRANCH   9  10
BRANCH   9  12
HETATM   12  C   UNL     1      21.848  49.773  48.020  1.00  0.00     0.268 C 
BRANCH  12  13
HETATM   13  N   UNL     1      20.559  48.972  48.201  1.00  0.00    -0.067 N 
HETATM   14  H   UNL     1      20.881  47.988  48.119  1.00  0.00     0.280 HD
HETATM   15  C   UNL     1      19.965  49.154  49.588  1.00  0.00     0.245 C 
HETATM   16  C   UNL     1      18.824  48.174  49.855  1.00  0.00     0.101 C 
HETATM   17  S   UNL     1      17.448  48.395  48.690  1.00  0.00    -0.166 SA
HETATM   18  C   UNL     1      18.385  48.241  47.143  1.00  0.00     0.101 C 
HETATM   19  C   UNL     1      19.555  49.223  47.087  1.00  0.00     0.245 C 
ENDBRANCH  12  13
ENDBRANCH   9  12
ENDBRANCH   8   9
ENDBRANCH   7   8
ENDBRANCH   4   7
BRANCH   3  20
HETATM   20  O   UNL     1      25.498  47.484  52.536  1.00  0.00    -0.353 OA
HETATM   21  C   UNL     1      25.953  47.097  53.828  1.00  0.00     0.210 C 
ENDBRANCH   3  20
BRANCH   1  22
HETATM   22  C   UNL     1      25.454  42.728  51.028  1.00  0.00     0.271 C 
BRANCH  22  23
HETATM   23  N   UNL     1      26.893  42.435  50.881  1.00  0.00    -0.066 N 
HETATM   24  H   UNL     1      27.453  43.296  50.879  1.00  0.00     0.277 HD
HETATM   25  H   UNL     1      27.102  42.026  49.954  1.00  0.00     0.277 HD
BRANCH  23  26
HETATM   26  C   UNL     1      27.484  41.478  51.875  1.00  0.00     0.293 C 
BRANCH  26  27
HETATM   27  C   UNL     1      28.282  42.227  52.906  1.00  0.00     0.077 A 
HETATM   28  C   UNL     1      29.668  42.243  52.879  1.00  0.00     0.145 A 
HETATM   29  N   UNL     1      30.391  42.933  53.785  1.00  0.00    -0.262 NA
HETATM   30  C   UNL     1      29.700  43.619  54.727  1.00  0.00     0.048 A 
HETATM   31  C   UNL     1      30.476  44.388  55.751  1.00  0.00     0.072 C 
HETATM   32  C   UNL     1      28.310  43.603  54.749  1.00  0.00     0.143 A 
HETATM   33  N   UNL     1      27.565  42.918  53.841  1.00  0.00    -0.260 NA
ENDBRANCH  26  27
ENDBRANCH  23  26
ENDBRANCH  22  23
ENDBRANCH   1  22
TORSDOF 11
ENDMDL
