MODEL 1
REMARK VINA RESULT:      -8.8      0.000      0.000
REMARK  3 active torsions:
REMARK  status: ('A' for Active; 'I' for Inactive)
REMARK    1  A    between atoms: C_7  and  C_8 
REMARK    2  A    between atoms: C_17  and  C_18 
REMARK       I    between atoms: C_18  and  N_19 
REMARK    3  A    between atoms: N_19  and  C_20 
ROOT
HETATM    1  C   UNL     1      25.462  43.287  52.015  1.00  0.00     0.206 C 
HETATM    2  N   UNL     1      24.433  43.632  51.030  1.00  0.00    -0.084 N 
HETATM    3  C   UNL     1      24.209  44.901  50.572  1.00  0.00     0.725 A 
HETATM    4  N   UNL     1      23.223  44.886  49.710  1.00  0.00    -0.054 NA
HETATM    5  C   UNL     1      22.843  43.569  49.710  1.00  0.00     0.275 A 
HETATM    6  N   UNL     1      23.534  42.761  50.523  1.00  0.00    -0.149 NA
HETATM    7  N   UNL     1      24.933  45.924  51.069  1.00  0.00    -0.192 N 
HETATM    8  C   UNL     1      25.774  45.784  52.170  1.00  0.00     0.037 C 
HETATM    9  C   UNL     1      26.229  47.074  52.804  1.00  0.00     0.070 C 
HETATM   10  C   UNL     1      26.064  44.543  52.638  1.00  0.00     0.063 C 
HETATM   11  H   UNL     1      24.656  46.866  50.807  1.00  0.00     0.184 HD
ENDROOT
BRANCH  10  12
HETATM   12  C   UNL     1      26.868  44.277  53.860  1.00  0.00     0.256 C 
HETATM   13  N   UNL     1      28.220  44.473  53.685  1.00  0.00    -0.323 N 
HETATM   14  H   UNL     1      28.533  44.730  52.758  1.00  0.00     0.169 HD
HETATM   15  O   UNL     1      26.290  43.892  54.868  1.00  0.00    -0.267 OA
BRANCH  13  16
HETATM   16  C   UNL     1      29.228  44.405  54.671  1.00  0.00     0.035 A 
HETATM   17  C   UNL     1      30.064  43.302  54.858  1.00  0.00     0.029 A 
HETATM   18  C   UNL     1      31.020  43.301  55.878  1.00  0.00     0.002 A 
HETATM   19  C   UNL     1      31.148  44.401  56.723  1.00  0.00     0.000 A 
HETATM   20  C   UNL     1      30.321  45.507  56.545  1.00  0.00     0.002 A 
HETATM   21  C   UNL     1      29.370  45.510  55.521  1.00  0.00     0.029 A 
ENDBRANCH  13  16
ENDBRANCH  10  12
BRANCH   1  22
HETATM   22  C   UNL     1      26.503  42.425  51.348  1.00  0.00     0.015 A 
HETATM   23  C   UNL     1      27.364  41.479  51.978  1.00  0.00     0.061 A 
HETATM   24  C   UNL     1      27.435  41.122  53.418  1.00  0.00     0.073 C 
HETATM   25  N   UNL     1      28.165  40.869  51.096  1.00  0.00    -0.178 NA
HETATM   26  N   UNL     1      27.799  41.376  49.911  1.00  0.00    -0.284 N 
HETATM   27  C   UNL     1      28.427  40.903  48.702  1.00  0.00     0.179 C 
HETATM   28  C   UNL     1      26.823  42.323  50.004  1.00  0.00     0.123 A 
ENDBRANCH   1  22
TORSDOF 3
ENDMDL
MODEL 2
REMARK VINA RESULT:      -8.4      1.927      4.186
REMARK  3 active torsions:
REMARK  status: ('A' for Active; 'I' for Inactive)
REMARK    1  A    between atoms: C_7  and  C_8 
REMARK    2  A    between atoms: C_17  and  C_18 
REMARK       I    between atoms: C_18  and  N_19 
REMARK    3  A    between atoms: N_19  and  C_20 
ROOT
HETATM    1  C   UNL     1      27.441  44.790  52.088  1.00  0.00     0.206 C 
HETATM    2  N   UNL     1      26.433  44.566  51.049  1.00  0.00    -0.084 N 
HETATM    3  C   UNL     1      25.873  43.347  50.777  1.00  0.00     0.725 A 
HETATM    4  N   UNL     1      25.017  43.469  49.795  1.00  0.00    -0.054 NA
HETATM    5  C   UNL     1      25.124  44.796  49.465  1.00  0.00     0.275 A 
HETATM    6  N   UNL     1      25.999  45.509  50.184  1.00  0.00    -0.149 NA
HETATM    7  N   UNL     1      26.285  42.261  51.461  1.00  0.00    -0.192 N 
HETATM    8  C   UNL     1      27.393  42.279  52.305  1.00  0.00     0.037 C 
HETATM    9  C   UNL     1      27.920  40.925  52.709  1.00  0.00     0.070 C 
HETATM   10  C   UNL     1      27.960  43.466  52.640  1.00  0.00     0.063 C 
HETATM   11  H   UNL     1      25.949  41.354  51.149  1.00  0.00     0.184 HD
ENDROOT
BRANCH  10  12
HETATM   12  C   UNL     1      29.199  43.602  53.452  1.00  0.00     0.256 C 
HETATM   13  N   UNL     1      28.970  44.027  54.742  1.00  0.00    -0.323 N 
HETATM   14  H   UNL     1      28.014  44.242  54.994  1.00  0.00     0.169 HD
HETATM   15  O   UNL     1      30.275  43.363  52.920  1.00  0.00    -0.267 OA
BRANCH  13  16
HETATM   16  C   UNL     1      29.918  44.153  55.780  1.00  0.00     0.035 A 
HETATM   17  C   UNL     1      30.911  43.209  56.050  1.00  0.00     0.029 A 
HETATM   18  C   UNL     1      31.795  43.394  57.118  1.00  0.00     0.002 A 
HETATM   19  C   UNL     1      31.693  44.522  57.927  1.00  0.00     0.000 A 
HETATM   20  C   UNL     1      30.708  45.472  57.666  1.00  0.00     0.002 A 
HETATM   21  C   UNL     1      29.829  45.290  56.595  1.00  0.00     0.029 A 
ENDBRANCH  13  16
ENDBRANCH  10  12
BRANCH   1  22
HETATM   22  C   UNL     1      26.846  45.664  53.163  1.00  0.00     0.015 A 
HETATM   23  C   UNL     1      25.832  45.303  54.097  1.00  0.00     0.061 A 
HETATM   24  C   UNL     1      25.136  43.997  54.234  1.00  0.00     0.073 C 
HETATM   25  N   UNL     1      25.538  46.308  54.928  1.00  0.00    -0.178 NA
HETATM   26  N   UNL     1      26.376  47.290  54.569  1.00  0.00    -0.284 N 
HETATM   27  C   UNL     1      26.377  48.536  55.295  1.00  0.00     0.179 C 
HETATM   28  C   UNL     1      27.168  46.966  53.508  1.00  0.00     0.123 A 
ENDBRANCH   1  22
TORSDOF 3
ENDMDL
MODEL 3
REMARK VINA RESULT:      -8.0      8.724     12.523
REMARK  3 active torsions:
REMARK  status: ('A' for Active; 'I' for Inactive)
REMARK    1  A    between atoms: C_7  and  C_8 
REMARK    2  A    between atoms: C_17  and  C_18 
REMARK       I    between atoms: C_18  and  N_19 
REMARK    3  A    between atoms: N_19  and  C_20 
ROOT
HETATM    1  C   UNL     1      17.126  50.119  47.347  1.00  0.00     0.206 C 
HETATM    2  N   UNL     1      15.966  49.909  46.477  1.00  0.00    -0.084 N 
HETATM    3  C   UNL     1      15.240  48.750  46.436  1.00  0.00     0.725 A 
HETATM    4  N   UNL     1      14.277  48.869  45.558  1.00  0.00    -0.054 NA
HETATM    5  C   UNL     1      14.486  50.124  45.048  1.00  0.00     0.275 A 
HETATM    6  N   UNL     1      15.526  50.795  45.557  1.00  0.00    -0.149 NA
HETATM    7  N   UNL     1      15.617  47.705  47.200  1.00  0.00    -0.192 N 
HETATM    8  C   UNL     1      16.825  47.676  47.892  1.00  0.00     0.037 C 
HETATM    9  C   UNL     1      17.247  46.320  48.401  1.00  0.00     0.070 C 
HETATM   10  C   UNL     1      17.563  48.810  47.999  1.00  0.00     0.063 C 
HETATM   11  H   UNL     1      15.140  46.819  47.051  1.00  0.00     0.184 HD
ENDROOT
BRANCH  10  12
HETATM   12  C   UNL     1      18.909  48.877  48.628  1.00  0.00     0.256 C 
HETATM   13  N   UNL     1      19.943  48.899  47.719  1.00  0.00    -0.323 N 
HETATM   14  H   UNL     1      19.699  48.825  46.740  1.00  0.00     0.169 HD
HETATM   15  O   UNL     1      18.983  48.876  49.850  1.00  0.00    -0.267 OA
BRANCH  13  16
HETATM   16  C   UNL     1      21.318  49.061  47.994  1.00  0.00     0.035 A 
HETATM   17  C   UNL     1      22.117  48.082  48.586  1.00  0.00     0.029 A 
HETATM   18  C   UNL     1      23.467  48.332  48.852  1.00  0.00     0.002 A 
HETATM   19  C   UNL     1      24.030  49.565  48.532  1.00  0.00     0.000 A 
HETATM   20  C   UNL     1      23.243  50.549  47.938  1.00  0.00     0.002 A 
HETATM   21  C   UNL     1      21.896  50.296  47.666  1.00  0.00     0.029 A 
ENDBRANCH  13  16
ENDBRANCH  10  12
BRANCH   1  22
HETATM   22  C   UNL     1      16.786  51.178  48.364  1.00  0.00     0.015 A 
HETATM   23  C   UNL     1      17.638  52.220  48.834  1.00  0.00     0.061 A 
HETATM   24  C   UNL     1      19.040  52.506  48.436  1.00  0.00     0.073 C 
HETATM   25  N   UNL     1      17.023  53.003  49.728  1.00  0.00    -0.178 NA
HETATM   26  N   UNL     1      15.781  52.505  49.803  1.00  0.00    -0.284 N 
HETATM   27  C   UNL     1      14.802  53.141  50.650  1.00  0.00     0.179 C 
HETATM   28  C   UNL     1      15.589  51.405  49.023  1.00  0.00     0.123 A 
ENDBRANCH   1  22
TORSDOF 3
ENDMDL
MODEL 4
REMARK VINA RESULT:      -7.8      2.864      6.116
REMARK  3 active torsions:
REMARK  status: ('A' for Active; 'I' for Inactive)
REMARK    1  A    between atoms: C_7  and  C_8 
REMARK    2  A    between atoms: C_17  and  C_18 
REMARK       I    between atoms: C_18  and  N_19 
REMARK    3  A    between atoms: N_19  and  C_20 
ROOT
HETATM    1  C   UNL     1      27.263  43.392  50.592  1.00  0.00     0.206 C 
HETATM    2  N   UNL     1      27.662  42.482  51.669  1.00  0.00    -0.084 N 
HETATM    3  C   UNL     1      27.445  42.728  52.998  1.00  0.00     0.725 A 
HETATM    4  N   UNL     1      27.921  41.738  53.709  1.00  0.00    -0.054 NA
HETATM    5  C   UNL     1      28.468  40.918  52.756  1.00  0.00     0.275 A 
HETATM    6  N   UNL     1      28.363  41.341  51.491  1.00  0.00    -0.149 NA
HETATM    7  N   UNL     1      26.869  43.888  53.371  1.00  0.00    -0.192 N 
HETATM    8  C   UNL     1      26.654  44.941  52.485  1.00  0.00     0.037 C 
HETATM    9  C   UNL     1      26.332  46.269  53.124  1.00  0.00     0.070 C 
HETATM   10  C   UNL     1      26.814  44.737  51.153  1.00  0.00     0.063 C 
HETATM   11  H   UNL     1      26.840  44.099  54.365  1.00  0.00     0.184 HD
ENDROOT
BRANCH  10  12
HETATM   12  C   UNL     1      26.706  45.807  50.124  1.00  0.00     0.256 C 
HETATM   13  N   UNL     1      25.597  46.609  50.276  1.00  0.00    -0.323 N 
HETATM   14  H   UNL     1      24.957  46.374  51.023  1.00  0.00     0.169 HD
HETATM   15  O   UNL     1      27.560  45.864  49.249  1.00  0.00    -0.267 OA
BRANCH  13  16
HETATM   16  C   UNL     1      25.269  47.762  49.531  1.00  0.00     0.035 A 
HETATM   17  C   UNL     1      26.202  48.710  49.109  1.00  0.00     0.029 A 
HETATM   18  C   UNL     1      25.792  49.843  48.399  1.00  0.00     0.002 A 
HETATM   19  C   UNL     1      24.445  50.040  48.107  1.00  0.00     0.000 A 
HETATM   20  C   UNL     1      23.506  49.100  48.520  1.00  0.00     0.002 A 
HETATM   21  C   UNL     1      23.916  47.964  49.224  1.00  0.00     0.029 A 
ENDBRANCH  13  16
ENDBRANCH  10  12
BRANCH   1  22
HETATM   22  C   UNL     1      26.190  42.728  49.769  1.00  0.00     0.015 A 
HETATM   23  C   UNL     1      26.378  41.846  48.665  1.00  0.00     0.061 A 
HETATM   24  C   UNL     1      27.658  41.376  48.076  1.00  0.00     0.073 C 
HETATM   25  N   UNL     1      25.213  41.420  48.162  1.00  0.00    -0.178 NA
HETATM   26  N   UNL     1      24.287  41.979  48.953  1.00  0.00    -0.284 N 
HETATM   27  C   UNL     1      22.890  41.696  48.736  1.00  0.00     0.179 C 
HETATM   28  C   UNL     1      24.813  42.785  49.918  1.00  0.00     0.123 A 
ENDBRANCH   1  22
TORSDOF 3
ENDMDL
MODEL 5
REMARK VINA RESULT:      -7.8      4.396      8.262
REMARK  3 active torsions:
REMARK  status: ('A' for Active; 'I' for Inactive)
REMARK    1  A    between atoms: C_7  and  C_8 
REMARK    2  A    between atoms: C_17  and  C_18 
REMARK       I    between atoms: C_18  and  N_19 
REMARK    3  A    between atoms: N_19  and  C_20 
ROOT
HETATM    1  C   UNL     1      24.150  46.468  50.392  1.00  0.00     0.206 C 
HETATM    2  N   UNL     1      24.555  45.349  51.246  1.00  0.00    -0.084 N 
HETATM    3  C   UNL     1      24.343  44.034  50.935  1.00  0.00     0.725 A 
HETATM    4  N   UNL     1      24.808  43.277  51.897  1.00  0.00    -0.054 NA
HETATM    5  C   UNL     1      25.261  44.194  52.810  1.00  0.00     0.275 A 
HETATM    6  N   UNL     1      25.105  45.480  52.474  1.00  0.00    -0.149 NA
HETATM    7  N   UNL     1      23.688  43.718  49.800  1.00  0.00    -0.192 N 
HETATM    8  C   UNL     1      23.042  44.670  49.015  1.00  0.00     0.037 C 
HETATM    9  C   UNL     1      22.078  44.120  47.994  1.00  0.00     0.070 C 
HETATM   10  C   UNL     1      23.252  45.990  49.255  1.00  0.00     0.063 C 
HETATM   11  H   UNL     1      23.431  42.744  49.662  1.00  0.00     0.184 HD
ENDROOT
BRANCH  10  12
HETATM   12  C   UNL     1      22.546  47.091  48.548  1.00  0.00     0.256 C 
HETATM   13  N   UNL     1      21.758  47.862  49.373  1.00  0.00    -0.323 N 
HETATM   14  H   UNL     1      21.701  47.588  50.346  1.00  0.00     0.169 HD
HETATM   15  O   UNL     1      22.694  47.198  47.338  1.00  0.00    -0.267 OA
BRANCH  13  16
HETATM   16  C   UNL     1      21.049  49.033  49.028  1.00  0.00     0.035 A 
HETATM   17  C   UNL     1      19.686  49.060  48.725  1.00  0.00     0.029 A 
HETATM   18  C   UNL     1      19.064  50.259  48.363  1.00  0.00     0.002 A 
HETATM   19  C   UNL     1      19.797  51.440  48.298  1.00  0.00     0.000 A 
HETATM   20  C   UNL     1      21.156  51.426  48.601  1.00  0.00     0.002 A 
HETATM   21  C   UNL     1      21.777  50.229  48.969  1.00  0.00     0.029 A 
ENDBRANCH  13  16
ENDBRANCH  10  12
BRANCH   1  22
HETATM   22  C   UNL     1      25.387  47.167  49.887  1.00  0.00     0.015 A 
HETATM   23  C   UNL     1      26.632  46.564  49.543  1.00  0.00     0.061 A 
HETATM   24  C   UNL     1      26.997  45.125  49.594  1.00  0.00     0.073 C 
HETATM   25  N   UNL     1      27.522  47.466  49.115  1.00  0.00    -0.178 NA
HETATM   26  N   UNL     1      26.853  48.627  49.139  1.00  0.00    -0.284 N 
HETATM   27  C   UNL     1      27.496  49.836  48.686  1.00  0.00     0.179 C 
HETATM   28  C   UNL     1      25.580  48.510  49.609  1.00  0.00     0.123 A 
ENDBRANCH   1  22
TORSDOF 3
ENDMDL
MODEL 6
REMARK VINA RESULT:      -7.7      2.441      6.441
REMARK  3 active torsions:
REMARK  status: ('A' for Active; 'I' for Inactive)
REMARK    1  A    between atoms: C_7  and  C_8 
REMARK    2  A    between atoms: C_17  and  C_18 
REMARK       I    between atoms: C_18  and  N_19 
REMARK    3  A    between atoms: N_19  and  C_20 
ROOT
HETATM    1  C   UNL     1      25.654  46.073  52.649  1.00  0.00     0.206 C 
HETATM    2  N   UNL     1      26.110  46.910  53.762  1.00  0.00    -0.084 N 
HETATM    3  C   UNL     1      27.151  46.584  54.588  1.00  0.00     0.725 A 
HETATM    4  N   UNL     1      27.308  47.524  55.485  1.00  0.00    -0.054 NA
HETATM    5  C   UNL     1      26.293  48.397  55.187  1.00  0.00     0.275 A 
HETATM    6  N   UNL     1      25.511  48.055  54.157  1.00  0.00    -0.149 NA
HETATM    7  N   UNL     1      27.787  45.407  54.419  1.00  0.00    -0.192 N 
HETATM    8  C   UNL     1      27.318  44.414  53.564  1.00  0.00     0.037 C 
HETATM    9  C   UNL     1      27.936  43.051  53.753  1.00  0.00     0.070 C 
HETATM   10  C   UNL     1      26.315  44.698  52.694  1.00  0.00     0.063 C 
HETATM   11  H   UNL     1      28.466  45.136  55.126  1.00  0.00     0.184 HD
ENDROOT
BRANCH  10  12
HETATM   12  C   UNL     1      25.670  43.696  51.804  1.00  0.00     0.256 C 
HETATM   13  N   UNL     1      26.498  43.227  50.809  1.00  0.00    -0.323 N 
HETATM   14  H   UNL     1      27.425  43.629  50.753  1.00  0.00     0.169 HD
HETATM   15  O   UNL     1      24.498  43.406  52.004  1.00  0.00    -0.267 OA
BRANCH  13  16
HETATM   16  C   UNL     1      26.219  42.204  49.877  1.00  0.00     0.035 A 
HETATM   17  C   UNL     1      25.443  42.383  48.731  1.00  0.00     0.029 A 
HETATM   18  C   UNL     1      25.188  41.310  47.871  1.00  0.00     0.002 A 
HETATM   19  C   UNL     1      25.705  40.047  48.151  1.00  0.00     0.000 A 
HETATM   20  C   UNL     1      26.482  39.858  49.290  1.00  0.00     0.002 A 
HETATM   21  C   UNL     1      26.742  40.932  50.146  1.00  0.00     0.029 A 
ENDBRANCH  13  16
ENDBRANCH  10  12
BRANCH   1  22
HETATM   22  C   UNL     1      25.925  46.795  51.354  1.00  0.00     0.015 A 
HETATM   23  C   UNL     1      25.132  46.761  50.171  1.00  0.00     0.061 A 
HETATM   24  C   UNL     1      23.865  46.021  49.939  1.00  0.00     0.073 C 
HETATM   25  N   UNL     1      25.646  47.528  49.203  1.00  0.00    -0.178 NA
HETATM   26  N   UNL     1      26.730  48.084  49.762  1.00  0.00    -0.284 N 
HETATM   27  C   UNL     1      27.521  49.028  49.012  1.00  0.00     0.179 C 
HETATM   28  C   UNL     1      26.954  47.668  51.040  1.00  0.00     0.123 A 
ENDBRANCH   1  22
TORSDOF 3
ENDMDL
MODEL 7
REMARK VINA RESULT:      -7.7      5.959      9.004
REMARK  3 active torsions:
REMARK  status: ('A' for Active; 'I' for Inactive)
REMARK    1  A    between atoms: C_7  and  C_8 
REMARK    2  A    between atoms: C_17  and  C_18 
REMARK       I    between atoms: C_18  and  N_19 
REMARK    3  A    between atoms: N_19  and  C_20 
ROOT
HETATM    1  C   UNL     1      20.101  48.847  48.845  1.00  0.00     0.206 C 
HETATM    2  N   UNL     1      19.264  49.993  49.210  1.00  0.00    -0.084 N 
HETATM    3  C   UNL     1      19.647  51.298  49.059  1.00  0.00     0.725 A 
HETATM    4  N   UNL     1      18.690  52.085  49.481  1.00  0.00    -0.054 NA
HETATM    5  C   UNL     1      17.746  51.198  49.930  1.00  0.00     0.275 A 
HETATM    6  N   UNL     1      18.059  49.902  49.813  1.00  0.00    -0.149 NA
HETATM    7  N   UNL     1      20.879  51.577  48.588  1.00  0.00    -0.192 N 
HETATM    8  C   UNL     1      21.860  50.603  48.424  1.00  0.00     0.037 C 
HETATM    9  C   UNL     1      23.263  51.124  48.229  1.00  0.00     0.070 C 
HETATM   10  C   UNL     1      21.524  49.291  48.521  1.00  0.00     0.063 C 
HETATM   11  H   UNL     1      21.181  52.548  48.611  1.00  0.00     0.184 HD
ENDROOT
BRANCH  10  12
HETATM   12  C   UNL     1      22.501  48.171  48.461  1.00  0.00     0.256 C 
HETATM   13  N   UNL     1      23.146  47.936  49.655  1.00  0.00    -0.323 N 
HETATM   14  H   UNL     1      22.933  48.557  50.424  1.00  0.00     0.169 HD
HETATM   15  O   UNL     1      22.665  47.596  47.393  1.00  0.00    -0.267 OA
BRANCH  13  16
HETATM   16  C   UNL     1      24.045  46.888  49.947  1.00  0.00     0.035 A 
HETATM   17  C   UNL     1      23.810  45.547  49.634  1.00  0.00     0.029 A 
HETATM   18  C   UNL     1      24.739  44.563  49.984  1.00  0.00     0.002 A 
HETATM   19  C   UNL     1      25.910  44.908  50.653  1.00  0.00     0.000 A 
HETATM   20  C   UNL     1      26.157  46.242  50.968  1.00  0.00     0.002 A 
HETATM   21  C   UNL     1      25.231  47.226  50.612  1.00  0.00     0.029 A 
ENDBRANCH  13  16
ENDBRANCH  10  12
BRANCH   1  22
HETATM   22  C   UNL     1      19.454  48.119  47.695  1.00  0.00     0.015 A 
HETATM   23  C   UNL     1      19.277  46.711  47.562  1.00  0.00     0.061 A 
HETATM   24  C   UNL     1      19.677  45.644  48.514  1.00  0.00     0.073 C 
HETATM   25  N   UNL     1      18.650  46.392  46.423  1.00  0.00    -0.178 NA
HETATM   26  N   UNL     1      18.387  47.574  45.848  1.00  0.00    -0.284 N 
HETATM   27  C   UNL     1      17.661  47.622  44.603  1.00  0.00     0.179 C 
HETATM   28  C   UNL     1      18.860  48.639  46.556  1.00  0.00     0.123 A 
ENDBRANCH   1  22
TORSDOF 3
ENDMDL
MODEL 8
REMARK VINA RESULT:      -7.6      3.374      7.139
REMARK  3 active torsions:
REMARK  status: ('A' for Active; 'I' for Inactive)
REMARK    1  A    between atoms: C_7  and  C_8 
REMARK    2  A    between atoms: C_17  and  C_18 
REMARK       I    between atoms: C_18  and  N_19 
REMARK    3  A    between atoms: N_19  and  C_20 
ROOT
HETATM    1  C   UNL     1      25.716  46.456  49.586  1.00  0.00     0.206 C 
HETATM    2  N   UNL     1      26.172  47.814  49.278  1.00  0.00    -0.084 N 
HETATM    3  C   UNL     1      25.331  48.859  49.006  1.00  0.00     0.725 A 
HETATM    4  N   UNL     1      26.037  49.934  48.762  1.00  0.00    -0.054 NA
HETATM    5  C   UNL     1      27.326  49.476  48.854  1.00  0.00     0.275 A 
HETATM    6  N   UNL     1      27.466  48.176  49.140  1.00  0.00    -0.149 NA
HETATM    7  N   UNL     1      24.000  48.648  48.972  1.00  0.00    -0.192 N 
HETATM    8  C   UNL     1      23.440  47.374  49.012  1.00  0.00     0.037 C 
HETATM    9  C   UNL     1      21.986  47.295  48.616  1.00  0.00     0.070 C 
HETATM   10  C   UNL     1      24.221  46.308  49.318  1.00  0.00     0.063 C 
HETATM   11  H   UNL     1      23.413  49.409  48.641  1.00  0.00     0.184 HD
ENDROOT
BRANCH  10  12
HETATM   12  C   UNL     1      23.755  44.895  49.296  1.00  0.00     0.256 C 
HETATM   13  N   UNL     1      23.984  44.257  48.097  1.00  0.00    -0.323 N 
HETATM   14  H   UNL     1      24.395  44.806  47.353  1.00  0.00     0.169 HD
HETATM   15  O   UNL     1      23.205  44.446  50.292  1.00  0.00    -0.267 OA
BRANCH  13  16
HETATM   16  C   UNL     1      23.753  42.898  47.796  1.00  0.00     0.035 A 
HETATM   17  C   UNL     1      22.587  42.417  47.197  1.00  0.00     0.029 A 
HETATM   18  C   UNL     1      22.424  41.049  46.958  1.00  0.00     0.002 A 
HETATM   19  C   UNL     1      23.423  40.148  47.318  1.00  0.00     0.000 A 
HETATM   20  C   UNL     1      24.591  40.616  47.913  1.00  0.00     0.002 A 
HETATM   21  C   UNL     1      24.757  41.984  48.146  1.00  0.00     0.029 A 
ENDBRANCH  13  16
ENDBRANCH  10  12
BRANCH   1  22
HETATM   22  C   UNL     1      26.075  46.136  51.015  1.00  0.00     0.015 A 
HETATM   23  C   UNL     1      26.737  44.967  51.491  1.00  0.00     0.061 A 
HETATM   24  C   UNL     1      27.227  43.806  50.704  1.00  0.00     0.073 C 
HETATM   25  N   UNL     1      26.918  45.001  52.817  1.00  0.00    -0.178 NA
HETATM   26  N   UNL     1      26.422  46.189  53.188  1.00  0.00    -0.284 N 
HETATM   27  C   UNL     1      26.493  46.599  54.569  1.00  0.00     0.179 C 
HETATM   28  C   UNL     1      25.890  46.901  52.155  1.00  0.00     0.123 A 
ENDBRANCH   1  22
TORSDOF 3
ENDMDL
MODEL 9
REMARK VINA RESULT:      -7.5      4.117      8.996
REMARK  3 active torsions:
REMARK  status: ('A' for Active; 'I' for Inactive)
REMARK    1  A    between atoms: C_7  and  C_8 
REMARK    2  A    between atoms: C_17  and  C_18 
REMARK       I    between atoms: C_18  and  N_19 
REMARK    3  A    between atoms: N_19  and  C_20 
ROOT
HETATM    1  C   UNL     1      23.973  46.474  50.101  1.00  0.00     0.206 C 
HETATM    2  N   UNL     1      24.981  45.831  50.947  1.00  0.00    -0.084 N 
HETATM    3  C   UNL     1      25.587  44.642  50.645  1.00  0.00     0.725 A 
HETATM    4  N   UNL     1      26.429  44.326  51.596  1.00  0.00    -0.054 NA
HETATM    5  C   UNL     1      26.266  45.349  52.494  1.00  0.00     0.275 A 
HETATM    6  N   UNL     1      25.369  46.284  52.159  1.00  0.00    -0.149 NA
HETATM    7  N   UNL     1      25.225  43.978  49.529  1.00  0.00    -0.192 N 
HETATM    8  C   UNL     1      24.124  44.345  48.759  1.00  0.00     0.037 C 
HETATM    9  C   UNL     1      23.655  43.312  47.765  1.00  0.00     0.070 C 
HETATM   10  C   UNL     1      23.513  45.535  48.990  1.00  0.00     0.063 C 
HETATM   11  H   UNL     1      25.595  43.040  49.400  1.00  0.00     0.184 HD
ENDROOT
BRANCH  10  12
HETATM   12  C   UNL     1      22.276  45.988  48.299  1.00  0.00     0.256 C 
HETATM   13  N   UNL     1      21.125  45.759  49.020  1.00  0.00    -0.323 N 
HETATM   14  H   UNL     1      21.223  45.280  49.905  1.00  0.00     0.169 HD
HETATM   15  O   UNL     1      22.378  46.479  47.182  1.00  0.00    -0.267 OA
BRANCH  13  16
HETATM   16  C   UNL     1      19.815  46.164  48.686  1.00  0.00     0.035 A 
HETATM   17  C   UNL     1      19.240  47.368  49.098  1.00  0.00     0.029 A 
HETATM   18  C   UNL     1      17.923  47.682  48.749  1.00  0.00     0.002 A 
HETATM   19  C   UNL     1      17.167  46.794  47.988  1.00  0.00     0.000 A 
HETATM   20  C   UNL     1      17.730  45.592  47.569  1.00  0.00     0.002 A 
HETATM   21  C   UNL     1      19.048  45.281  47.913  1.00  0.00     0.029 A 
ENDBRANCH  13  16
ENDBRANCH  10  12
BRANCH   1  22
HETATM   22  C   UNL     1      24.542  47.762  49.562  1.00  0.00     0.015 A 
HETATM   23  C   UNL     1      23.829  48.964  49.285  1.00  0.00     0.061 A 
HETATM   24  C   UNL     1      22.378  49.232  49.464  1.00  0.00     0.073 C 
HETATM   25  N   UNL     1      24.635  49.929  48.828  1.00  0.00    -0.178 NA
HETATM   26  N   UNL     1      25.856  49.377  48.849  1.00  0.00    -0.284 N 
HETATM   27  C   UNL     1      27.005  50.157  48.462  1.00  0.00     0.179 C 
HETATM   28  C   UNL     1      25.857  48.078  49.262  1.00  0.00     0.123 A 
ENDBRANCH   1  22
TORSDOF 3
ENDMDL
MODEL 10
REMARK VINA RESULT:      -7.5      6.710     11.261
REMARK  3 active torsions:
REMARK  status: ('A' for Active; 'I' for Inactive)
REMARK    1  A    between atoms: C_7  and  C_8 
REMARK    2  A    between atoms: C_17  and  C_18 
REMARK       I    between atoms: C_18  and  N_19 
REMARK    3  A    between atoms: N_19  and  C_20 
ROOT
HETATM    1  C   UNL     1      21.184  48.506  47.726  1.00  0.00     0.206 C 
HETATM    2  N   UNL     1      22.248  49.429  48.132  1.00  0.00    -0.084 N 
HETATM    3  C   UNL     1      22.263  50.101  49.323  1.00  0.00     0.725 A 
HETATM    4  N   UNL     1      23.334  50.851  49.388  1.00  0.00    -0.054 NA
HETATM    5  C   UNL     1      23.929  50.633  48.172  1.00  0.00     0.275 A 
HETATM    6  N   UNL     1      23.290  49.790  47.351  1.00  0.00    -0.149 NA
HETATM    7  N   UNL     1      21.230  49.960  50.178  1.00  0.00    -0.192 N 
HETATM    8  C   UNL     1      20.050  49.309  49.829  1.00  0.00     0.037 C 
HETATM    9  C   UNL     1      18.884  49.541  50.758  1.00  0.00     0.070 C 
HETATM   10  C   UNL     1      19.995  48.591  48.678  1.00  0.00     0.063 C 
HETATM   11  H   UNL     1      21.207  50.569  50.991  1.00  0.00     0.184 HD
ENDROOT
BRANCH  10  12
HETATM   12  C   UNL     1      18.765  47.937  48.157  1.00  0.00     0.256 C 
HETATM   13  N   UNL     1      18.050  48.722  47.281  1.00  0.00    -0.323 N 
HETATM   14  H   UNL     1      18.395  49.658  47.113  1.00  0.00     0.169 HD
HETATM   15  O   UNL     1      18.487  46.814  48.557  1.00  0.00    -0.267 OA
BRANCH  13  16
HETATM   16  C   UNL     1      16.905  48.354  46.543  1.00  0.00     0.035 A 
HETATM   17  C   UNL     1      16.943  47.615  45.359  1.00  0.00     0.029 A 
HETATM   18  C   UNL     1      15.763  47.314  44.671  1.00  0.00     0.002 A 
HETATM   19  C   UNL     1      14.534  47.752  45.159  1.00  0.00     0.000 A 
HETATM   20  C   UNL     1      14.484  48.488  46.340  1.00  0.00     0.002 A 
HETATM   21  C   UNL     1      15.662  48.782  47.031  1.00  0.00     0.029 A 
ENDBRANCH  13  16
ENDBRANCH  10  12
BRANCH   1  22
HETATM   22  C   UNL     1      21.754  47.113  47.646  1.00  0.00     0.015 A 
HETATM   23  C   UNL     1      21.505  46.142  46.633  1.00  0.00     0.061 A 
HETATM   24  C   UNL     1      20.642  46.272  45.431  1.00  0.00     0.073 C 
HETATM   25  N   UNL     1      22.180  45.007  46.853  1.00  0.00    -0.178 NA
HETATM   26  N   UNL     1      22.888  45.253  47.964  1.00  0.00    -0.284 N 
HETATM   27  C   UNL     1      23.788  44.251  48.480  1.00  0.00     0.179 C 
HETATM   28  C   UNL     1      22.659  46.489  48.490  1.00  0.00     0.123 A 
ENDBRANCH   1  22
TORSDOF 3
ENDMDL
