MODEL 1
REMARK VINA RESULT:      -8.2      0.000      0.000
REMARK  6 active torsions:
REMARK  status: ('A' for Active; 'I' for Inactive)
REMARK    1  A    between atoms: O_2  and  C_3 
REMARK    2  A    between atoms: C_6  and  C_7 
REMARK    3  A    between atoms: C_7  and  N_8 
REMARK    4  A    between atoms: N_8  and  C_9 
REMARK    5  A    between atoms: C_15  and  C_16 
REMARK       I    between atoms: C_16  and  N_17 
REMARK    6  A    between atoms: N_17  and  C_18 
ROOT
HETATM    1  C   UNL     1      27.702  40.654  51.097  1.00  0.00     0.096 A 
HETATM    2  N   UNL     1      28.613  39.707  50.810  1.00  0.00    -0.356 N 
HETATM    3  H   UNL     1      29.086  39.272  51.601  1.00  0.00     0.166 HD
HETATM    4  C   UNL     1      28.968  39.361  49.564  1.00  0.00     0.089 A 
HETATM    5  C   UNL     1      28.402  40.013  48.478  1.00  0.00     0.018 A 
HETATM    6  C   UNL     1      27.502  41.051  48.704  1.00  0.00     0.022 A 
HETATM    7  C   UNL     1      27.171  41.406  50.017  1.00  0.00     0.070 A 
ENDROOT
BRANCH   1   8
HETATM    8  N   UNL     1      27.445  40.932  52.441  1.00  0.00    -0.274 NA
HETATM    9  H   UNL     1      26.835  40.185  52.818  1.00  0.00     0.129 HD
BRANCH   8  10
HETATM   10  C   UNL     1      28.591  41.065  53.347  1.00  0.00     0.132 C 
BRANCH  10  11
HETATM   11  C   UNL     1      28.635  42.449  53.940  1.00  0.00    -0.045 A 
HETATM   12  C   UNL     1      29.768  42.876  54.651  1.00  0.00     0.011 A 
HETATM   13  C   UNL     1      29.849  44.175  55.159  1.00  0.00     0.037 A 
HETATM   14  C   UNL     1      28.800  45.069  54.961  1.00  0.00     0.068 A 
HETATM   15  C   UNL     1      27.662  44.645  54.269  1.00  0.00     0.037 A 
HETATM   16  C   UNL     1      27.581  43.351  53.749  1.00  0.00     0.011 A 
BRANCH  14  17
HETATM   17  O   UNL     1      28.763  46.364  55.396  1.00  0.00    -0.356 OA
HETATM   18  C   UNL     1      27.774  47.202  54.806  1.00  0.00     0.210 C 
ENDBRANCH  14  17
ENDBRANCH  10  11
ENDBRANCH   8  10
ENDBRANCH   1   8
BRANCH   7  19
HETATM   19  C   UNL     1      26.239  42.530  50.318  1.00  0.00     0.259 C 
HETATM   20  N   UNL     1      26.574  43.770  49.818  1.00  0.00    -0.320 N 
HETATM   21  H   UNL     1      27.393  43.873  49.227  1.00  0.00     0.169 HD
HETATM   22  O   UNL     1      25.265  42.266  51.016  1.00  0.00    -0.267 OA
BRANCH  20  23
HETATM   23  C   UNL     1      25.918  45.005  50.079  1.00  0.00     0.075 A 
HETATM   24  C   UNL     1      24.757  45.334  49.367  1.00  0.00     0.152 A 
HETATM   25 CL   UNL     1      24.085  44.247  48.205  1.00  0.00    -0.060 Cl
HETATM   26  N   UNL     1      24.058  46.481  49.493  1.00  0.00    -0.247 NA
HETATM   27  C   UNL     1      24.536  47.373  50.383  1.00  0.00     0.118 A 
HETATM   28  C   UNL     1      25.674  47.157  51.145  1.00  0.00     0.022 A 
HETATM   29  C   UNL     1      26.370  45.956  50.992  1.00  0.00     0.034 A 
ENDBRANCH  20  23
ENDBRANCH   7  19
TORSDOF 6
ENDMDL
MODEL 2
REMARK VINA RESULT:      -8.1      1.767      2.296
REMARK  6 active torsions:
REMARK  status: ('A' for Active; 'I' for Inactive)
REMARK    1  A    between atoms: O_2  and  C_3 
REMARK    2  A    between atoms: C_6  and  C_7 
REMARK    3  A    between atoms: C_7  and  N_8 
REMARK    4  A    between atoms: N_8  and  C_9 
REMARK    5  A    between atoms: C_15  and  C_16 
REMARK       I    between atoms: C_16  and  N_17 
REMARK    6  A    between atoms: N_17  and  C_18 
ROOT
HETATM    1  C   UNL     1      28.778  40.133  50.946  1.00  0.00     0.096 A 
HETATM    2  N   UNL     1      29.523  39.124  51.433  1.00  0.00    -0.356 N 
HETATM    3  H   UNL     1      29.951  39.271  52.346  1.00  0.00     0.166 HD
HETATM    4  C   UNL     1      29.775  37.990  50.764  1.00  0.00     0.089 A 
HETATM    5  C   UNL     1      29.277  37.817  49.482  1.00  0.00     0.018 A 
HETATM    6  C   UNL     1      28.555  38.851  48.890  1.00  0.00     0.022 A 
HETATM    7  C   UNL     1      28.330  40.034  49.603  1.00  0.00     0.070 A 
ENDROOT
BRANCH   1   8
HETATM    8  N   UNL     1      28.615  41.271  51.739  1.00  0.00    -0.274 NA
HETATM    9  H   UNL     1      27.740  41.746  51.454  1.00  0.00     0.129 HD
BRANCH   8  10
HETATM   10  C   UNL     1      28.566  41.094  53.194  1.00  0.00     0.132 C 
BRANCH  10  11
HETATM   11  C   UNL     1      28.705  42.422  53.891  1.00  0.00    -0.045 A 
HETATM   12  C   UNL     1      29.900  42.753  54.549  1.00  0.00     0.011 A 
HETATM   13  C   UNL     1      30.067  44.002  55.152  1.00  0.00     0.037 A 
HETATM   14  C   UNL     1      29.041  44.943  55.102  1.00  0.00     0.068 A 
HETATM   15  C   UNL     1      27.842  44.615  54.464  1.00  0.00     0.037 A 
HETATM   16  C   UNL     1      27.675  43.371  53.849  1.00  0.00     0.011 A 
BRANCH  14  17
HETATM   17  O   UNL     1      29.085  46.198  55.641  1.00  0.00    -0.356 OA
HETATM   18  C   UNL     1      28.039  47.087  55.259  1.00  0.00     0.210 C 
ENDBRANCH  14  17
ENDBRANCH  10  11
ENDBRANCH   8  10
ENDBRANCH   1   8
BRANCH   7  19
HETATM   19  C   UNL     1      27.592  41.184  49.008  1.00  0.00     0.259 C 
HETATM   20  N   UNL     1      26.556  41.711  49.747  1.00  0.00    -0.320 N 
HETATM   21  H   UNL     1      26.363  41.352  50.676  1.00  0.00     0.169 HD
HETATM   22  O   UNL     1      27.946  41.545  47.889  1.00  0.00    -0.267 OA
BRANCH  20  23
HETATM   23  C   UNL     1      25.634  42.713  49.335  1.00  0.00     0.075 A 
HETATM   24  C   UNL     1      25.918  44.061  49.595  1.00  0.00     0.152 A 
HETATM   25 CL   UNL     1      27.388  44.530  50.369  1.00  0.00    -0.060 Cl
HETATM   26  N   UNL     1      25.118  45.105  49.289  1.00  0.00    -0.247 NA
HETATM   27  C   UNL     1      23.951  44.802  48.685  1.00  0.00     0.118 A 
HETATM   28  C   UNL     1      23.564  43.506  48.378  1.00  0.00     0.022 A 
HETATM   29  C   UNL     1      24.418  42.451  48.705  1.00  0.00     0.034 A 
ENDBRANCH  20  23
ENDBRANCH   7  19
TORSDOF 6
ENDMDL
MODEL 3
REMARK VINA RESULT:      -8.1      2.011      2.957
REMARK  6 active torsions:
REMARK  status: ('A' for Active; 'I' for Inactive)
REMARK    1  A    between atoms: O_2  and  C_3 
REMARK    2  A    between atoms: C_6  and  C_7 
REMARK    3  A    between atoms: C_7  and  N_8 
REMARK    4  A    between atoms: N_8  and  C_9 
REMARK    5  A    between atoms: C_15  and  C_16 
REMARK       I    between atoms: C_16  and  N_17 
REMARK    6  A    between atoms: N_17  and  C_18 
ROOT
HETATM    1  C   UNL     1      26.051  42.520  51.711  1.00  0.00     0.096 A 
HETATM    2  N   UNL     1      26.797  41.404  51.625  1.00  0.00    -0.356 N 
HETATM    3  H   UNL     1      27.528  41.286  52.325  1.00  0.00     0.166 HD
HETATM    4  C   UNL     1      26.672  40.493  50.649  1.00  0.00     0.089 A 
HETATM    5  C   UNL     1      25.747  40.689  49.634  1.00  0.00     0.018 A 
HETATM    6  C   UNL     1      24.989  41.857  49.625  1.00  0.00     0.022 A 
HETATM    7  C   UNL     1      25.160  42.801  50.644  1.00  0.00     0.070 A 
ENDROOT
BRANCH   1   8
HETATM    8  N   UNL     1      26.303  43.398  52.767  1.00  0.00    -0.274 NA
HETATM    9  H   UNL     1      26.556  42.839  53.602  1.00  0.00     0.129 HD
BRANCH   8  10
HETATM   10  C   UNL     1      27.344  44.414  52.585  1.00  0.00     0.132 C 
BRANCH  10  11
HETATM   11  C   UNL     1      28.325  44.374  53.728  1.00  0.00    -0.045 A 
HETATM   12  C   UNL     1      29.252  43.324  53.827  1.00  0.00     0.011 A 
HETATM   13  C   UNL     1      30.205  43.301  54.848  1.00  0.00     0.037 A 
HETATM   14  C   UNL     1      30.248  44.330  55.785  1.00  0.00     0.068 A 
HETATM   15  C   UNL     1      29.317  45.369  55.704  1.00  0.00     0.037 A 
HETATM   16  C   UNL     1      28.370  45.403  54.677  1.00  0.00     0.011 A 
BRANCH  14  17
HETATM   17  O   UNL     1      31.135  44.428  56.820  1.00  0.00    -0.356 OA
HETATM   18  C   UNL     1      31.837  43.238  57.166  1.00  0.00     0.210 C 
ENDBRANCH  14  17
ENDBRANCH  10  11
ENDBRANCH   8  10
ENDBRANCH   1   8
BRANCH   7  19
HETATM   19  C   UNL     1      24.398  44.083  50.665  1.00  0.00     0.259 C 
HETATM   20  N   UNL     1      24.509  44.893  49.556  1.00  0.00    -0.320 N 
HETATM   21  H   UNL     1      25.044  44.581  48.752  1.00  0.00     0.169 HD
HETATM   22  O   UNL     1      23.762  44.328  51.685  1.00  0.00    -0.267 OA
BRANCH  20  23
HETATM   23  C   UNL     1      23.988  46.207  49.400  1.00  0.00     0.075 A 
HETATM   24  C   UNL     1      24.692  47.297  49.931  1.00  0.00     0.152 A 
HETATM   25 CL   UNL     1      26.204  47.075  50.736  1.00  0.00    -0.060 Cl
HETATM   26  N   UNL     1      24.296  48.586  49.884  1.00  0.00    -0.247 NA
HETATM   27  C   UNL     1      23.119  48.823  49.271  1.00  0.00     0.118 A 
HETATM   28  C   UNL     1      22.336  47.827  48.708  1.00  0.00     0.022 A 
HETATM   29  C   UNL     1      22.779  46.504  48.772  1.00  0.00     0.034 A 
ENDBRANCH  20  23
ENDBRANCH   7  19
TORSDOF 6
ENDMDL
MODEL 4
REMARK VINA RESULT:      -8.0      2.649      5.205
REMARK  6 active torsions:
REMARK  status: ('A' for Active; 'I' for Inactive)
REMARK    1  A    between atoms: O_2  and  C_3 
REMARK    2  A    between atoms: C_6  and  C_7 
REMARK    3  A    between atoms: C_7  and  N_8 
REMARK    4  A    between atoms: N_8  and  C_9 
REMARK    5  A    between atoms: C_15  and  C_16 
REMARK       I    between atoms: C_16  and  N_17 
REMARK    6  A    between atoms: N_17  and  C_18 
ROOT
HETATM    1  C   UNL     1      26.490  41.470  51.073  1.00  0.00     0.096 A 
HETATM    2  N   UNL     1      26.215  40.781  49.950  1.00  0.00    -0.356 N 
HETATM    3  H   UNL     1      25.278  40.888  49.565  1.00  0.00     0.166 HD
HETATM    4  C   UNL     1      27.072  39.932  49.365  1.00  0.00     0.089 A 
HETATM    5  C   UNL     1      28.316  39.703  49.934  1.00  0.00     0.018 A 
HETATM    6  C   UNL     1      28.639  40.331  51.134  1.00  0.00     0.022 A 
HETATM    7  C   UNL     1      27.714  41.193  51.734  1.00  0.00     0.070 A 
ENDROOT
BRANCH   1   8
HETATM    8  N   UNL     1      25.495  42.303  51.590  1.00  0.00    -0.274 NA
HETATM    9  H   UNL     1      25.936  42.962  52.258  1.00  0.00     0.129 HD
BRANCH   8  10
HETATM   10  C   UNL     1      24.702  43.097  50.646  1.00  0.00     0.132 C 
BRANCH  10  11
HETATM   11  C   UNL     1      25.245  44.499  50.552  1.00  0.00    -0.045 A 
HETATM   12  C   UNL     1      26.383  44.764  49.773  1.00  0.00     0.011 A 
HETATM   13  C   UNL     1      26.867  46.067  49.629  1.00  0.00     0.037 A 
HETATM   14  C   UNL     1      26.218  47.126  50.258  1.00  0.00     0.068 A 
HETATM   15  C   UNL     1      25.095  46.868  51.049  1.00  0.00     0.037 A 
HETATM   16  C   UNL     1      24.600  45.568  51.187  1.00  0.00     0.011 A 
BRANCH  14  17
HETATM   17  O   UNL     1      26.584  48.441  50.186  1.00  0.00    -0.356 OA
HETATM   18  C   UNL     1      27.577  48.768  49.219  1.00  0.00     0.210 C 
ENDBRANCH  14  17
ENDBRANCH  10  11
ENDBRANCH   8  10
ENDBRANCH   1   8
BRANCH   7  19
HETATM   19  C   UNL     1      27.994  41.867  53.034  1.00  0.00     0.259 C 
HETATM   20  N   UNL     1      28.849  42.947  53.006  1.00  0.00    -0.320 N 
HETATM   21  H   UNL     1      29.211  43.283  52.120  1.00  0.00     0.169 HD
HETATM   22  O   UNL     1      27.467  41.381  54.030  1.00  0.00    -0.267 OA
BRANCH  20  23
HETATM   23  C   UNL     1      29.364  43.660  54.124  1.00  0.00     0.075 A 
HETATM   24  C   UNL     1      28.733  44.841  54.540  1.00  0.00     0.152 A 
HETATM   25 CL   UNL     1      27.316  45.423  53.742  1.00  0.00    -0.060 Cl
HETATM   26  N   UNL     1      29.134  45.629  55.559  1.00  0.00    -0.247 NA
HETATM   27  C   UNL     1      30.240  45.229  56.219  1.00  0.00     0.118 A 
HETATM   28  C   UNL     1      30.946  44.079  55.899  1.00  0.00     0.022 A 
HETATM   29  C   UNL     1      30.499  43.285  54.841  1.00  0.00     0.034 A 
ENDBRANCH  20  23
ENDBRANCH   7  19
TORSDOF 6
ENDMDL
MODEL 5
REMARK VINA RESULT:      -7.9      4.723      9.156
REMARK  6 active torsions:
REMARK  status: ('A' for Active; 'I' for Inactive)
REMARK    1  A    between atoms: O_2  and  C_3 
REMARK    2  A    between atoms: C_6  and  C_7 
REMARK    3  A    between atoms: C_7  and  N_8 
REMARK    4  A    between atoms: N_8  and  C_9 
REMARK    5  A    between atoms: C_15  and  C_16 
REMARK       I    between atoms: C_16  and  N_17 
REMARK    6  A    between atoms: N_17  and  C_18 
ROOT
HETATM    1  C   UNL     1      24.118  48.673  49.264  1.00  0.00     0.096 A 
HETATM    2  N   UNL     1      24.261  49.661  48.361  1.00  0.00    -0.356 N 
HETATM    3  H   UNL     1      23.405  50.035  47.954  1.00  0.00     0.166 HD
HETATM    4  C   UNL     1      25.446  50.121  47.936  1.00  0.00     0.089 A 
HETATM    5  C   UNL     1      26.619  49.554  48.411  1.00  0.00     0.018 A 
HETATM    6  C   UNL     1      26.544  48.480  49.295  1.00  0.00     0.022 A 
HETATM    7  C   UNL     1      25.291  48.006  49.702  1.00  0.00     0.070 A 
ENDROOT
BRANCH   1   8
HETATM    8  N   UNL     1      22.823  48.273  49.600  1.00  0.00    -0.274 NA
HETATM    9  H   UNL     1      22.510  48.832  50.414  1.00  0.00     0.129 HD
BRANCH   8  10
HETATM   10  C   UNL     1      21.783  48.374  48.571  1.00  0.00     0.132 C 
BRANCH  10  11
HETATM   11  C   UNL     1      20.779  49.435  48.940  1.00  0.00    -0.045 A 
HETATM   12  C   UNL     1      19.799  49.173  49.910  1.00  0.00     0.011 A 
HETATM   13  C   UNL     1      18.895  50.164  50.305  1.00  0.00     0.037 A 
HETATM   14  C   UNL     1      18.962  51.434  49.738  1.00  0.00     0.068 A 
HETATM   15  C   UNL     1      19.924  51.697  48.759  1.00  0.00     0.037 A 
HETATM   16  C   UNL     1      20.837  50.713  48.369  1.00  0.00     0.011 A 
BRANCH  14  17
HETATM   17  O   UNL     1      18.147  52.487  50.045  1.00  0.00    -0.356 OA
HETATM   18  C   UNL     1      16.761  52.316  49.767  1.00  0.00     0.210 C 
ENDBRANCH  14  17
ENDBRANCH  10  11
ENDBRANCH   8  10
ENDBRANCH   1   8
BRANCH   7  19
HETATM   19  C   UNL     1      25.152  46.840  50.620  1.00  0.00     0.259 C 
HETATM   20  N   UNL     1      26.027  46.774  51.682  1.00  0.00    -0.320 N 
HETATM   21  H   UNL     1      26.688  47.527  51.841  1.00  0.00     0.169 HD
HETATM   22  O   UNL     1      24.289  46.015  50.335  1.00  0.00    -0.267 OA
BRANCH  20  23
HETATM   23  C   UNL     1      26.172  45.702  52.607  1.00  0.00     0.075 A 
HETATM   24  C   UNL     1      26.881  44.554  52.228  1.00  0.00     0.152 A 
HETATM   25 CL   UNL     1      27.617  44.434  50.670  1.00  0.00    -0.060 Cl
HETATM   26  N   UNL     1      27.064  43.457  52.992  1.00  0.00    -0.247 NA
HETATM   27  C   UNL     1      26.508  43.488  54.220  1.00  0.00     0.118 A 
HETATM   28  C   UNL     1      25.787  44.569  54.704  1.00  0.00     0.022 A 
HETATM   29  C   UNL     1      25.620  45.690  53.887  1.00  0.00     0.034 A 
ENDBRANCH  20  23
ENDBRANCH   7  19
TORSDOF 6
ENDMDL
MODEL 6
REMARK VINA RESULT:      -7.7      2.876      6.100
REMARK  6 active torsions:
REMARK  status: ('A' for Active; 'I' for Inactive)
REMARK    1  A    between atoms: O_2  and  C_3 
REMARK    2  A    between atoms: C_6  and  C_7 
REMARK    3  A    between atoms: C_7  and  N_8 
REMARK    4  A    between atoms: N_8  and  C_9 
REMARK    5  A    between atoms: C_15  and  C_16 
REMARK       I    between atoms: C_16  and  N_17 
REMARK    6  A    between atoms: N_17  and  C_18 
ROOT
HETATM    1  C   UNL     1      27.768  42.996  53.692  1.00  0.00     0.096 A 
HETATM    2  N   UNL     1      28.234  43.627  54.785  1.00  0.00    -0.356 N 
HETATM    3  H   UNL     1      27.544  44.085  55.379  1.00  0.00     0.166 HD
HETATM    4  C   UNL     1      29.535  43.735  55.090  1.00  0.00     0.089 A 
HETATM    5  C   UNL     1      30.491  43.199  54.240  1.00  0.00     0.018 A 
HETATM    6  C   UNL     1      30.081  42.592  53.055  1.00  0.00     0.022 A 
HETATM    7  C   UNL     1      28.717  42.517  52.753  1.00  0.00     0.070 A 
ENDROOT
BRANCH   1   8
HETATM    8  N   UNL     1      26.387  42.980  53.483  1.00  0.00    -0.274 NA
HETATM    9  H   UNL     1      25.995  42.149  53.960  1.00  0.00     0.129 HD
BRANCH   8  10
HETATM   10  C   UNL     1      25.612  44.145  53.918  1.00  0.00     0.132 C 
BRANCH  10  11
HETATM   11  C   UNL     1      25.540  45.171  52.817  1.00  0.00    -0.045 A 
HETATM   12  C   UNL     1      24.701  44.962  51.711  1.00  0.00     0.011 A 
HETATM   13  C   UNL     1      24.580  45.928  50.708  1.00  0.00     0.037 A 
HETATM   14  C   UNL     1      25.293  47.120  50.799  1.00  0.00     0.068 A 
HETATM   15  C   UNL     1      26.144  47.328  51.888  1.00  0.00     0.037 A 
HETATM   16  C   UNL     1      26.259  46.370  52.899  1.00  0.00     0.011 A 
BRANCH  14  17
HETATM   17  O   UNL     1      25.252  48.144  49.894  1.00  0.00    -0.356 OA
HETATM   18  C   UNL     1      26.503  48.564  49.357  1.00  0.00     0.210 C 
ENDBRANCH  14  17
ENDBRANCH  10  11
ENDBRANCH   8  10
ENDBRANCH   1   8
BRANCH   7  19
HETATM   19  C   UNL     1      28.224  41.908  51.484  1.00  0.00     0.259 C 
HETATM   20  N   UNL     1      28.654  40.630  51.197  1.00  0.00    -0.320 N 
HETATM   21  H   UNL     1      29.231  40.129  51.864  1.00  0.00     0.169 HD
HETATM   22  O   UNL     1      27.503  42.609  50.781  1.00  0.00    -0.267 OA
BRANCH  20  23
HETATM   23  C   UNL     1      28.426  39.900  49.998  1.00  0.00     0.075 A 
HETATM   24  C   UNL     1      29.084  38.678  49.799  1.00  0.00     0.152 A 
HETATM   25 CL   UNL     1      30.135  38.024  51.003  1.00  0.00    -0.060 Cl
HETATM   26  N   UNL     1      28.984  37.903  48.698  1.00  0.00    -0.247 NA
HETATM   27  C   UNL     1      28.180  38.364  47.719  1.00  0.00     0.118 A 
HETATM   28  C   UNL     1      27.479  39.557  47.804  1.00  0.00     0.022 A 
HETATM   29  C   UNL     1      27.602  40.331  48.960  1.00  0.00     0.034 A 
ENDBRANCH  20  23
ENDBRANCH   7  19
TORSDOF 6
ENDMDL
MODEL 7
REMARK VINA RESULT:      -7.4      1.892      5.313
REMARK  6 active torsions:
REMARK  status: ('A' for Active; 'I' for Inactive)
REMARK    1  A    between atoms: O_2  and  C_3 
REMARK    2  A    between atoms: C_6  and  C_7 
REMARK    3  A    between atoms: C_7  and  N_8 
REMARK    4  A    between atoms: N_8  and  C_9 
REMARK    5  A    between atoms: C_15  and  C_16 
REMARK       I    between atoms: C_16  and  N_17 
REMARK    6  A    between atoms: N_17  and  C_18 
ROOT
HETATM    1  C   UNL     1      25.985  45.286  51.313  1.00  0.00     0.096 A 
HETATM    2  N   UNL     1      25.570  46.557  51.468  1.00  0.00    -0.356 N 
HETATM    3  H   UNL     1      25.919  47.056  52.285  1.00  0.00     0.166 HD
HETATM    4  C   UNL     1      24.693  47.163  50.654  1.00  0.00     0.089 A 
HETATM    5  C   UNL     1      24.138  46.464  49.593  1.00  0.00     0.018 A 
HETATM    6  C   UNL     1      24.470  45.124  49.416  1.00  0.00     0.022 A 
HETATM    7  C   UNL     1      25.369  44.511  50.297  1.00  0.00     0.070 A 
ENDROOT
BRANCH   1   8
HETATM    8  N   UNL     1      26.884  44.771  52.249  1.00  0.00    -0.274 NA
HETATM    9  H   UNL     1      27.834  44.800  51.839  1.00  0.00     0.129 HD
BRANCH   8  10
HETATM   10  C   UNL     1      26.951  45.415  53.565  1.00  0.00     0.132 C 
BRANCH  10  11
HETATM   11  C   UNL     1      28.157  44.929  54.327  1.00  0.00    -0.045 A 
HETATM   12  C   UNL     1      28.829  43.766  53.918  1.00  0.00     0.011 A 
HETATM   13  C   UNL     1      29.982  43.332  54.579  1.00  0.00     0.037 A 
HETATM   14  C   UNL     1      30.483  44.058  55.656  1.00  0.00     0.068 A 
HETATM   15  C   UNL     1      29.809  45.207  56.080  1.00  0.00     0.037 A 
HETATM   16  C   UNL     1      28.663  45.651  55.415  1.00  0.00     0.011 A 
BRANCH  14  17
HETATM   17  O   UNL     1      31.602  43.746  56.375  1.00  0.00    -0.356 OA
HETATM   18  C   UNL     1      31.574  44.070  57.762  1.00  0.00     0.210 C 
ENDBRANCH  14  17
ENDBRANCH  10  11
ENDBRANCH   8  10
ENDBRANCH   1   8
BRANCH   7  19
HETATM   19  C   UNL     1      25.736  43.072  50.173  1.00  0.00     0.259 C 
HETATM   20  N   UNL     1      27.016  42.787  49.750  1.00  0.00    -0.320 N 
HETATM   21  H   UNL     1      27.676  43.541  49.593  1.00  0.00     0.169 HD
HETATM   22  O   UNL     1      24.854  42.256  50.425  1.00  0.00    -0.267 OA
BRANCH  20  23
HETATM   23  C   UNL     1      27.548  41.506  49.435  1.00  0.00     0.075 A 
HETATM   24  C   UNL     1      27.968  40.659  50.470  1.00  0.00     0.152 A 
HETATM   25 CL   UNL     1      27.812  41.127  52.125  1.00  0.00    -0.060 Cl
HETATM   26  N   UNL     1      28.520  39.438  50.310  1.00  0.00    -0.247 NA
HETATM   27  C   UNL     1      28.672  39.017  49.038  1.00  0.00     0.118 A 
HETATM   28  C   UNL     1      28.293  39.767  47.935  1.00  0.00     0.022 A 
HETATM   29  C   UNL     1      27.721  41.026  48.138  1.00  0.00     0.034 A 
ENDBRANCH  20  23
ENDBRANCH   7  19
TORSDOF 6
ENDMDL
MODEL 8
REMARK VINA RESULT:      -7.4     13.021     14.796
REMARK  6 active torsions:
REMARK  status: ('A' for Active; 'I' for Inactive)
REMARK    1  A    between atoms: O_2  and  C_3 
REMARK    2  A    between atoms: C_6  and  C_7 
REMARK    3  A    between atoms: C_7  and  N_8 
REMARK    4  A    between atoms: N_8  and  C_9 
REMARK    5  A    between atoms: C_15  and  C_16 
REMARK       I    between atoms: C_16  and  N_17 
REMARK    6  A    between atoms: N_17  and  C_18 
ROOT
HETATM    1  C   UNL     1      34.568  50.283  41.683  1.00  0.00     0.096 A 
HETATM    2  N   UNL     1      35.641  50.111  42.476  1.00  0.00    -0.356 N 
HETATM    3  H   UNL     1      35.503  49.556  43.320  1.00  0.00     0.166 HD
HETATM    4  C   UNL     1      36.837  50.673  42.250  1.00  0.00     0.089 A 
HETATM    5  C   UNL     1      37.013  51.509  41.157  1.00  0.00     0.018 A 
HETATM    6  C   UNL     1      35.925  51.785  40.333  1.00  0.00     0.022 A 
HETATM    7  C   UNL     1      34.683  51.203  40.609  1.00  0.00     0.070 A 
ENDROOT
BRANCH   1   8
HETATM    8  N   UNL     1      33.374  49.658  42.050  1.00  0.00    -0.274 NA
HETATM    9  H   UNL     1      32.601  50.336  41.930  1.00  0.00     0.129 HD
BRANCH   8  10
HETATM   10  C   UNL     1      32.996  48.429  41.346  1.00  0.00     0.132 C 
BRANCH  10  11
HETATM   11  C   UNL     1      31.546  48.480  40.940  1.00  0.00    -0.045 A 
HETATM   12  C   UNL     1      30.559  48.800  41.886  1.00  0.00     0.011 A 
HETATM   13  C   UNL     1      29.216  48.907  41.515  1.00  0.00     0.037 A 
HETATM   14  C   UNL     1      28.840  48.700  40.190  1.00  0.00     0.068 A 
HETATM   15  C   UNL     1      29.814  48.365  39.246  1.00  0.00     0.037 A 
HETATM   16  C   UNL     1      31.160  48.268  39.611  1.00  0.00     0.011 A 
BRANCH  14  17
HETATM   17  O   UNL     1      27.567  48.787  39.701  1.00  0.00    -0.356 OA
HETATM   18  C   UNL     1      27.413  48.584  38.299  1.00  0.00     0.210 C 
ENDBRANCH  14  17
ENDBRANCH  10  11
ENDBRANCH   8  10
ENDBRANCH   1   8
BRANCH   7  19
HETATM   19  C   UNL     1      33.478  51.490  39.780  1.00  0.00     0.259 C 
HETATM   20  N   UNL     1      32.324  51.832  40.452  1.00  0.00    -0.320 N 
HETATM   21  H   UNL     1      32.338  51.933  41.462  1.00  0.00     0.169 HD
HETATM   22  O   UNL     1      33.602  51.364  38.566  1.00  0.00    -0.267 OA
BRANCH  20  23
HETATM   23  C   UNL     1      31.030  52.019  39.891  1.00  0.00     0.075 A 
HETATM   24  C   UNL     1      29.964  52.388  40.723  1.00  0.00     0.152 A 
HETATM   25 CL   UNL     1      30.202  52.657  42.412  1.00  0.00    -0.060 Cl
HETATM   26  N   UNL     1      28.685  52.565  40.329  1.00  0.00    -0.247 NA
HETATM   27  C   UNL     1      28.435  52.365  39.019  1.00  0.00     0.118 A 
HETATM   28  C   UNL     1      29.409  52.000  38.102  1.00  0.00     0.022 A 
HETATM   29  C   UNL     1      30.723  51.829  38.545  1.00  0.00     0.034 A 
ENDBRANCH  20  23
ENDBRANCH   7  19
TORSDOF 6
ENDMDL
MODEL 9
REMARK VINA RESULT:      -7.4     12.140     14.604
REMARK  6 active torsions:
REMARK  status: ('A' for Active; 'I' for Inactive)
REMARK    1  A    between atoms: O_2  and  C_3 
REMARK    2  A    between atoms: C_6  and  C_7 
REMARK    3  A    between atoms: C_7  and  N_8 
REMARK    4  A    between atoms: N_8  and  C_9 
REMARK    5  A    between atoms: C_15  and  C_16 
REMARK       I    between atoms: C_16  and  N_17 
REMARK    6  A    between atoms: N_17  and  C_18 
ROOT
HETATM    1  C   UNL     1      26.529  49.828  38.501  1.00  0.00     0.096 A 
HETATM    2  N   UNL     1      25.397  50.360  38.004  1.00  0.00    -0.356 N 
HETATM    3  H   UNL     1      25.503  51.160  37.381  1.00  0.00     0.166 HD
HETATM    4  C   UNL     1      24.167  49.941  38.332  1.00  0.00     0.089 A 
HETATM    5  C   UNL     1      24.007  48.917  39.253  1.00  0.00     0.018 A 
HETATM    6  C   UNL     1      25.134  48.367  39.857  1.00  0.00     0.022 A 
HETATM    7  C   UNL     1      26.405  48.843  39.514  1.00  0.00     0.070 A 
ENDROOT
BRANCH   1   8
HETATM    8  N   UNL     1      27.746  50.377  38.093  1.00  0.00    -0.274 NA
HETATM    9  H   UNL     1      27.868  50.188  37.082  1.00  0.00     0.129 HD
BRANCH   8  10
HETATM   10  C   UNL     1      27.957  51.813  38.302  1.00  0.00     0.132 C 
BRANCH  10  11
HETATM   11  C   UNL     1      29.299  52.061  38.940  1.00  0.00    -0.045 A 
HETATM   12  C   UNL     1      29.385  52.752  40.159  1.00  0.00     0.011 A 
HETATM   13  C   UNL     1      30.615  52.941  40.794  1.00  0.00     0.037 A 
HETATM   14  C   UNL     1      31.780  52.438  40.220  1.00  0.00     0.068 A 
HETATM   15  C   UNL     1      31.705  51.764  38.997  1.00  0.00     0.037 A 
HETATM   16  C   UNL     1      30.475  51.563  38.366  1.00  0.00     0.011 A 
BRANCH  14  17
HETATM   17  O   UNL     1      33.037  52.546  40.744  1.00  0.00    -0.356 OA
HETATM   18  C   UNL     1      33.953  51.507  40.411  1.00  0.00     0.210 C 
ENDBRANCH  14  17
ENDBRANCH  10  11
ENDBRANCH   8  10
ENDBRANCH   1   8
BRANCH   7  19
HETATM   19  C   UNL     1      27.643  48.313  40.153  1.00  0.00     0.259 C 
HETATM   20  N   UNL     1      28.599  49.234  40.520  1.00  0.00    -0.320 N 
HETATM   21  H   UNL     1      28.419  50.226  40.402  1.00  0.00     0.169 HD
HETATM   22  O   UNL     1      27.724  47.094  40.269  1.00  0.00    -0.267 OA
BRANCH  20  23
HETATM   23  C   UNL     1      29.903  48.962  41.021  1.00  0.00     0.075 A 
HETATM   24  C   UNL     1      30.846  48.342  40.191  1.00  0.00     0.152 A 
HETATM   25 CL   UNL     1      30.466  47.938  38.555  1.00  0.00    -0.060 Cl
HETATM   26  N   UNL     1      32.102  47.999  40.548  1.00  0.00    -0.247 NA
HETATM   27  C   UNL     1      32.457  48.285  41.817  1.00  0.00     0.118 A 
HETATM   28  C   UNL     1      31.610  48.897  42.727  1.00  0.00     0.022 A 
HETATM   29  C   UNL     1      30.318  49.243  42.322  1.00  0.00     0.034 A 
ENDBRANCH  20  23
ENDBRANCH   7  19
TORSDOF 6
ENDMDL
MODEL 10
REMARK VINA RESULT:      -7.3      5.382      8.051
REMARK  6 active torsions:
REMARK  status: ('A' for Active; 'I' for Inactive)
REMARK    1  A    between atoms: O_2  and  C_3 
REMARK    2  A    between atoms: C_6  and  C_7 
REMARK    3  A    between atoms: C_7  and  N_8 
REMARK    4  A    between atoms: N_8  and  C_9 
REMARK    5  A    between atoms: C_15  and  C_16 
REMARK       I    between atoms: C_16  and  N_17 
REMARK    6  A    between atoms: N_17  and  C_18 
ROOT
HETATM    1  C   UNL     1      25.162  48.195  49.481  1.00  0.00     0.096 A 
HETATM    2  N   UNL     1      26.440  47.929  49.804  1.00  0.00    -0.356 N 
HETATM    3  H   UNL     1      26.599  47.149  50.441  1.00  0.00     0.166 HD
HETATM    4  C   UNL     1      27.485  48.660  49.390  1.00  0.00     0.089 A 
HETATM    5  C   UNL     1      27.275  49.781  48.601  1.00  0.00     0.018 A 
HETATM    6  C   UNL     1      25.971  50.154  48.286  1.00  0.00     0.022 A 
HETATM    7  C   UNL     1      24.899  49.385  48.754  1.00  0.00     0.070 A 
ENDROOT
BRANCH   1   8
HETATM    8  N   UNL     1      24.167  47.365  50.002  1.00  0.00    -0.274 NA
HETATM    9  H   UNL     1      23.518  47.113  49.235  1.00  0.00     0.129 HD
BRANCH   8  10
HETATM   10  C   UNL     1      24.582  46.120  50.656  1.00  0.00     0.132 C 
BRANCH  10  11
HETATM   11  C   UNL     1      24.015  44.929  49.928  1.00  0.00    -0.045 A 
HETATM   12  C   UNL     1      23.798  43.722  50.612  1.00  0.00     0.011 A 
HETATM   13  C   UNL     1      23.220  42.625  49.968  1.00  0.00     0.037 A 
HETATM   14  C   UNL     1      22.846  42.719  48.630  1.00  0.00     0.068 A 
HETATM   15  C   UNL     1      23.075  43.912  47.938  1.00  0.00     0.037 A 
HETATM   16  C   UNL     1      23.642  45.015  48.581  1.00  0.00     0.011 A 
BRANCH  14  17
HETATM   17  O   UNL     1      22.265  41.726  47.894  1.00  0.00    -0.356 OA
HETATM   18  C   UNL     1      21.945  42.045  46.543  1.00  0.00     0.210 C 
ENDBRANCH  14  17
ENDBRANCH  10  11
ENDBRANCH   8  10
ENDBRANCH   1   8
BRANCH   7  19
HETATM   19  C   UNL     1      23.483  49.756  48.474  1.00  0.00     0.259 C 
HETATM   20  N   UNL     1      22.620  49.778  49.548  1.00  0.00    -0.320 N 
HETATM   21  H   UNL     1      22.971  49.603  50.483  1.00  0.00     0.169 HD
HETATM   22  O   UNL     1      23.193  49.978  47.302  1.00  0.00    -0.267 OA
BRANCH  20  23
HETATM   23  C   UNL     1      21.211  49.973  49.510  1.00  0.00     0.075 A 
HETATM   24  C   UNL     1      20.380  48.922  49.096  1.00  0.00     0.152 A 
HETATM   25 CL   UNL     1      21.035  47.382  48.669  1.00  0.00    -0.060 Cl
HETATM   26  N   UNL     1      19.036  48.982  48.983  1.00  0.00    -0.247 NA
HETATM   27  C   UNL     1      18.466  50.163  49.298  1.00  0.00     0.118 A 
HETATM   28  C   UNL     1      19.186  51.270  49.721  1.00  0.00     0.022 A 
HETATM   29  C   UNL     1      20.575  51.171  49.830  1.00  0.00     0.034 A 
ENDBRANCH  20  23
ENDBRANCH   7  19
TORSDOF 6
ENDMDL
