MODEL 1
REMARK VINA RESULT:      -9.2      0.000      0.000
REMARK  5 active torsions:
REMARK  status: ('A' for Active; 'I' for Inactive)
REMARK    1  A    between atoms: C_7  and  C_8 
REMARK       I    between atoms: C_8  and  N_9 
REMARK    2  A    between atoms: N_9  and  C_10 
REMARK    3  A    between atoms: C_10  and  C_11 
REMARK    4  A    between atoms: C_11  and  O_12 
REMARK    5  A    between atoms: C_11  and  C_13 
ROOT
HETATM    1  C   UNL     1      26.507  45.576  53.561  1.00  0.00     0.254 C 
HETATM    2  N   UNL     1      26.364  46.644  52.705  1.00  0.00    -0.354 N 
HETATM    3  O   UNL     1      25.783  44.588  53.483  1.00  0.00    -0.268 OA
HETATM    4  H   UNL     1      26.862  47.500  52.898  1.00  0.00     0.162 HD
ENDROOT
BRANCH   2   5
HETATM    5  C   UNL     1      25.398  46.636  51.618  1.00  0.00     0.159 C 
BRANCH   5   6
HETATM    6  C   UNL     1      26.065  46.692  50.227  1.00  0.00     0.175 C 
BRANCH   6   7
HETATM    7  O   UNL     1      25.637  45.570  49.445  1.00  0.00    -0.389 OA
HETATM    8  H   UNL     1      26.438  45.041  49.288  1.00  0.00     0.210 HD
ENDBRANCH   6   7
BRANCH   6   9
HETATM    9  C   UNL     1      25.739  47.950  49.468  1.00  0.00     0.049 A 
HETATM   10  C   UNL     1      26.763  48.755  48.964  1.00  0.00     0.128 A 
HETATM   11  F   UNL     1      28.044  48.412  49.159  1.00  0.00    -0.205 F 
HETATM   12  C   UNL     1      26.495  49.929  48.257  1.00  0.00     0.043 A 
HETATM   13  C   UNL     1      25.177  50.323  48.039  1.00  0.00     0.006 A 
HETATM   14  C   UNL     1      24.139  49.536  48.529  1.00  0.00     0.043 A 
HETATM   15  C   UNL     1      24.425  48.363  49.232  1.00  0.00     0.128 A 
HETATM   16  F   UNL     1      23.395  47.640  49.694  1.00  0.00    -0.205 F 
ENDBRANCH   6   9
ENDBRANCH   5   6
ENDBRANCH   2   5
BRANCH   1  17
HETATM   17  C   UNL     1      27.540  45.728  54.591  1.00  0.00     0.066 A 
HETATM   18  C   UNL     1      27.684  46.753  55.527  1.00  0.00     0.022 A 
HETATM   19  C   UNL     1      26.923  48.008  55.776  1.00  0.00     0.069 C 
HETATM   20  N   UNL     1      28.796  46.470  56.285  1.00  0.00    -0.358 N 
HETATM   21  H   UNL     1      29.146  47.044  57.041  1.00  0.00     0.166 HD
HETATM   22  C   UNL     1      29.411  45.325  55.848  1.00  0.00     0.043 A 
HETATM   23  C   UNL     1      28.655  44.837  54.785  1.00  0.00     0.008 A 
HETATM   24  C   UNL     1      30.576  44.698  56.308  1.00  0.00     0.030 A 
HETATM   25  C   UNL     1      29.090  43.653  54.151  1.00  0.00     0.015 A 
HETATM   26  C   UNL     1      30.252  43.012  54.595  1.00  0.00     0.001 A 
HETATM   27  C   UNL     1      30.984  43.530  55.659  1.00  0.00     0.002 A 
ENDBRANCH   1  17
TORSDOF 5
ENDMDL
MODEL 2
REMARK VINA RESULT:      -9.2      0.086      1.685
REMARK  5 active torsions:
REMARK  status: ('A' for Active; 'I' for Inactive)
REMARK    1  A    between atoms: C_7  and  C_8 
REMARK       I    between atoms: C_8  and  N_9 
REMARK    2  A    between atoms: N_9  and  C_10 
REMARK    3  A    between atoms: C_10  and  C_11 
REMARK    4  A    between atoms: C_11  and  O_12 
REMARK    5  A    between atoms: C_11  and  C_13 
ROOT
HETATM    1  C   UNL     1      26.484  45.623  53.506  1.00  0.00     0.254 C 
HETATM    2  N   UNL     1      26.286  46.740  52.729  1.00  0.00    -0.354 N 
HETATM    3  O   UNL     1      25.808  44.609  53.359  1.00  0.00    -0.268 OA
HETATM    4  H   UNL     1      26.744  47.603  52.981  1.00  0.00     0.162 HD
ENDROOT
BRANCH   2   5
HETATM    5  C   UNL     1      25.316  46.764  51.645  1.00  0.00     0.159 C 
BRANCH   5   6
HETATM    6  C   UNL     1      25.978  46.750  50.251  1.00  0.00     0.175 C 
BRANCH   6   7
HETATM    7  O   UNL     1      25.496  45.627  49.503  1.00  0.00    -0.389 OA
HETATM    8  H   UNL     1      25.300  44.939  50.162  1.00  0.00     0.210 HD
ENDBRANCH   6   7
BRANCH   6   9
HETATM    9  C   UNL     1      25.706  48.000  49.458  1.00  0.00     0.049 A 
HETATM   10  C   UNL     1      24.392  48.403  49.205  1.00  0.00     0.128 A 
HETATM   11  F   UNL     1      23.366  47.674  49.666  1.00  0.00    -0.205 F 
HETATM   12  C   UNL     1      24.105  49.555  48.472  1.00  0.00     0.043 A 
HETATM   13  C   UNL     1      25.144  50.336  47.971  1.00  0.00     0.006 A 
HETATM   14  C   UNL     1      26.461  49.957  48.212  1.00  0.00     0.043 A 
HETATM   15  C   UNL     1      26.730  48.803  48.949  1.00  0.00     0.128 A 
HETATM   16  F   UNL     1      28.013  48.469  49.150  1.00  0.00    -0.205 F 
ENDBRANCH   6   9
ENDBRANCH   5   6
ENDBRANCH   2   5
BRANCH   1  17
HETATM   17  C   UNL     1      27.514  45.750  54.543  1.00  0.00     0.066 A 
HETATM   18  C   UNL     1      27.660  46.757  55.497  1.00  0.00     0.022 A 
HETATM   19  C   UNL     1      26.905  48.011  55.767  1.00  0.00     0.069 C 
HETATM   20  N   UNL     1      28.768  46.454  56.255  1.00  0.00    -0.358 N 
HETATM   21  H   UNL     1      29.118  47.012  57.022  1.00  0.00     0.166 HD
HETATM   22  C   UNL     1      29.378  45.314  55.799  1.00  0.00     0.043 A 
HETATM   23  C   UNL     1      28.623  44.849  54.724  1.00  0.00     0.008 A 
HETATM   24  C   UNL     1      30.538  44.672  56.251  1.00  0.00     0.030 A 
HETATM   25  C   UNL     1      29.054  43.674  54.070  1.00  0.00     0.015 A 
HETATM   26  C   UNL     1      30.211  43.020  54.506  1.00  0.00     0.001 A 
HETATM   27  C   UNL     1      30.942  43.514  55.583  1.00  0.00     0.002 A 
ENDBRANCH   1  17
TORSDOF 5
ENDMDL
MODEL 3
REMARK VINA RESULT:      -9.1      1.650      2.059
REMARK  5 active torsions:
REMARK  status: ('A' for Active; 'I' for Inactive)
REMARK    1  A    between atoms: C_7  and  C_8 
REMARK       I    between atoms: C_8  and  N_9 
REMARK    2  A    between atoms: N_9  and  C_10 
REMARK    3  A    between atoms: C_10  and  C_11 
REMARK    4  A    between atoms: C_11  and  O_12 
REMARK    5  A    between atoms: C_11  and  C_13 
ROOT
HETATM    1  C   UNL     1      26.684  44.391  53.196  1.00  0.00     0.254 C 
HETATM    2  N   UNL     1      27.312  44.036  52.024  1.00  0.00    -0.354 N 
HETATM    3  O   UNL     1      25.498  44.143  53.391  1.00  0.00    -0.268 OA
HETATM    4  H   UNL     1      28.234  44.395  51.831  1.00  0.00     0.162 HD
ENDROOT
BRANCH   2   5
HETATM    5  C   UNL     1      26.629  43.287  50.980  1.00  0.00     0.159 C 
BRANCH   5   6
HETATM    6  C   UNL     1      26.607  44.034  49.629  1.00  0.00     0.175 C 
BRANCH   6   7
HETATM    7  O   UNL     1      25.797  43.309  48.694  1.00  0.00    -0.389 OA
HETATM    8  H   UNL     1      25.183  43.964  48.319  1.00  0.00     0.210 HD
ENDBRANCH   6   7
BRANCH   6   9
HETATM    9  C   UNL     1      26.065  45.434  49.739  1.00  0.00     0.049 A 
HETATM   10  C   UNL     1      26.900  46.532  49.517  1.00  0.00     0.128 A 
HETATM   11  F   UNL     1      28.191  46.343  49.209  1.00  0.00    -0.205 F 
HETATM   12  C   UNL     1      26.430  47.843  49.612  1.00  0.00     0.043 A 
HETATM   13  C   UNL     1      25.097  48.081  49.936  1.00  0.00     0.006 A 
HETATM   14  C   UNL     1      24.245  47.003  50.159  1.00  0.00     0.043 A 
HETATM   15  C   UNL     1      24.730  45.698  50.057  1.00  0.00     0.128 A 
HETATM   16  F   UNL     1      23.878  44.690  50.288  1.00  0.00    -0.205 F 
ENDBRANCH   6   9
ENDBRANCH   5   6
ENDBRANCH   2   5
BRANCH   1  17
HETATM   17  C   UNL     1      27.514  45.123  54.158  1.00  0.00     0.066 A 
HETATM   18  C   UNL     1      27.341  46.422  54.637  1.00  0.00     0.022 A 
HETATM   19  C   UNL     1      26.346  47.487  54.332  1.00  0.00     0.069 C 
HETATM   20  N   UNL     1      28.362  46.679  55.521  1.00  0.00    -0.358 N 
HETATM   21  H   UNL     1      28.494  47.548  56.021  1.00  0.00     0.166 HD
HETATM   22  C   UNL     1      29.223  45.614  55.601  1.00  0.00     0.043 A 
HETATM   23  C   UNL     1      28.726  44.624  54.756  1.00  0.00     0.008 A 
HETATM   24  C   UNL     1      30.400  45.462  56.345  1.00  0.00     0.030 A 
HETATM   25  C   UNL     1      29.447  43.414  54.656  1.00  0.00     0.015 A 
HETATM   26  C   UNL     1      30.625  43.244  55.391  1.00  0.00     0.001 A 
HETATM   27  C   UNL     1      31.093  44.256  56.224  1.00  0.00     0.002 A 
ENDBRANCH   1  17
TORSDOF 5
ENDMDL
MODEL 4
REMARK VINA RESULT:      -8.9      2.679      7.888
REMARK  5 active torsions:
REMARK  status: ('A' for Active; 'I' for Inactive)
REMARK    1  A    between atoms: C_7  and  C_8 
REMARK       I    between atoms: C_8  and  N_9 
REMARK    2  A    between atoms: N_9  and  C_10 
REMARK    3  A    between atoms: C_10  and  C_11 
REMARK    4  A    between atoms: C_11  and  O_12 
REMARK    5  A    between atoms: C_11  and  C_13 
ROOT
HETATM    1  C   UNL     1      26.681  45.332  50.533  1.00  0.00     0.254 C 
HETATM    2  N   UNL     1      26.635  45.003  51.868  1.00  0.00    -0.354 N 
HETATM    3  O   UNL     1      27.582  44.928  49.802  1.00  0.00    -0.268 OA
HETATM    4  H   UNL     1      25.979  45.479  52.469  1.00  0.00     0.162 HD
ENDROOT
BRANCH   2   5
HETATM    5  C   UNL     1      27.606  44.106  52.476  1.00  0.00     0.159 C 
BRANCH   5   6
HETATM    6  C   UNL     1      27.415  43.966  54.000  1.00  0.00     0.175 C 
BRANCH   6   7
HETATM    7  O   UNL     1      26.850  42.683  54.296  1.00  0.00    -0.389 OA
HETATM    8  H   UNL     1      25.895  42.836  54.402  1.00  0.00     0.210 HD
ENDBRANCH   6   7
BRANCH   6   9
HETATM    9  C   UNL     1      28.700  44.107  54.771  1.00  0.00     0.049 A 
HETATM   10  C   UNL     1      28.950  45.259  55.521  1.00  0.00     0.128 A 
HETATM   11  F   UNL     1      28.046  46.248  55.555  1.00  0.00    -0.205 F 
HETATM   12  C   UNL     1      30.133  45.422  56.245  1.00  0.00     0.043 A 
HETATM   13  C   UNL     1      31.099  44.419  56.231  1.00  0.00     0.006 A 
HETATM   14  C   UNL     1      30.872  43.262  55.493  1.00  0.00     0.043 A 
HETATM   15  C   UNL     1      29.683  43.113  54.777  1.00  0.00     0.128 A 
HETATM   16  F   UNL     1      29.509  41.986  54.072  1.00  0.00    -0.205 F 
ENDBRANCH   6   9
ENDBRANCH   5   6
ENDBRANCH   2   5
BRANCH   1  17
HETATM   17  C   UNL     1      25.619  46.228  50.066  1.00  0.00     0.066 A 
HETATM   18  C   UNL     1      24.246  45.987  50.012  1.00  0.00     0.022 A 
HETATM   19  C   UNL     1      23.416  44.796  50.340  1.00  0.00     0.069 C 
HETATM   20  N   UNL     1      23.645  47.116  49.505  1.00  0.00    -0.358 N 
HETATM   21  H   UNL     1      22.652  47.227  49.350  1.00  0.00     0.166 HD
HETATM   22  C   UNL     1      24.579  48.067  49.181  1.00  0.00     0.043 A 
HETATM   23  C   UNL     1      25.826  47.543  49.514  1.00  0.00     0.008 A 
HETATM   24  C   UNL     1      24.411  49.337  48.614  1.00  0.00     0.030 A 
HETATM   25  C   UNL     1      26.967  48.338  49.267  1.00  0.00     0.015 A 
HETATM   26  C   UNL     1      26.820  49.609  48.701  1.00  0.00     0.001 A 
HETATM   27  C   UNL     1      25.558  50.099  48.379  1.00  0.00     0.002 A 
ENDBRANCH   1  17
TORSDOF 5
ENDMDL
MODEL 5
REMARK VINA RESULT:      -8.9      1.830      3.261
REMARK  5 active torsions:
REMARK  status: ('A' for Active; 'I' for Inactive)
REMARK    1  A    between atoms: C_7  and  C_8 
REMARK       I    between atoms: C_8  and  N_9 
REMARK    2  A    between atoms: N_9  and  C_10 
REMARK    3  A    between atoms: C_10  and  C_11 
REMARK    4  A    between atoms: C_11  and  O_12 
REMARK    5  A    between atoms: C_11  and  C_13 
ROOT
HETATM    1  C   UNL     1      26.630  44.107  51.855  1.00  0.00     0.254 C 
HETATM    2  N   UNL     1      26.889  45.089  50.927  1.00  0.00    -0.354 N 
HETATM    3  O   UNL     1      25.485  43.735  52.096  1.00  0.00    -0.268 OA
HETATM    4  H   UNL     1      27.817  45.482  50.872  1.00  0.00     0.162 HD
ENDROOT
BRANCH   2   5
HETATM    5  C   UNL     1      25.834  45.695  50.130  1.00  0.00     0.159 C 
BRANCH   5   6
HETATM    6  C   UNL     1      25.342  47.036  50.712  1.00  0.00     0.175 C 
BRANCH   6   7
HETATM    7  O   UNL     1      26.206  47.439  51.782  1.00  0.00    -0.389 OA
HETATM    8  H   UNL     1      26.907  47.970  51.366  1.00  0.00     0.210 HD
ENDBRANCH   6   7
BRANCH   6   9
HETATM    9  C   UNL     1      25.304  48.142  49.692  1.00  0.00     0.049 A 
HETATM   10  C   UNL     1      24.081  48.616  49.211  1.00  0.00     0.128 A 
HETATM   11  F   UNL     1      22.933  48.083  49.655  1.00  0.00    -0.205 F 
HETATM   12  C   UNL     1      24.010  49.640  48.264  1.00  0.00     0.043 A 
HETATM   13  C   UNL     1      25.180  50.215  47.775  1.00  0.00     0.006 A 
HETATM   14  C   UNL     1      26.411  49.762  48.241  1.00  0.00     0.043 A 
HETATM   15  C   UNL     1      26.464  48.739  49.190  1.00  0.00     0.128 A 
HETATM   16  F   UNL     1      27.670  48.327  49.605  1.00  0.00    -0.205 F 
ENDBRANCH   6   9
ENDBRANCH   5   6
ENDBRANCH   2   5
BRANCH   1  17
HETATM   17  C   UNL     1      27.803  43.582  52.562  1.00  0.00     0.066 A 
HETATM   18  C   UNL     1      28.496  42.395  52.323  1.00  0.00     0.022 A 
HETATM   19  C   UNL     1      28.288  41.279  51.360  1.00  0.00     0.069 C 
HETATM   20  N   UNL     1      29.524  42.324  53.234  1.00  0.00    -0.358 N 
HETATM   21  H   UNL     1      30.192  41.567  53.299  1.00  0.00     0.166 HD
HETATM   22  C   UNL     1      29.498  43.395  54.090  1.00  0.00     0.043 A 
HETATM   23  C   UNL     1      28.430  44.200  53.702  1.00  0.00     0.008 A 
HETATM   24  C   UNL     1      30.330  43.700  55.175  1.00  0.00     0.030 A 
HETATM   25  C   UNL     1      28.185  45.378  54.442  1.00  0.00     0.015 A 
HETATM   26  C   UNL     1      29.004  45.700  55.529  1.00  0.00     0.001 A 
HETATM   27  C   UNL     1      30.061  44.870  55.889  1.00  0.00     0.002 A 
ENDBRANCH   1  17
TORSDOF 5
ENDMDL
MODEL 6
REMARK VINA RESULT:      -8.8      3.578      4.733
REMARK  5 active torsions:
REMARK  status: ('A' for Active; 'I' for Inactive)
REMARK    1  A    between atoms: C_7  and  C_8 
REMARK       I    between atoms: C_8  and  N_9 
REMARK    2  A    between atoms: N_9  and  C_10 
REMARK    3  A    between atoms: C_10  and  C_11 
REMARK    4  A    between atoms: C_11  and  O_12 
REMARK    5  A    between atoms: C_11  and  C_13 
ROOT
HETATM    1  C   UNL     1      29.385  43.044  53.578  1.00  0.00     0.254 C 
HETATM    2  N   UNL     1      28.318  42.187  53.435  1.00  0.00    -0.354 N 
HETATM    3  O   UNL     1      30.397  42.930  52.893  1.00  0.00    -0.268 OA
HETATM    4  H   UNL     1      27.576  42.206  54.119  1.00  0.00     0.162 HD
ENDROOT
BRANCH   2   5
HETATM    5  C   UNL     1      28.297  41.143  52.422  1.00  0.00     0.159 C 
BRANCH   5   6
HETATM    6  C   UNL     1      28.184  41.705  50.989  1.00  0.00     0.175 C 
BRANCH   6   7
HETATM    7  O   UNL     1      28.278  40.631  50.045  1.00  0.00    -0.389 OA
HETATM    8  H   UNL     1      27.538  40.036  50.252  1.00  0.00     0.210 HD
ENDBRANCH   6   7
BRANCH   6   9
HETATM    9  C   UNL     1      26.893  42.438  50.745  1.00  0.00     0.049 A 
HETATM   10  C   UNL     1      26.889  43.826  50.584  1.00  0.00     0.128 A 
HETATM   11  F   UNL     1      28.039  44.512  50.650  1.00  0.00    -0.205 F 
HETATM   12  C   UNL     1      25.709  44.537  50.357  1.00  0.00     0.043 A 
HETATM   13  C   UNL     1      24.494  43.861  50.288  1.00  0.00     0.006 A 
HETATM   14  C   UNL     1      24.472  42.478  50.443  1.00  0.00     0.043 A 
HETATM   15  C   UNL     1      25.661  41.782  50.665  1.00  0.00     0.128 A 
HETATM   16  F   UNL     1      25.593  40.452  50.818  1.00  0.00    -0.205 F 
ENDBRANCH   6   9
ENDBRANCH   5   6
ENDBRANCH   2   5
BRANCH   1  17
HETATM   17  C   UNL     1      29.244  44.056  54.629  1.00  0.00     0.066 A 
HETATM   18  C   UNL     1      28.345  45.121  54.690  1.00  0.00     0.022 A 
HETATM   19  C   UNL     1      27.301  45.616  53.752  1.00  0.00     0.069 C 
HETATM   20  N   UNL     1      28.584  45.801  55.862  1.00  0.00    -0.358 N 
HETATM   21  H   UNL     1      28.083  46.623  56.170  1.00  0.00     0.166 HD
HETATM   22  C   UNL     1      29.638  45.249  56.544  1.00  0.00     0.043 A 
HETATM   23  C   UNL     1      30.079  44.157  55.799  1.00  0.00     0.008 A 
HETATM   24  C   UNL     1      30.232  45.639  57.751  1.00  0.00     0.030 A 
HETATM   25  C   UNL     1      31.174  43.416  56.294  1.00  0.00     0.015 A 
HETATM   26  C   UNL     1      31.781  43.791  57.498  1.00  0.00     0.001 A 
HETATM   27  C   UNL     1      31.315  44.888  58.215  1.00  0.00     0.002 A 
ENDBRANCH   1  17
TORSDOF 5
ENDMDL
MODEL 7
REMARK VINA RESULT:      -8.7      4.731      6.412
REMARK  5 active torsions:
REMARK  status: ('A' for Active; 'I' for Inactive)
REMARK    1  A    between atoms: C_7  and  C_8 
REMARK       I    between atoms: C_8  and  N_9 
REMARK    2  A    between atoms: N_9  and  C_10 
REMARK    3  A    between atoms: C_10  and  C_11 
REMARK    4  A    between atoms: C_11  and  O_12 
REMARK    5  A    between atoms: C_11  and  C_13 
ROOT
HETATM    1  C   UNL     1      27.107  43.728  52.697  1.00  0.00     0.254 C 
HETATM    2  N   UNL     1      27.997  43.227  51.776  1.00  0.00    -0.354 N 
HETATM    3  O   UNL     1      25.908  43.469  52.640  1.00  0.00    -0.268 OA
HETATM    4  H   UNL     1      28.940  43.587  51.756  1.00  0.00     0.162 HD
ENDROOT
BRANCH   2   5
HETATM    5  C   UNL     1      27.585  42.311  50.723  1.00  0.00     0.159 C 
BRANCH   5   6
HETATM    6  C   UNL     1      27.571  40.839  51.187  1.00  0.00     0.175 C 
BRANCH   6   7
HETATM    7  O   UNL     1      26.243  40.476  51.587  1.00  0.00    -0.389 OA
HETATM    8  H   UNL     1      25.883  39.953  50.850  1.00  0.00     0.210 HD
ENDBRANCH   6   7
BRANCH   6   9
HETATM    9  C   UNL     1      28.022  39.881  50.117  1.00  0.00     0.049 A 
HETATM   10  C   UNL     1      29.050  38.971  50.374  1.00  0.00     0.128 A 
HETATM   11  F   UNL     1      29.644  38.950  51.576  1.00  0.00    -0.205 F 
HETATM   12  C   UNL     1      29.494  38.070  49.404  1.00  0.00     0.043 A 
HETATM   13  C   UNL     1      28.906  38.064  48.142  1.00  0.00     0.006 A 
HETATM   14  C   UNL     1      27.878  38.959  47.863  1.00  0.00     0.043 A 
HETATM   15  C   UNL     1      27.444  39.852  48.845  1.00  0.00     0.128 A 
HETATM   16  F   UNL     1      26.458  40.703  48.531  1.00  0.00    -0.205 F 
ENDBRANCH   6   9
ENDBRANCH   5   6
ENDBRANCH   2   5
BRANCH   1  17
HETATM   17  C   UNL     1      27.681  44.621  53.708  1.00  0.00     0.066 A 
HETATM   18  C   UNL     1      27.287  45.918  54.041  1.00  0.00     0.022 A 
HETATM   19  C   UNL     1      26.242  46.826  53.497  1.00  0.00     0.069 C 
HETATM   20  N   UNL     1      28.117  46.360  55.045  1.00  0.00    -0.358 N 
HETATM   21  H   UNL     1      28.067  47.270  55.483  1.00  0.00     0.166 HD
HETATM   22  C   UNL     1      29.068  45.419  55.347  1.00  0.00     0.043 A 
HETATM   23  C   UNL     1      28.829  44.320  54.526  1.00  0.00     0.008 A 
HETATM   24  C   UNL     1      30.118  45.466  56.273  1.00  0.00     0.030 A 
HETATM   25  C   UNL     1      29.689  43.206  54.642  1.00  0.00     0.015 A 
HETATM   26  C   UNL     1      30.744  43.234  55.560  1.00  0.00     0.001 A 
HETATM   27  C   UNL     1      30.954  44.351  56.364  1.00  0.00     0.002 A 
ENDBRANCH   1  17
TORSDOF 5
ENDMDL
MODEL 8
REMARK VINA RESULT:      -8.7      3.001      4.475
REMARK  5 active torsions:
REMARK  status: ('A' for Active; 'I' for Inactive)
REMARK    1  A    between atoms: C_7  and  C_8 
REMARK       I    between atoms: C_8  and  N_9 
REMARK    2  A    between atoms: N_9  and  C_10 
REMARK    3  A    between atoms: C_10  and  C_11 
REMARK    4  A    between atoms: C_11  and  O_12 
REMARK    5  A    between atoms: C_11  and  C_13 
ROOT
HETATM    1  C   UNL     1      26.333  45.039  53.242  1.00  0.00     0.254 C 
HETATM    2  N   UNL     1      26.360  45.709  52.040  1.00  0.00    -0.354 N 
HETATM    3  O   UNL     1      25.515  44.152  53.466  1.00  0.00    -0.268 OA
HETATM    4  H   UNL     1      26.933  46.534  51.949  1.00  0.00     0.162 HD
ENDROOT
BRANCH   2   5
HETATM    5  C   UNL     1      25.470  45.361  50.943  1.00  0.00     0.159 C 
BRANCH   5   6
HETATM    6  C   UNL     1      26.209  44.693  49.765  1.00  0.00     0.175 C 
BRANCH   6   7
HETATM    7  O   UNL     1      27.578  45.118  49.756  1.00  0.00    -0.389 OA
HETATM    8  H   UNL     1      28.026  44.567  50.420  1.00  0.00     0.210 HD
ENDBRANCH   6   7
BRANCH   6   9
HETATM    9  C   UNL     1      26.180  43.190  49.827  1.00  0.00     0.049 A 
HETATM   10  C   UNL     1      25.216  42.473  49.114  1.00  0.00     0.128 A 
HETATM   11  F   UNL     1      24.307  43.123  48.374  1.00  0.00    -0.205 F 
HETATM   12  C   UNL     1      25.160  41.078  49.152  1.00  0.00     0.043 A 
HETATM   13  C   UNL     1      26.083  40.367  49.914  1.00  0.00     0.006 A 
HETATM   14  C   UNL     1      27.055  41.059  50.630  1.00  0.00     0.043 A 
HETATM   15  C   UNL     1      27.098  42.453  50.580  1.00  0.00     0.128 A 
HETATM   16  F   UNL     1      28.045  43.080  51.293  1.00  0.00    -0.205 F 
ENDBRANCH   6   9
ENDBRANCH   5   6
ENDBRANCH   2   5
BRANCH   1  17
HETATM   17  C   UNL     1      27.308  45.493  54.239  1.00  0.00     0.066 A 
HETATM   18  C   UNL     1      27.319  46.691  54.954  1.00  0.00     0.022 A 
HETATM   19  C   UNL     1      26.433  47.886  54.936  1.00  0.00     0.069 C 
HETATM   20  N   UNL     1      28.425  46.676  55.773  1.00  0.00    -0.358 N 
HETATM   21  H   UNL     1      28.691  47.419  56.405  1.00  0.00     0.166 HD
HETATM   22  C   UNL     1      29.162  45.535  55.582  1.00  0.00     0.043 A 
HETATM   23  C   UNL     1      28.496  44.774  54.625  1.00  0.00     0.008 A 
HETATM   24  C   UNL     1      30.364  45.131  56.177  1.00  0.00     0.030 A 
HETATM   25  C   UNL     1      29.065  43.539  54.246  1.00  0.00     0.015 A 
HETATM   26  C   UNL     1      30.266  43.118  54.827  1.00  0.00     0.001 A 
HETATM   27  C   UNL     1      30.906  43.906  55.780  1.00  0.00     0.002 A 
ENDBRANCH   1  17
TORSDOF 5
ENDMDL
MODEL 9
REMARK VINA RESULT:      -8.7      2.766      3.956
REMARK  5 active torsions:
REMARK  status: ('A' for Active; 'I' for Inactive)
REMARK    1  A    between atoms: C_7  and  C_8 
REMARK       I    between atoms: C_8  and  N_9 
REMARK    2  A    between atoms: N_9  and  C_10 
REMARK    3  A    between atoms: C_10  and  C_11 
REMARK    4  A    between atoms: C_11  and  O_12 
REMARK    5  A    between atoms: C_11  and  C_13 
ROOT
HETATM    1  C   UNL     1      28.807  43.387  53.213  1.00  0.00     0.254 C 
HETATM    2  N   UNL     1      27.573  42.836  52.955  1.00  0.00    -0.354 N 
HETATM    3  O   UNL     1      29.797  43.082  52.555  1.00  0.00    -0.268 OA
HETATM    4  H   UNL     1      26.821  42.983  53.612  1.00  0.00     0.162 HD
ENDROOT
BRANCH   2   5
HETATM    5  C   UNL     1      27.354  41.915  51.850  1.00  0.00     0.159 C 
BRANCH   5   6
HETATM    6  C   UNL     1      27.265  42.632  50.486  1.00  0.00     0.175 C 
BRANCH   6   7
HETATM    7  O   UNL     1      26.839  41.702  49.483  1.00  0.00    -0.389 OA
HETATM    8  H   UNL     1      27.460  41.814  48.743  1.00  0.00     0.210 HD
ENDBRANCH   6   7
BRANCH   6   9
HETATM    9  C   UNL     1      26.306  43.792  50.493  1.00  0.00     0.049 A 
HETATM   10  C   UNL     1      24.960  43.594  50.812  1.00  0.00     0.128 A 
HETATM   11  F   UNL     1      24.515  42.364  51.109  1.00  0.00    -0.205 F 
HETATM   12  C   UNL     1      24.044  44.647  50.826  1.00  0.00     0.043 A 
HETATM   13  C   UNL     1      24.466  45.938  50.517  1.00  0.00     0.006 A 
HETATM   14  C   UNL     1      25.803  46.162  50.199  1.00  0.00     0.043 A 
HETATM   15  C   UNL     1      26.706  45.097  50.192  1.00  0.00     0.128 A 
HETATM   16  F   UNL     1      27.982  45.356  49.871  1.00  0.00    -0.205 F 
ENDBRANCH   6   9
ENDBRANCH   5   6
ENDBRANCH   2   5
BRANCH   1  17
HETATM   17  C   UNL     1      28.859  44.313  54.348  1.00  0.00     0.066 A 
HETATM   18  C   UNL     1      28.091  45.457  54.567  1.00  0.00     0.022 A 
HETATM   19  C   UNL     1      27.040  46.137  53.762  1.00  0.00     0.069 C 
HETATM   20  N   UNL     1      28.492  46.005  55.764  1.00  0.00    -0.358 N 
HETATM   21  H   UNL     1      28.109  46.845  56.176  1.00  0.00     0.166 HD
HETATM   22  C   UNL     1      29.526  45.289  56.310  1.00  0.00     0.043 A 
HETATM   23  C   UNL     1      29.786  44.226  55.447  1.00  0.00     0.008 A 
HETATM   24  C   UNL     1      30.249  45.510  57.489  1.00  0.00     0.030 A 
HETATM   25  C   UNL     1      30.827  43.335  55.789  1.00  0.00     0.015 A 
HETATM   26  C   UNL     1      31.561  43.539  56.962  1.00  0.00     0.001 A 
HETATM   27  C   UNL     1      31.274  44.613  57.799  1.00  0.00     0.002 A 
ENDBRANCH   1  17
TORSDOF 5
ENDMDL
MODEL 10
REMARK VINA RESULT:      -8.6      1.497      2.397
REMARK  5 active torsions:
REMARK  status: ('A' for Active; 'I' for Inactive)
REMARK    1  A    between atoms: C_7  and  C_8 
REMARK       I    between atoms: C_8  and  N_9 
REMARK    2  A    between atoms: N_9  and  C_10 
REMARK    3  A    between atoms: C_10  and  C_11 
REMARK    4  A    between atoms: C_11  and  O_12 
REMARK    5  A    between atoms: C_11  and  C_13 
ROOT
HETATM    1  C   UNL     1      26.338  44.772  53.099  1.00  0.00     0.254 C 
HETATM    2  N   UNL     1      26.546  45.881  52.311  1.00  0.00    -0.354 N 
HETATM    3  O   UNL     1      25.222  44.483  53.521  1.00  0.00    -0.268 OA
HETATM    4  H   UNL     1      27.491  46.178  52.118  1.00  0.00     0.162 HD
ENDROOT
BRANCH   2   5
HETATM    5  C   UNL     1      25.451  46.734  51.876  1.00  0.00     0.159 C 
BRANCH   5   6
HETATM    6  C   UNL     1      25.102  46.542  50.385  1.00  0.00     0.175 C 
BRANCH   6   7
HETATM    7  O   UNL     1      23.794  45.969  50.269  1.00  0.00    -0.389 OA
HETATM    8  H   UNL     1      23.522  46.123  49.348  1.00  0.00     0.210 HD
ENDBRANCH   6   7
BRANCH   6   9
HETATM    9  C   UNL     1      25.126  47.828  49.604  1.00  0.00     0.049 A 
HETATM   10  C   UNL     1      26.341  48.383  49.195  1.00  0.00     0.128 A 
HETATM   11  F   UNL     1      27.495  47.772  49.501  1.00  0.00    -0.205 F 
HETATM   12  C   UNL     1      26.399  49.575  48.471  1.00  0.00     0.043 A 
HETATM   13  C   UNL     1      25.223  50.243  48.139  1.00  0.00     0.006 A 
HETATM   14  C   UNL     1      23.999  49.709  48.533  1.00  0.00     0.043 A 
HETATM   15  C   UNL     1      23.960  48.514  49.254  1.00  0.00     0.128 A 
HETATM   16  F   UNL     1      22.761  48.040  49.621  1.00  0.00    -0.205 F 
ENDBRANCH   6   9
ENDBRANCH   5   6
ENDBRANCH   2   5
BRANCH   1  17
HETATM   17  C   UNL     1      27.540  44.002  53.434  1.00  0.00     0.066 A 
HETATM   18  C   UNL     1      27.945  42.768  52.926  1.00  0.00     0.022 A 
HETATM   19  C   UNL     1      27.327  41.821  51.958  1.00  0.00     0.069 C 
HETATM   20  N   UNL     1      29.135  42.439  53.534  1.00  0.00    -0.358 N 
HETATM   21  H   UNL     1      29.662  41.593  53.362  1.00  0.00     0.166 HD
HETATM   22  C   UNL     1      29.496  43.388  54.455  1.00  0.00     0.043 A 
HETATM   23  C   UNL     1      28.517  44.379  54.424  1.00  0.00     0.008 A 
HETATM   24  C   UNL     1      30.603  43.436  55.312  1.00  0.00     0.030 A 
HETATM   25  C   UNL     1      28.659  45.479  55.297  1.00  0.00     0.015 A 
HETATM   26  C   UNL     1      29.757  45.544  56.162  1.00  0.00     0.001 A 
HETATM   27  C   UNL     1      30.715  44.535  56.167  1.00  0.00     0.002 A 
ENDBRANCH   1  17
TORSDOF 5
ENDMDL
