MODEL 1
REMARK VINA RESULT:      -7.6      0.000      0.000
REMARK  4 active torsions:
REMARK  status: ('A' for Active; 'I' for Inactive)
REMARK    1  A    between atoms: C_2  and  N_3 
REMARK    2  A    between atoms: C_11  and  N_12 
REMARK    3  A    between atoms: N_12  and  C_15 
REMARK    4  A    between atoms: C_15  and  C_16 
ROOT
HETATM    1  N   UNL     1      27.864  39.274  48.992  1.00  0.00    -0.067 N 
HETATM    2  H   UNL     1      28.698  38.671  48.922  1.00  0.00     0.280 HD
HETATM    3  C   UNL     1      28.280  40.594  48.368  1.00  0.00     0.238 C 
HETATM    4  C   UNL     1      27.198  41.649  48.582  1.00  0.00     0.066 C 
HETATM    5  C   UNL     1      26.886  41.872  50.079  1.00  0.00     0.073 C 
HETATM    6  O   UNL     1      28.094  42.398  50.649  1.00  0.00    -0.339 OA
HETATM    7  C   UNL     1      27.997  42.975  51.884  1.00  0.00     0.078 A 
HETATM    8  C   UNL     1      26.793  43.416  52.446  1.00  0.00     0.006 A 
HETATM    9  C   UNL     1      25.508  43.331  51.666  1.00  0.00     0.224 C 
HETATM   10  C   UNL     1      25.765  42.921  50.208  1.00  0.00     0.076 C 
HETATM   11  C   UNL     1      29.200  43.103  52.578  1.00  0.00     0.037 A 
HETATM   12  C   UNL     1      29.210  43.623  53.870  1.00  0.00     0.003 A 
HETATM   13  C   UNL     1      28.016  44.008  54.469  1.00  0.00     0.001 A 
HETATM   14  C   UNL     1      26.813  43.901  53.768  1.00  0.00     0.012 A 
HETATM   15  C   UNL     1      26.548  40.511  50.726  1.00  0.00     0.066 C 
HETATM   16  C   UNL     1      27.646  39.476  50.479  1.00  0.00     0.238 C 
ENDROOT
BRANCH   9  17
HETATM   17  N   UNL     1      24.762  44.637  51.683  1.00  0.00    -0.063 N 
HETATM   18  H   UNL     1      23.952  44.562  52.313  1.00  0.00     0.278 HD
HETATM   19  H   UNL     1      25.341  45.370  52.116  1.00  0.00     0.278 HD
BRANCH  17  20
HETATM   20  C   UNL     1      24.229  45.146  50.385  1.00  0.00     0.274 C 
BRANCH  20  21
HETATM   21  C   UNL     1      24.857  46.437  50.041  1.00  0.00     0.004 A 
HETATM   22  C   UNL     1      26.197  46.731  49.856  1.00  0.00     0.122 A 
HETATM   23  N   UNL     1      26.258  48.064  49.542  1.00  0.00    -0.285 N 
HETATM   24  C   UNL     1      27.434  48.844  49.228  1.00  0.00     0.179 C 
HETATM   25  N   UNL     1      25.053  48.652  49.547  1.00  0.00    -0.185 NA
HETATM   26  C   UNL     1      24.201  47.669  49.817  1.00  0.00     0.149 A 
ENDBRANCH  20  21
ENDBRANCH  17  20
ENDBRANCH   9  17
BRANCH   1  27
HETATM   27  C   UNL     1      26.765  38.495  48.244  1.00  0.00     0.180 C 
HETATM   28  C   UNL     1      26.579  37.111  48.868  1.00  0.00     0.039 C 
HETATM   29  C   UNL     1      27.146  38.332  46.770  1.00  0.00     0.039 C 
ENDBRANCH   1  27
TORSDOF 4
ENDMDL
MODEL 2
REMARK VINA RESULT:      -7.6      3.433      5.994
REMARK  4 active torsions:
REMARK  status: ('A' for Active; 'I' for Inactive)
REMARK    1  A    between atoms: C_2  and  N_3 
REMARK    2  A    between atoms: C_11  and  N_12 
REMARK    3  A    between atoms: N_12  and  C_15 
REMARK    4  A    between atoms: C_15  and  C_16 
ROOT
HETATM    1  N   UNL     1      27.776  43.421  53.763  1.00  0.00    -0.067 N 
HETATM    2  H   UNL     1      28.005  42.458  54.054  1.00  0.00     0.280 HD
HETATM    3  C   UNL     1      26.447  43.727  54.430  1.00  0.00     0.238 C 
HETATM    4  C   UNL     1      25.890  45.055  53.924  1.00  0.00     0.066 C 
HETATM    5  C   UNL     1      25.702  45.065  52.390  1.00  0.00     0.073 C 
HETATM    6  O   UNL     1      24.704  44.069  52.119  1.00  0.00    -0.339 OA
HETATM    7  C   UNL     1      24.125  44.092  50.881  1.00  0.00     0.078 A 
HETATM    8  C   UNL     1      24.155  45.201  50.027  1.00  0.00     0.006 A 
HETATM    9  C   UNL     1      24.794  46.491  50.469  1.00  0.00     0.224 C 
HETATM   10  C   UNL     1      25.173  46.445  51.957  1.00  0.00     0.076 C 
HETATM   11  C   UNL     1      23.485  42.913  50.501  1.00  0.00     0.037 A 
HETATM   12  C   UNL     1      22.913  42.804  49.236  1.00  0.00     0.003 A 
HETATM   13  C   UNL     1      22.987  43.874  48.350  1.00  0.00     0.001 A 
HETATM   14  C   UNL     1      23.608  45.063  48.737  1.00  0.00     0.012 A 
HETATM   15  C   UNL     1      27.036  44.668  51.721  1.00  0.00     0.066 C 
HETATM   16  C   UNL     1      27.570  43.341  52.263  1.00  0.00     0.238 C 
ENDROOT
BRANCH   9  17
HETATM   17  N   UNL     1      23.889  47.669  50.230  1.00  0.00    -0.063 N 
HETATM   18  H   UNL     1      22.949  47.334  49.984  1.00  0.00     0.278 HD
HETATM   19  H   UNL     1      23.743  48.186  51.108  1.00  0.00     0.278 HD
BRANCH  17  20
HETATM   20  C   UNL     1      24.278  48.632  49.159  1.00  0.00     0.274 C 
BRANCH  20  21
HETATM   21  C   UNL     1      23.114  49.443  48.749  1.00  0.00     0.004 A 
HETATM   22  C   UNL     1      22.071  49.104  47.906  1.00  0.00     0.122 A 
HETATM   23  N   UNL     1      21.244  50.195  47.857  1.00  0.00    -0.285 N 
HETATM   24  C   UNL     1      19.999  50.330  47.135  1.00  0.00     0.179 C 
HETATM   25  N   UNL     1      21.703  51.225  48.585  1.00  0.00    -0.185 NA
HETATM   26  C   UNL     1      22.816  50.766  49.149  1.00  0.00     0.149 A 
ENDBRANCH  20  21
ENDBRANCH  17  20
ENDBRANCH   9  17
BRANCH   1  27
HETATM   27  C   UNL     1      28.975  44.261  54.241  1.00  0.00     0.180 C 
HETATM   28  C   UNL     1      30.161  43.351  54.569  1.00  0.00     0.039 C 
HETATM   29  C   UNL     1      28.595  45.058  55.491  1.00  0.00     0.039 C 
ENDBRANCH   1  27
TORSDOF 4
ENDMDL
MODEL 3
REMARK VINA RESULT:      -7.4     11.106     12.991
REMARK  4 active torsions:
REMARK  status: ('A' for Active; 'I' for Inactive)
REMARK    1  A    between atoms: C_2  and  N_3 
REMARK    2  A    between atoms: C_11  and  N_12 
REMARK    3  A    between atoms: N_12  and  C_15 
REMARK    4  A    between atoms: C_15  and  C_16 
ROOT
HETATM    1  N   UNL     1      25.623  47.228  39.484  1.00  0.00    -0.067 N 
HETATM    2  H   UNL     1      24.621  47.399  39.658  1.00  0.00     0.280 HD
HETATM    3  C   UNL     1      26.249  47.121  40.863  1.00  0.00     0.238 C 
HETATM    4  C   UNL     1      27.770  47.065  40.755  1.00  0.00     0.066 C 
HETATM    5  C   UNL     1      28.352  48.300  40.029  1.00  0.00     0.073 C 
HETATM    6  O   UNL     1      28.038  49.421  40.869  1.00  0.00    -0.339 OA
HETATM    7  C   UNL     1      28.707  50.587  40.620  1.00  0.00     0.078 A 
HETATM    8  C   UNL     1      29.898  50.662  39.889  1.00  0.00     0.006 A 
HETATM    9  C   UNL     1      30.561  49.412  39.375  1.00  0.00     0.224 C 
HETATM   10  C   UNL     1      29.882  48.151  39.930  1.00  0.00     0.076 C 
HETATM   11  C   UNL     1      28.118  51.736  41.148  1.00  0.00     0.037 A 
HETATM   12  C   UNL     1      28.682  52.985  40.906  1.00  0.00     0.003 A 
HETATM   13  C   UNL     1      29.831  53.086  40.129  1.00  0.00     0.001 A 
HETATM   14  C   UNL     1      30.434  51.936  39.618  1.00  0.00     0.012 A 
HETATM   15  C   UNL     1      27.648  48.452  38.662  1.00  0.00     0.066 C 
HETATM   16  C   UNL     1      26.126  48.490  38.809  1.00  0.00     0.238 C 
ENDROOT
BRANCH   9  17
HETATM   17  N   UNL     1      32.024  49.374  39.726  1.00  0.00    -0.063 N 
HETATM   18  H   UNL     1      32.532  48.826  39.019  1.00  0.00     0.278 HD
HETATM   19  H   UNL     1      32.431  50.316  39.644  1.00  0.00     0.278 HD
BRANCH  17  20
HETATM   20  C   UNL     1      32.402  48.796  41.048  1.00  0.00     0.274 C 
BRANCH  20  21
HETATM   21  C   UNL     1      32.714  49.872  42.011  1.00  0.00     0.004 A 
HETATM   22  C   UNL     1      32.030  50.240  43.156  1.00  0.00     0.122 A 
HETATM   23  N   UNL     1      32.729  51.285  43.701  1.00  0.00    -0.285 N 
HETATM   24  C   UNL     1      32.436  52.001  44.923  1.00  0.00     0.179 C 
HETATM   25  N   UNL     1      33.795  51.635  42.967  1.00  0.00    -0.185 NA
HETATM   26  C   UNL     1      33.808  50.766  41.961  1.00  0.00     0.149 A 
ENDBRANCH  20  21
ENDBRANCH  17  20
ENDBRANCH   9  17
BRANCH   1  27
HETATM   27  C   UNL     1      25.651  45.945  38.633  1.00  0.00     0.180 C 
HETATM   28  C   UNL     1      24.945  46.180  37.296  1.00  0.00     0.039 C 
HETATM   29  C   UNL     1      24.950  44.805  39.376  1.00  0.00     0.039 C 
ENDBRANCH   1  27
TORSDOF 4
ENDMDL
MODEL 4
REMARK VINA RESULT:      -7.3      2.055      5.451
REMARK  4 active torsions:
REMARK  status: ('A' for Active; 'I' for Inactive)
REMARK    1  A    between atoms: C_2  and  N_3 
REMARK    2  A    between atoms: C_11  and  N_12 
REMARK    3  A    between atoms: N_12  and  C_15 
REMARK    4  A    between atoms: C_15  and  C_16 
ROOT
HETATM    1  N   UNL     1      28.687  43.549  54.630  1.00  0.00    -0.067 N 
HETATM    2  H   UNL     1      29.064  42.876  55.315  1.00  0.00     0.280 HD
HETATM    3  C   UNL     1      27.179  43.443  54.764  1.00  0.00     0.238 C 
HETATM    4  C   UNL     1      26.487  44.245  53.665  1.00  0.00     0.066 C 
HETATM    5  C   UNL     1      26.904  43.780  52.251  1.00  0.00     0.073 C 
HETATM    6  O   UNL     1      26.431  42.429  52.136  1.00  0.00    -0.339 OA
HETATM    7  C   UNL     1      26.390  41.892  50.880  1.00  0.00     0.078 A 
HETATM    8  C   UNL     1      26.411  42.653  49.705  1.00  0.00     0.006 A 
HETATM    9  C   UNL     1      26.416  44.158  49.768  1.00  0.00     0.224 C 
HETATM   10  C   UNL     1      26.194  44.658  51.203  1.00  0.00     0.076 C 
HETATM   11  C   UNL     1      26.327  40.500  50.830  1.00  0.00     0.037 A 
HETATM   12  C   UNL     1      26.340  39.843  49.602  1.00  0.00     0.003 A 
HETATM   13  C   UNL     1      26.423  40.580  48.425  1.00  0.00     0.001 A 
HETATM   14  C   UNL     1      26.464  41.975  48.473  1.00  0.00     0.012 A 
HETATM   15  C   UNL     1      28.445  43.809  52.151  1.00  0.00     0.066 C 
HETATM   16  C   UNL     1      29.102  43.008  53.276  1.00  0.00     0.238 C 
ENDROOT
BRANCH   9  17
HETATM   17  N   UNL     1      25.363  44.754  48.874  1.00  0.00    -0.063 N 
HETATM   18  H   UNL     1      25.712  45.636  48.476  1.00  0.00     0.278 HD
HETATM   19  H   UNL     1      25.219  44.155  48.049  1.00  0.00     0.278 HD
BRANCH  17  20
HETATM   20  C   UNL     1      24.038  45.070  49.481  1.00  0.00     0.274 C 
BRANCH  20  21
HETATM   21  C   UNL     1      23.734  46.508  49.337  1.00  0.00     0.004 A 
HETATM   22  C   UNL     1      22.769  47.119  48.557  1.00  0.00     0.122 A 
HETATM   23  N   UNL     1      22.888  48.465  48.781  1.00  0.00    -0.285 N 
HETATM   24  C   UNL     1      22.084  49.529  48.222  1.00  0.00     0.179 C 
HETATM   25  N   UNL     1      23.886  48.762  49.626  1.00  0.00    -0.185 NA
HETATM   26  C   UNL     1      24.381  47.583  49.988  1.00  0.00     0.149 A 
ENDBRANCH  20  21
ENDBRANCH  17  20
ENDBRANCH   9  17
BRANCH   1  27
HETATM   27  C   UNL     1      29.304  44.900  55.040  1.00  0.00     0.180 C 
HETATM   28  C   UNL     1      30.589  44.675  55.838  1.00  0.00     0.039 C 
HETATM   29  C   UNL     1      28.314  45.692  55.897  1.00  0.00     0.039 C 
ENDBRANCH   1  27
TORSDOF 4
ENDMDL
MODEL 5
REMARK VINA RESULT:      -7.3      3.785      6.621
REMARK  4 active torsions:
REMARK  status: ('A' for Active; 'I' for Inactive)
REMARK    1  A    between atoms: C_2  and  N_3 
REMARK    2  A    between atoms: C_11  and  N_12 
REMARK    3  A    between atoms: N_12  and  C_15 
REMARK    4  A    between atoms: C_15  and  C_16 
ROOT
HETATM    1  N   UNL     1      26.960  44.948  52.748  1.00  0.00    -0.067 N 
HETATM    2  H   UNL     1      27.895  44.988  53.184  1.00  0.00     0.280 HD
HETATM    3  C   UNL     1      27.204  44.422  51.345  1.00  0.00     0.238 C 
HETATM    4  C   UNL     1      25.925  44.500  50.516  1.00  0.00     0.066 C 
HETATM    5  C   UNL     1      25.372  45.941  50.428  1.00  0.00     0.073 C 
HETATM    6  O   UNL     1      26.369  46.692  49.719  1.00  0.00    -0.339 OA
HETATM    7  C   UNL     1      25.995  47.913  49.231  1.00  0.00     0.078 A 
HETATM    8  C   UNL     1      24.663  48.303  49.046  1.00  0.00     0.006 A 
HETATM    9  C   UNL     1      23.538  47.343  49.325  1.00  0.00     0.224 C 
HETATM   10  C   UNL     1      24.067  45.929  49.609  1.00  0.00     0.076 C 
HETATM   11  C   UNL     1      27.044  48.777  48.920  1.00  0.00     0.037 A 
HETATM   12  C   UNL     1      26.777  50.067  48.472  1.00  0.00     0.003 A 
HETATM   13  C   UNL     1      25.461  50.495  48.340  1.00  0.00     0.001 A 
HETATM   14  C   UNL     1      24.409  49.624  48.630  1.00  0.00     0.012 A 
HETATM   15  C   UNL     1      25.208  46.501  51.858  1.00  0.00     0.066 C 
HETATM   16  C   UNL     1      26.505  46.392  52.662  1.00  0.00     0.238 C 
ENDROOT
BRANCH   9  17
HETATM   17  N   UNL     1      22.565  47.280  48.179  1.00  0.00    -0.063 N 
HETATM   18  H   UNL     1      22.735  48.069  47.542  1.00  0.00     0.278 HD
HETATM   19  H   UNL     1      22.756  46.452  47.598  1.00  0.00     0.278 HD
BRANCH  17  20
HETATM   20  C   UNL     1      21.110  47.317  48.505  1.00  0.00     0.274 C 
BRANCH  20  21
HETATM   21  C   UNL     1      20.634  48.712  48.580  1.00  0.00     0.004 A 
HETATM   22  C   UNL     1      19.905  49.331  49.581  1.00  0.00     0.122 A 
HETATM   23  N   UNL     1      19.726  50.629  49.180  1.00  0.00    -0.285 N 
HETATM   24  C   UNL     1      19.053  51.689  49.896  1.00  0.00     0.179 C 
HETATM   25  N   UNL     1      20.260  50.877  47.975  1.00  0.00    -0.185 NA
HETATM   26  C   UNL     1      20.835  49.732  47.622  1.00  0.00     0.149 A 
ENDBRANCH  20  21
ENDBRANCH  17  20
ENDBRANCH   9  17
BRANCH   1  27
HETATM   27  C   UNL     1      26.142  44.031  53.676  1.00  0.00     0.180 C 
HETATM   28  C   UNL     1      25.394  44.864  54.718  1.00  0.00     0.039 C 
HETATM   29  C   UNL     1      27.068  43.046  54.393  1.00  0.00     0.039 C 
ENDBRANCH   1  27
TORSDOF 4
ENDMDL
MODEL 6
REMARK VINA RESULT:      -7.2      1.867      5.232
REMARK  4 active torsions:
REMARK  status: ('A' for Active; 'I' for Inactive)
REMARK    1  A    between atoms: C_2  and  N_3 
REMARK    2  A    between atoms: C_11  and  N_12 
REMARK    3  A    between atoms: N_12  and  C_15 
REMARK    4  A    between atoms: C_15  and  C_16 
ROOT
HETATM    1  N   UNL     1      29.241  43.228  54.689  1.00  0.00    -0.067 N 
HETATM    2  H   UNL     1      29.608  42.507  55.330  1.00  0.00     0.280 HD
HETATM    3  C   UNL     1      27.737  43.201  54.888  1.00  0.00     0.238 C 
HETATM    4  C   UNL     1      27.046  44.087  53.853  1.00  0.00     0.066 C 
HETATM    5  C   UNL     1      27.375  43.658  52.405  1.00  0.00     0.073 C 
HETATM    6  O   UNL     1      26.819  42.343  52.258  1.00  0.00    -0.339 OA
HETATM    7  C   UNL     1      26.692  41.861  50.985  1.00  0.00     0.078 A 
HETATM    8  C   UNL     1      26.707  42.669  49.842  1.00  0.00     0.006 A 
HETATM    9  C   UNL     1      26.803  44.167  49.963  1.00  0.00     0.224 C 
HETATM   10  C   UNL     1      26.672  44.618  51.426  1.00  0.00     0.076 C 
HETATM   11  C   UNL     1      26.546  40.478  50.883  1.00  0.00     0.037 A 
HETATM   12  C   UNL     1      26.468  39.874  49.631  1.00  0.00     0.003 A 
HETATM   13  C   UNL     1      26.543  40.653  48.482  1.00  0.00     0.001 A 
HETATM   14  C   UNL     1      26.668  42.040  48.583  1.00  0.00     0.012 A 
HETATM   15  C   UNL     1      28.909  43.604  52.236  1.00  0.00     0.066 C 
HETATM   16  C   UNL     1      29.566  42.721  53.298  1.00  0.00     0.238 C 
ENDROOT
BRANCH   9  17
HETATM   17  N   UNL     1      25.749  44.859  49.142  1.00  0.00    -0.063 N 
HETATM   18  H   UNL     1      26.201  45.420  48.408  1.00  0.00     0.278 HD
HETATM   19  H   UNL     1      25.200  44.165  48.614  1.00  0.00     0.278 HD
BRANCH  17  20
HETATM   20  C   UNL     1      24.814  45.780  49.851  1.00  0.00     0.274 C 
BRANCH  20  21
HETATM   21  C   UNL     1      25.135  47.185  49.532  1.00  0.00     0.004 A 
HETATM   22  C   UNL     1      26.373  47.778  49.359  1.00  0.00     0.122 A 
HETATM   23  N   UNL     1      26.133  49.095  49.069  1.00  0.00    -0.285 N 
HETATM   24  C   UNL     1      27.102  50.126  48.775  1.00  0.00     0.179 C 
HETATM   25  N   UNL     1      24.826  49.396  49.078  1.00  0.00    -0.185 NA
HETATM   26  C   UNL     1      24.218  48.241  49.327  1.00  0.00     0.149 A 
ENDBRANCH  20  21
ENDBRANCH  17  20
ENDBRANCH   9  17
BRANCH   1  27
HETATM   27  C   UNL     1      29.953  44.523  55.124  1.00  0.00     0.180 C 
HETATM   28  C   UNL     1      31.142  44.196  56.028  1.00  0.00     0.039 C 
HETATM   29  C   UNL     1      28.980  45.429  55.883  1.00  0.00     0.039 C 
ENDBRANCH   1  27
TORSDOF 4
ENDMDL
MODEL 7
REMARK VINA RESULT:      -7.1     17.184     19.939
REMARK  4 active torsions:
REMARK  status: ('A' for Active; 'I' for Inactive)
REMARK    1  A    between atoms: C_2  and  N_3 
REMARK    2  A    between atoms: C_11  and  N_12 
REMARK    3  A    between atoms: N_12  and  C_15 
REMARK    4  A    between atoms: C_15  and  C_16 
ROOT
HETATM    1  N   UNL     1      38.651  50.025  66.623  1.00  0.00    -0.067 N 
HETATM    2  H   UNL     1      39.531  50.550  66.741  1.00  0.00     0.280 HD
HETATM    3  C   UNL     1      38.733  48.891  67.630  1.00  0.00     0.238 C 
HETATM    4  C   UNL     1      37.579  47.913  67.427  1.00  0.00     0.066 C 
HETATM    5  C   UNL     1      37.557  47.322  65.998  1.00  0.00     0.073 C 
HETATM    6  O   UNL     1      38.768  46.561  65.879  1.00  0.00    -0.339 OA
HETATM    7  C   UNL     1      38.849  45.684  64.834  1.00  0.00     0.078 A 
HETATM    8  C   UNL     1      37.738  45.212  64.125  1.00  0.00     0.006 A 
HETATM    9  C   UNL     1      36.344  45.613  64.531  1.00  0.00     0.224 C 
HETATM   10  C   UNL     1      36.348  46.377  65.863  1.00  0.00     0.076 C 
HETATM   11  C   UNL     1      40.138  45.271  64.500  1.00  0.00     0.037 A 
HETATM   12  C   UNL     1      40.343  44.424  63.414  1.00  0.00     0.003 A 
HETATM   13  C   UNL     1      39.257  43.995  62.659  1.00  0.00     0.001 A 
HETATM   14  C   UNL     1      37.963  44.389  63.005  1.00  0.00     0.012 A 
HETATM   15  C   UNL     1      37.561  48.483  64.978  1.00  0.00     0.066 C 
HETATM   16  C   UNL     1      38.721  49.448  65.223  1.00  0.00     0.238 C 
ENDROOT
BRANCH   9  17
HETATM   17  N   UNL     1      35.437  44.419  64.655  1.00  0.00    -0.063 N 
HETATM   18  H   UNL     1      34.461  44.735  64.724  1.00  0.00     0.278 HD
HETATM   19  H   UNL     1      35.453  43.870  63.783  1.00  0.00     0.278 HD
BRANCH  17  20
HETATM   20  C   UNL     1      35.657  43.500  65.809  1.00  0.00     0.274 C 
BRANCH  20  21
HETATM   21  C   UNL     1      34.383  43.232  66.505  1.00  0.00     0.004 A 
HETATM   22  C   UNL     1      34.105  43.274  67.860  1.00  0.00     0.122 A 
HETATM   23  N   UNL     1      32.779  42.956  67.991  1.00  0.00    -0.285 N 
HETATM   24  C   UNL     1      32.001  42.894  69.208  1.00  0.00     0.179 C 
HETATM   25  N   UNL     1      32.194  42.680  66.816  1.00  0.00    -0.185 NA
HETATM   26  C   UNL     1      33.150  42.874  65.913  1.00  0.00     0.149 A 
ENDBRANCH  20  21
ENDBRANCH  17  20
ENDBRANCH   9  17
BRANCH   1  27
HETATM   27  C   UNL     1      37.545  51.067  66.875  1.00  0.00     0.180 C 
HETATM   28  C   UNL     1      37.954  52.423  66.298  1.00  0.00     0.039 C 
HETATM   29  C   UNL     1      37.294  51.216  68.377  1.00  0.00     0.039 C 
ENDBRANCH   1  27
TORSDOF 4
ENDMDL
MODEL 8
REMARK VINA RESULT:      -7.1     10.805     12.283
REMARK  4 active torsions:
REMARK  status: ('A' for Active; 'I' for Inactive)
REMARK    1  A    between atoms: C_2  and  N_3 
REMARK    2  A    between atoms: C_11  and  N_12 
REMARK    3  A    between atoms: N_12  and  C_15 
REMARK    4  A    between atoms: C_15  and  C_16 
ROOT
HETATM    1  N   UNL     1      26.905  45.018  39.011  1.00  0.00    -0.067 N 
HETATM    2  H   UNL     1      27.207  44.098  38.655  1.00  0.00     0.280 HD
HETATM    3  C   UNL     1      27.391  46.017  37.976  1.00  0.00     0.238 C 
HETATM    4  C   UNL     1      27.186  47.445  38.475  1.00  0.00     0.066 C 
HETATM    5  C   UNL     1      27.913  47.707  39.813  1.00  0.00     0.073 C 
HETATM    6  O   UNL     1      29.312  47.569  39.523  1.00  0.00    -0.339 OA
HETATM    7  C   UNL     1      30.189  48.056  40.452  1.00  0.00     0.078 A 
HETATM    8  C   UNL     1      29.841  48.981  41.443  1.00  0.00     0.006 A 
HETATM    9  C   UNL     1      28.450  49.556  41.499  1.00  0.00     0.224 C 
HETATM   10  C   UNL     1      27.629  49.152  40.265  1.00  0.00     0.076 C 
HETATM   11  C   UNL     1      31.490  47.563  40.359  1.00  0.00     0.037 A 
HETATM   12  C   UNL     1      32.451  47.945  41.291  1.00  0.00     0.003 A 
HETATM   13  C   UNL     1      32.108  48.816  42.320  1.00  0.00     0.001 A 
HETATM   14  C   UNL     1      30.812  49.327  42.402  1.00  0.00     0.012 A 
HETATM   15  C   UNL     1      27.479  46.634  40.836  1.00  0.00     0.066 C 
HETATM   16  C   UNL     1      27.685  45.219  40.295  1.00  0.00     0.238 C 
ENDROOT
BRANCH   9  17
HETATM   17  N   UNL     1      28.473  51.057  41.602  1.00  0.00    -0.063 N 
HETATM   18  H   UNL     1      27.581  51.387  41.994  1.00  0.00     0.278 HD
HETATM   19  H   UNL     1      29.170  51.353  42.299  1.00  0.00     0.278 HD
BRANCH  17  20
HETATM   20  C   UNL     1      28.685  51.832  40.345  1.00  0.00     0.274 C 
BRANCH  20  21
HETATM   21  C   UNL     1      30.070  52.339  40.280  1.00  0.00     0.004 A 
HETATM   22  C   UNL     1      31.163  51.802  39.624  1.00  0.00     0.122 A 
HETATM   23  N   UNL     1      32.211  52.651  39.863  1.00  0.00    -0.285 N 
HETATM   24  C   UNL     1      33.566  52.545  39.368  1.00  0.00     0.179 C 
HETATM   25  N   UNL     1      31.874  53.679  40.656  1.00  0.00    -0.185 NA
HETATM   26  C   UNL     1      30.576  53.512  40.886  1.00  0.00     0.149 A 
ENDBRANCH  20  21
ENDBRANCH  17  20
ENDBRANCH   9  17
BRANCH   1  27
HETATM   27  C   UNL     1      25.377  44.892  39.155  1.00  0.00     0.180 C 
HETATM   28  C   UNL     1      25.030  43.809  40.178  1.00  0.00     0.039 C 
HETATM   29  C   UNL     1      24.749  44.529  37.808  1.00  0.00     0.039 C 
ENDBRANCH   1  27
TORSDOF 4
ENDMDL
MODEL 9
REMARK VINA RESULT:      -7.0     12.212     14.580
REMARK  4 active torsions:
REMARK  status: ('A' for Active; 'I' for Inactive)
REMARK    1  A    between atoms: C_2  and  N_3 
REMARK    2  A    between atoms: C_11  and  N_12 
REMARK    3  A    between atoms: N_12  and  C_15 
REMARK    4  A    between atoms: C_15  and  C_16 
ROOT
HETATM    1  N   UNL     1      36.855  51.797  42.035  1.00  0.00    -0.067 N 
HETATM    2  H   UNL     1      37.435  52.627  41.832  1.00  0.00     0.280 HD
HETATM    3  C   UNL     1      36.475  51.242  40.674  1.00  0.00     0.238 C 
HETATM    4  C   UNL     1      35.448  50.122  40.823  1.00  0.00     0.066 C 
HETATM    5  C   UNL     1      34.170  50.594  41.554  1.00  0.00     0.073 C 
HETATM    6  O   UNL     1      33.580  51.583  40.696  1.00  0.00    -0.339 OA
HETATM    7  C   UNL     1      32.284  51.931  40.953  1.00  0.00     0.078 A 
HETATM    8  C   UNL     1      31.404  51.154  41.715  1.00  0.00     0.006 A 
HETATM    9  C   UNL     1      31.836  49.817  42.257  1.00  0.00     0.224 C 
HETATM   10  C   UNL     1      33.204  49.402  41.695  1.00  0.00     0.076 C 
HETATM   11  C   UNL     1      31.873  53.144  40.399  1.00  0.00     0.037 A 
HETATM   12  C   UNL     1      30.590  53.625  40.646  1.00  0.00     0.003 A 
HETATM   13  C   UNL     1      29.722  52.897  41.452  1.00  0.00     0.001 A 
HETATM   14  C   UNL     1      30.124  51.673  41.989  1.00  0.00     0.012 A 
HETATM   15  C   UNL     1      34.573  51.236  42.900  1.00  0.00     0.066 C 
HETATM   16  C   UNL     1      35.612  52.342  42.712  1.00  0.00     0.238 C 
ENDROOT
BRANCH   9  17
HETATM   17  N   UNL     1      30.832  48.741  41.945  1.00  0.00    -0.063 N 
HETATM   18  H   UNL     1      30.971  47.947  42.585  1.00  0.00     0.278 HD
HETATM   19  H   UNL     1      29.882  49.069  42.167  1.00  0.00     0.278 HD
BRANCH  17  20
HETATM   20  C   UNL     1      30.838  48.168  40.568  1.00  0.00     0.274 C 
BRANCH  20  21
HETATM   21  C   UNL     1      29.980  48.971  39.673  1.00  0.00     0.004 A 
HETATM   22  C   UNL     1      28.604  49.107  39.678  1.00  0.00     0.122 A 
HETATM   23  N   UNL     1      28.298  49.967  38.656  1.00  0.00    -0.285 N 
HETATM   24  C   UNL     1      26.992  50.452  38.270  1.00  0.00     0.179 C 
HETATM   25  N   UNL     1      29.382  50.365  37.973  1.00  0.00    -0.185 NA
HETATM   26  C   UNL     1      30.403  49.791  38.601  1.00  0.00     0.149 A 
ENDBRANCH  20  21
ENDBRANCH  17  20
ENDBRANCH   9  17
BRANCH   1  27
HETATM   27  C   UNL     1      37.761  50.898  42.897  1.00  0.00     0.180 C 
HETATM   28  C   UNL     1      38.044  51.567  44.243  1.00  0.00     0.039 C 
HETATM   29  C   UNL     1      39.086  50.640  42.177  1.00  0.00     0.039 C 
ENDBRANCH   1  27
TORSDOF 4
ENDMDL
MODEL 10
REMARK VINA RESULT:      -6.9      1.822      6.312
REMARK  4 active torsions:
REMARK  status: ('A' for Active; 'I' for Inactive)
REMARK    1  A    between atoms: C_2  and  N_3 
REMARK    2  A    between atoms: C_11  and  N_12 
REMARK    3  A    between atoms: N_12  and  C_15 
REMARK    4  A    between atoms: C_15  and  C_16 
ROOT
HETATM    1  N   UNL     1      24.834  45.424  50.307  1.00  0.00    -0.067 N 
HETATM    2  H   UNL     1      24.526  46.384  50.527  1.00  0.00     0.280 HD
HETATM    3  C   UNL     1      24.228  44.558  51.396  1.00  0.00     0.238 C 
HETATM    4  C   UNL     1      24.767  43.133  51.306  1.00  0.00     0.066 C 
HETATM    5  C   UNL     1      26.308  43.082  51.416  1.00  0.00     0.073 C 
HETATM    6  O   UNL     1      26.614  43.556  52.736  1.00  0.00    -0.339 OA
HETATM    7  C   UNL     1      27.876  43.318  53.203  1.00  0.00     0.078 A 
HETATM    8  C   UNL     1      28.737  42.353  52.666  1.00  0.00     0.006 A 
HETATM    9  C   UNL     1      28.277  41.454  51.549  1.00  0.00     0.224 C 
HETATM   10  C   UNL     1      26.774  41.620  51.281  1.00  0.00     0.076 C 
HETATM   11  C   UNL     1      28.275  44.114  54.276  1.00  0.00     0.037 A 
HETATM   12  C   UNL     1      29.562  43.998  54.793  1.00  0.00     0.003 A 
HETATM   13  C   UNL     1      30.452  43.088  54.232  1.00  0.00     0.001 A 
HETATM   14  C   UNL     1      30.048  42.274  53.173  1.00  0.00     0.012 A 
HETATM   15  C   UNL     1      26.915  44.033  50.361  1.00  0.00     0.066 C 
HETATM   16  C   UNL     1      26.341  45.446  50.473  1.00  0.00     0.238 C 
ENDROOT
BRANCH   9  17
HETATM   17  N   UNL     1      28.564  40.007  51.846  1.00  0.00    -0.063 N 
HETATM   18  H   UNL     1      29.089  39.937  52.728  1.00  0.00     0.278 HD
HETATM   19  H   UNL     1      27.687  39.506  52.044  1.00  0.00     0.278 HD
BRANCH  17  20
HETATM   20  C   UNL     1      29.346  39.236  50.837  1.00  0.00     0.274 C 
BRANCH  20  21
HETATM   21  C   UNL     1      28.533  38.997  49.628  1.00  0.00     0.004 A 
HETATM   22  C   UNL     1      28.650  39.569  48.373  1.00  0.00     0.122 A 
HETATM   23  N   UNL     1      27.667  39.008  47.601  1.00  0.00    -0.285 N 
HETATM   24  C   UNL     1      27.393  39.254  46.203  1.00  0.00     0.179 C 
HETATM   25  N   UNL     1      26.905  38.141  48.283  1.00  0.00    -0.185 NA
HETATM   26  C   UNL     1      27.442  38.107  49.499  1.00  0.00     0.149 A 
ENDBRANCH  20  21
ENDBRANCH  17  20
ENDBRANCH   9  17
BRANCH   1  27
HETATM   27  C   UNL     1      24.310  45.172  48.880  1.00  0.00     0.180 C 
HETATM   28  C   UNL     1      23.175  46.144  48.554  1.00  0.00     0.039 C 
HETATM   29  C   UNL     1      23.794  43.737  48.754  1.00  0.00     0.039 C 
ENDBRANCH   1  27
TORSDOF 4
ENDMDL
