MODEL 1
REMARK VINA RESULT:      -9.5      0.000      0.000
REMARK  7 active torsions:
REMARK  status: ('A' for Active; 'I' for Inactive)
REMARK    1  A    between atoms: C_2  and  C_3 
REMARK    2  A    between atoms: C_3  and  N_4 
REMARK       I    between atoms: N_4  and  C_5 
REMARK    3  A    between atoms: C_5  and  C_6 
REMARK    4  A    between atoms: C_7  and  N_8 
REMARK    5  A    between atoms: N_9  and  N_10 
REMARK    6  A    between atoms: C_11  and  C_12 
REMARK    7  A    between atoms: C_13  and  O_14 
ROOT
HETATM    1  C   UNL     1      27.287  45.681  53.806  1.00  0.00     0.110 C 
HETATM    2  C   UNL     1      26.251  46.466  53.332  1.00  0.00     0.143 C 
HETATM    3  N   UNL     1      25.817  45.950  52.115  1.00  0.00    -0.197 N 
HETATM    4  C   UNL     1      26.394  44.697  51.956  1.00  0.00     0.183 A 
HETATM    5  C   UNL     1      27.347  44.549  52.961  1.00  0.00     0.125 A 
HETATM    6  N   UNL     1      28.146  43.452  53.027  1.00  0.00    -0.242 NA
HETATM    7  C   UNL     1      27.884  42.509  52.107  1.00  0.00     0.086 A 
HETATM    8  C   UNL     1      26.889  42.667  51.108  1.00  0.00     0.088 A 
HETATM    9  N   UNL     1      26.139  43.776  50.995  1.00  0.00    -0.225 NA
HETATM   10  C   UNL     1      28.615  41.328  52.144  1.00  0.00     0.034 A 
HETATM   11  C   UNL     1      28.386  40.297  51.231  1.00  0.00     0.002 A 
HETATM   12  C   UNL     1      27.410  40.450  50.257  1.00  0.00     0.002 A 
HETATM   13  C   UNL     1      26.673  41.633  50.204  1.00  0.00     0.034 A 
ENDROOT
BRANCH   3  14
HETATM   14  N   UNL     1      25.046  46.730  51.282  1.00  0.00    -0.176 NA
HETATM   15  C   UNL     1      25.612  47.311  50.278  1.00  0.00     0.153 C 
BRANCH  15  16
HETATM   16  C   UNL     1      24.853  48.313  49.490  1.00  0.00     0.017 A 
HETATM   17  C   UNL     1      25.502  49.289  48.719  1.00  0.00     0.077 A 
HETATM   18  C   UNL     1      24.768  50.164  47.923  1.00  0.00     0.039 A 
HETATM   19  C   UNL     1      23.377  50.067  47.889  1.00  0.00     0.022 A 
HETATM   20  C   UNL     1      22.732  49.097  48.658  1.00  0.00     0.012 A 
HETATM   21 BR   UNL     1      20.846  48.962  48.597  1.00  0.00    -0.051 Br
HETATM   22  C   UNL     1      23.459  48.215  49.459  1.00  0.00     0.034 A 
BRANCH  17  23
HETATM   23  O   UNL     1      26.863  49.422  48.674  1.00  0.00    -0.360 OA
HETATM   24  H   UNL     1      27.124  49.393  47.726  1.00  0.00     0.217 HD
ENDBRANCH  17  23
ENDBRANCH  15  16
ENDBRANCH   3  14
BRANCH   2  25
HETATM   25  N   UNL     1      25.751  47.631  53.826  1.00  0.00    -0.383 N 
HETATM   26  H   UNL     1      24.999  48.093  53.307  1.00  0.00     0.157 HD
HETATM   27  H   UNL     1      26.386  48.297  54.267  1.00  0.00     0.157 HD
ENDBRANCH   2  25
BRANCH   1  28
HETATM   28  C   UNL     1      28.124  46.044  54.930  1.00  0.00     0.258 C 
HETATM   29  N   UNL     1      28.882  44.995  55.412  1.00  0.00    -0.352 N 
HETATM   30  H   UNL     1      28.768  44.101  54.953  1.00  0.00     0.163 HD
HETATM   31  O   UNL     1      28.259  47.206  55.302  1.00  0.00    -0.267 OA
BRANCH  29  32
HETATM   32  C   UNL     1      30.131  45.248  56.117  1.00  0.00     0.080 C 
HETATM   33  C   UNL     1      31.029  44.006  56.056  1.00  0.00     0.032 C 
BRANCH  32  34
HETATM   34  C   UNL     1      29.872  45.623  57.583  1.00  0.00     0.020 C 
HETATM   35  C   UNL     1      30.989  45.177  58.514  1.00  0.00     0.007 C 
ENDBRANCH  32  34
ENDBRANCH  29  32
ENDBRANCH   1  28
TORSDOF 7
ENDMDL
MODEL 2
REMARK VINA RESULT:      -9.4      3.589      8.283
REMARK  7 active torsions:
REMARK  status: ('A' for Active; 'I' for Inactive)
REMARK    1  A    between atoms: C_2  and  C_3 
REMARK    2  A    between atoms: C_3  and  N_4 
REMARK       I    between atoms: N_4  and  C_5 
REMARK    3  A    between atoms: C_5  and  C_6 
REMARK    4  A    between atoms: C_7  and  N_8 
REMARK    5  A    between atoms: N_9  and  N_10 
REMARK    6  A    between atoms: C_11  and  C_12 
REMARK    7  A    between atoms: C_13  and  O_14 
ROOT
HETATM    1  C   UNL     1      24.699  46.185  50.031  1.00  0.00     0.110 C 
HETATM    2  C   UNL     1      24.968  44.974  49.416  1.00  0.00     0.143 C 
HETATM    3  N   UNL     1      26.031  44.363  50.073  1.00  0.00    -0.197 N 
HETATM    4  C   UNL     1      26.255  45.057  51.254  1.00  0.00     0.183 A 
HETATM    5  C   UNL     1      25.481  46.215  51.208  1.00  0.00     0.125 A 
HETATM    6  N   UNL     1      25.543  47.151  52.190  1.00  0.00    -0.242 NA
HETATM    7  C   UNL     1      26.335  46.829  53.227  1.00  0.00     0.086 A 
HETATM    8  C   UNL     1      27.094  45.630  53.268  1.00  0.00     0.088 A 
HETATM    9  N   UNL     1      27.090  44.730  52.270  1.00  0.00    -0.225 NA
HETATM   10  C   UNL     1      26.406  47.705  54.303  1.00  0.00     0.034 A 
HETATM   11  C   UNL     1      27.194  47.427  55.421  1.00  0.00     0.002 A 
HETATM   12  C   UNL     1      27.933  46.253  55.463  1.00  0.00     0.002 A 
HETATM   13  C   UNL     1      27.876  45.368  54.386  1.00  0.00     0.034 A 
ENDROOT
BRANCH   3  14
HETATM   14  N   UNL     1      26.708  43.333  49.459  1.00  0.00    -0.176 NA
HETATM   15  C   UNL     1      26.534  42.131  49.897  1.00  0.00     0.153 C 
BRANCH  15  16
HETATM   16  C   UNL     1      27.399  41.037  49.391  1.00  0.00     0.017 A 
HETATM   17  C   UNL     1      27.679  40.891  48.024  1.00  0.00     0.077 A 
HETATM   18  C   UNL     1      28.559  39.907  47.584  1.00  0.00     0.039 A 
HETATM   19  C   UNL     1      29.172  39.063  48.510  1.00  0.00     0.022 A 
HETATM   20  C   UNL     1      28.893  39.207  49.869  1.00  0.00     0.012 A 
HETATM   21 BR   UNL     1      29.736  38.067  51.120  1.00  0.00    -0.051 Br
HETATM   22  C   UNL     1      28.010  40.191  50.320  1.00  0.00     0.034 A 
BRANCH  17  23
HETATM   23  O   UNL     1      27.143  41.703  47.062  1.00  0.00    -0.360 OA
HETATM   24  H   UNL     1      26.197  41.837  47.293  1.00  0.00     0.217 HD
ENDBRANCH  17  23
ENDBRANCH  15  16
ENDBRANCH   3  14
BRANCH   2  25
HETATM   25  N   UNL     1      24.431  44.438  48.286  1.00  0.00    -0.383 N 
HETATM   26  H   UNL     1      23.816  43.625  48.382  1.00  0.00     0.157 HD
HETATM   27  H   UNL     1      24.995  44.403  47.437  1.00  0.00     0.157 HD
ENDBRANCH   2  25
BRANCH   1  28
HETATM   28  C   UNL     1      23.809  47.187  49.483  1.00  0.00     0.258 C 
HETATM   29  N   UNL     1      24.351  48.456  49.469  1.00  0.00    -0.352 N 
HETATM   30  H   UNL     1      25.285  48.557  49.844  1.00  0.00     0.163 HD
HETATM   31  O   UNL     1      22.745  46.897  48.942  1.00  0.00    -0.267 OA
BRANCH  29  32
HETATM   32  C   UNL     1      23.890  49.446  48.506  1.00  0.00     0.080 C 
HETATM   33  C   UNL     1      25.089  50.183  47.895  1.00  0.00     0.032 C 
BRANCH  32  34
HETATM   34  C   UNL     1      22.946  50.460  49.166  1.00  0.00     0.020 C 
HETATM   35  C   UNL     1      21.850  50.945  48.230  1.00  0.00     0.007 C 
ENDBRANCH  32  34
ENDBRANCH  29  32
ENDBRANCH   1  28
TORSDOF 7
ENDMDL
MODEL 3
REMARK VINA RESULT:      -9.4      1.510      2.041
REMARK  7 active torsions:
REMARK  status: ('A' for Active; 'I' for Inactive)
REMARK    1  A    between atoms: C_2  and  C_3 
REMARK    2  A    between atoms: C_3  and  N_4 
REMARK       I    between atoms: N_4  and  C_5 
REMARK    3  A    between atoms: C_5  and  C_6 
REMARK    4  A    between atoms: C_7  and  N_8 
REMARK    5  A    between atoms: N_9  and  N_10 
REMARK    6  A    between atoms: C_11  and  C_12 
REMARK    7  A    between atoms: C_13  and  O_14 
ROOT
HETATM    1  C   UNL     1      26.948  43.761  52.781  1.00  0.00     0.110 C 
HETATM    2  C   UNL     1      26.109  44.769  52.340  1.00  0.00     0.143 C 
HETATM    3  N   UNL     1      26.039  44.720  50.951  1.00  0.00    -0.197 N 
HETATM    4  C   UNL     1      26.615  43.526  50.540  1.00  0.00     0.183 A 
HETATM    5  C   UNL     1      27.232  42.958  51.653  1.00  0.00     0.125 A 
HETATM    6  N   UNL     1      27.958  41.814  51.557  1.00  0.00    -0.242 NA
HETATM    7  C   UNL     1      27.959  41.248  50.338  1.00  0.00     0.086 A 
HETATM    8  C   UNL     1      27.301  41.829  49.222  1.00  0.00     0.088 A 
HETATM    9  N   UNL     1      26.636  42.994  49.294  1.00  0.00    -0.225 NA
HETATM   10  C   UNL     1      28.627  40.042  50.169  1.00  0.00     0.034 A 
HETATM   11  C   UNL     1      28.656  39.388  48.936  1.00  0.00     0.002 A 
HETATM   12  C   UNL     1      28.009  39.953  47.847  1.00  0.00     0.002 A 
HETATM   13  C   UNL     1      27.340  41.168  48.001  1.00  0.00     0.034 A 
ENDROOT
BRANCH   3  14
HETATM   14  N   UNL     1      25.558  45.807  50.255  1.00  0.00    -0.176 NA
HETATM   15  C   UNL     1      26.378  46.752  49.937  1.00  0.00     0.153 C 
BRANCH  15  16
HETATM   16  C   UNL     1      25.852  48.018  49.372  1.00  0.00     0.017 A 
HETATM   17  C   UNL     1      26.695  48.961  48.767  1.00  0.00     0.077 A 
HETATM   18  C   UNL     1      26.167  50.102  48.170  1.00  0.00     0.039 A 
HETATM   19  C   UNL     1      24.787  50.307  48.171  1.00  0.00     0.022 A 
HETATM   20  C   UNL     1      23.948  49.370  48.776  1.00  0.00     0.012 A 
HETATM   21 BR   UNL     1      22.077  49.647  48.762  1.00  0.00    -0.051 Br
HETATM   22  C   UNL     1      24.470  48.223  49.376  1.00  0.00     0.034 A 
BRANCH  17  23
HETATM   23  O   UNL     1      28.053  48.812  48.696  1.00  0.00    -0.360 OA
HETATM   24  H   UNL     1      28.410  49.622  48.268  1.00  0.00     0.217 HD
ENDBRANCH  17  23
ENDBRANCH  15  16
ENDBRANCH   3  14
BRANCH   2  25
HETATM   25  N   UNL     1      25.507  45.766  53.044  1.00  0.00    -0.383 N 
HETATM   26  H   UNL     1      26.095  46.371  53.624  1.00  0.00     0.157 HD
HETATM   27  H   UNL     1      24.591  45.596  53.461  1.00  0.00     0.157 HD
ENDBRANCH   2  25
BRANCH   1  28
HETATM   28  C   UNL     1      27.428  43.650  54.142  1.00  0.00     0.258 C 
HETATM   29  N   UNL     1      28.804  43.616  54.239  1.00  0.00    -0.352 N 
HETATM   30  H   UNL     1      29.324  43.658  53.372  1.00  0.00     0.163 HD
HETATM   31  O   UNL     1      26.680  43.740  55.113  1.00  0.00    -0.267 OA
BRANCH  29  32
HETATM   32  C   UNL     1      29.470  44.055  55.458  1.00  0.00     0.080 C 
HETATM   33  C   UNL     1      29.495  45.587  55.521  1.00  0.00     0.032 C 
BRANCH  32  34
HETATM   34  C   UNL     1      30.906  43.515  55.527  1.00  0.00     0.020 C 
HETATM   35  C   UNL     1      31.403  43.336  56.953  1.00  0.00     0.007 C 
ENDBRANCH  32  34
ENDBRANCH  29  32
ENDBRANCH   1  28
TORSDOF 7
ENDMDL
MODEL 4
REMARK VINA RESULT:      -9.1      3.459      7.872
REMARK  7 active torsions:
REMARK  status: ('A' for Active; 'I' for Inactive)
REMARK    1  A    between atoms: C_2  and  C_3 
REMARK    2  A    between atoms: C_3  and  N_4 
REMARK       I    between atoms: N_4  and  C_5 
REMARK    3  A    between atoms: C_5  and  C_6 
REMARK    4  A    between atoms: C_7  and  N_8 
REMARK    5  A    between atoms: N_9  and  N_10 
REMARK    6  A    between atoms: C_11  and  C_12 
REMARK    7  A    between atoms: C_13  and  O_14 
ROOT
HETATM    1  C   UNL     1      26.390  43.946  52.541  1.00  0.00     0.110 C 
HETATM    2  C   UNL     1      26.387  42.703  51.932  1.00  0.00     0.143 C 
HETATM    3  N   UNL     1      27.588  42.060  52.217  1.00  0.00    -0.197 N 
HETATM    4  C   UNL     1      28.228  42.782  53.215  1.00  0.00     0.183 A 
HETATM    5  C   UNL     1      27.529  43.976  53.378  1.00  0.00     0.125 A 
HETATM    6  N   UNL     1      27.958  44.941  54.232  1.00  0.00    -0.242 NA
HETATM    7  C   UNL     1      29.045  44.613  54.951  1.00  0.00     0.086 A 
HETATM    8  C   UNL     1      29.727  43.379  54.791  1.00  0.00     0.088 A 
HETATM    9  N   UNL     1      29.348  42.447  53.901  1.00  0.00    -0.225 NA
HETATM   10  C   UNL     1      29.513  45.521  55.894  1.00  0.00     0.034 A 
HETATM   11  C   UNL     1      30.626  45.241  56.689  1.00  0.00     0.002 A 
HETATM   12  C   UNL     1      31.290  44.032  56.535  1.00  0.00     0.002 A 
HETATM   13  C   UNL     1      30.835  43.115  55.587  1.00  0.00     0.034 A 
ENDROOT
BRANCH   3  14
HETATM   14  N   UNL     1      27.975  40.976  51.462  1.00  0.00    -0.176 NA
HETATM   15  C   UNL     1      28.303  41.166  50.228  1.00  0.00     0.153 C 
BRANCH  15  16
HETATM   16  C   UNL     1      28.525  39.997  49.342  1.00  0.00     0.017 A 
HETATM   17  C   UNL     1      29.148  38.829  49.806  1.00  0.00     0.077 A 
HETATM   18  C   UNL     1      29.269  37.716  48.979  1.00  0.00     0.039 A 
HETATM   19  C   UNL     1      28.764  37.762  47.680  1.00  0.00     0.022 A 
HETATM   20  C   UNL     1      28.147  38.925  47.217  1.00  0.00     0.012 A 
HETATM   21 BR   UNL     1      27.453  38.977  45.459  1.00  0.00    -0.051 Br
HETATM   22  C   UNL     1      28.021  40.046  48.040  1.00  0.00     0.034 A 
BRANCH  17  23
HETATM   23  O   UNL     1      29.635  38.697  51.078  1.00  0.00    -0.360 OA
HETATM   24  H   UNL     1      28.939  38.248  51.608  1.00  0.00     0.217 HD
ENDBRANCH  17  23
ENDBRANCH  15  16
ENDBRANCH   3  14
BRANCH   2  25
HETATM   25  N   UNL     1      25.476  42.157  51.081  1.00  0.00    -0.383 N 
HETATM   26  H   UNL     1      24.492  42.414  51.197  1.00  0.00     0.157 HD
HETATM   27  H   UNL     1      25.594  41.189  50.783  1.00  0.00     0.157 HD
ENDBRANCH   2  25
BRANCH   1  28
HETATM   28  C   UNL     1      25.404  44.973  52.280  1.00  0.00     0.258 C 
HETATM   29  N   UNL     1      25.802  45.890  51.328  1.00  0.00    -0.352 N 
HETATM   30  H   UNL     1      26.723  45.762  50.930  1.00  0.00     0.163 HD
HETATM   31  O   UNL     1      24.268  44.929  52.747  1.00  0.00    -0.267 OA
BRANCH  29  32
HETATM   32  C   UNL     1      24.815  46.622  50.548  1.00  0.00     0.080 C 
HETATM   33  C   UNL     1      24.262  45.730  49.430  1.00  0.00     0.032 C 
BRANCH  32  34
HETATM   34  C   UNL     1      25.425  47.892  49.937  1.00  0.00     0.020 C 
HETATM   35  C   UNL     1      26.893  47.727  49.576  1.00  0.00     0.007 C 
ENDBRANCH  32  34
ENDBRANCH  29  32
ENDBRANCH   1  28
TORSDOF 7
ENDMDL
MODEL 5
REMARK VINA RESULT:      -9.0      2.191      5.122
REMARK  7 active torsions:
REMARK  status: ('A' for Active; 'I' for Inactive)
REMARK    1  A    between atoms: C_2  and  C_3 
REMARK    2  A    between atoms: C_3  and  N_4 
REMARK       I    between atoms: N_4  and  C_5 
REMARK    3  A    between atoms: C_5  and  C_6 
REMARK    4  A    between atoms: C_7  and  N_8 
REMARK    5  A    between atoms: N_9  and  N_10 
REMARK    6  A    between atoms: C_11  and  C_12 
REMARK    7  A    between atoms: C_13  and  O_14 
ROOT
HETATM    1  C   UNL     1      26.004  43.803  50.590  1.00  0.00     0.110 C 
HETATM    2  C   UNL     1      25.366  44.686  49.736  1.00  0.00     0.143 C 
HETATM    3  N   UNL     1      25.164  45.890  50.405  1.00  0.00    -0.197 N 
HETATM    4  C   UNL     1      25.907  45.853  51.577  1.00  0.00     0.183 A 
HETATM    5  C   UNL     1      26.378  44.551  51.729  1.00  0.00     0.125 A 
HETATM    6  N   UNL     1      27.077  44.172  52.831  1.00  0.00    -0.242 NA
HETATM    7  C   UNL     1      27.339  45.163  53.700  1.00  0.00     0.086 A 
HETATM    8  C   UNL     1      26.874  46.490  53.512  1.00  0.00     0.088 A 
HETATM    9  N   UNL     1      26.126  46.858  52.459  1.00  0.00    -0.225 NA
HETATM   10  C   UNL     1      28.103  44.872  54.824  1.00  0.00     0.034 A 
HETATM   11  C   UNL     1      28.429  45.855  55.760  1.00  0.00     0.002 A 
HETATM   12  C   UNL     1      27.978  47.154  55.574  1.00  0.00     0.002 A 
HETATM   13  C   UNL     1      27.204  47.457  54.454  1.00  0.00     0.034 A 
ENDROOT
BRANCH   3  14
HETATM   14  N   UNL     1      24.259  46.800  49.907  1.00  0.00    -0.176 NA
HETATM   15  C   UNL     1      24.704  47.889  49.374  1.00  0.00     0.153 C 
BRANCH  15  16
HETATM   16  C   UNL     1      23.754  48.970  49.018  1.00  0.00     0.017 A 
HETATM   17  C   UNL     1      24.084  49.962  48.081  1.00  0.00     0.077 A 
HETATM   18  C   UNL     1      23.145  50.916  47.702  1.00  0.00     0.039 A 
HETATM   19  C   UNL     1      21.865  50.885  48.255  1.00  0.00     0.022 A 
HETATM   20  C   UNL     1      21.537  49.900  49.188  1.00  0.00     0.012 A 
HETATM   21 BR   UNL     1      19.796  49.855  49.924  1.00  0.00    -0.051 Br
HETATM   22  C   UNL     1      22.473  48.938  49.574  1.00  0.00     0.034 A 
BRANCH  17  23
HETATM   23  O   UNL     1      25.306  50.035  47.471  1.00  0.00    -0.360 OA
HETATM   24  H   UNL     1      25.979  49.788  48.145  1.00  0.00     0.217 HD
ENDBRANCH  17  23
ENDBRANCH  15  16
ENDBRANCH   3  14
BRANCH   2  25
HETATM   25  N   UNL     1      24.867  44.477  48.487  1.00  0.00    -0.383 N 
HETATM   26  H   UNL     1      25.529  44.315  47.724  1.00  0.00     0.157 HD
HETATM   27  H   UNL     1      24.046  45.001  48.187  1.00  0.00     0.157 HD
ENDBRANCH   2  25
BRANCH   1  28
HETATM   28  C   UNL     1      26.174  42.392  50.310  1.00  0.00     0.258 C 
HETATM   29  N   UNL     1      27.488  41.974  50.373  1.00  0.00    -0.352 N 
HETATM   30  H   UNL     1      28.181  42.678  50.589  1.00  0.00     0.163 HD
HETATM   31  O   UNL     1      25.222  41.626  50.191  1.00  0.00    -0.267 OA
BRANCH  29  32
HETATM   32  C   UNL     1      27.808  40.585  50.672  1.00  0.00     0.080 C 
HETATM   33  C   UNL     1      28.680  40.506  51.931  1.00  0.00     0.032 C 
BRANCH  32  34
HETATM   34  C   UNL     1      28.541  39.922  49.497  1.00  0.00     0.020 C 
HETATM   35  C   UNL     1      28.384  40.690  48.194  1.00  0.00     0.007 C 
ENDBRANCH  32  34
ENDBRANCH  29  32
ENDBRANCH   1  28
TORSDOF 7
ENDMDL
MODEL 6
REMARK VINA RESULT:      -8.9      4.154      8.020
REMARK  7 active torsions:
REMARK  status: ('A' for Active; 'I' for Inactive)
REMARK    1  A    between atoms: C_2  and  C_3 
REMARK    2  A    between atoms: C_3  and  N_4 
REMARK       I    between atoms: N_4  and  C_5 
REMARK    3  A    between atoms: C_5  and  C_6 
REMARK    4  A    between atoms: C_7  and  N_8 
REMARK    5  A    between atoms: N_9  and  N_10 
REMARK    6  A    between atoms: C_11  and  C_12 
REMARK    7  A    between atoms: C_13  and  O_14 
ROOT
HETATM    1  C   UNL     1      25.111  42.678  50.697  1.00  0.00     0.110 C 
HETATM    2  C   UNL     1      25.606  43.618  51.584  1.00  0.00     0.143 C 
HETATM    3  N   UNL     1      26.716  43.083  52.232  1.00  0.00    -0.197 N 
HETATM    4  C   UNL     1      27.075  41.920  51.565  1.00  0.00     0.183 A 
HETATM    5  C   UNL     1      26.058  41.630  50.658  1.00  0.00     0.125 A 
HETATM    6  N   UNL     1      26.077  40.499  49.906  1.00  0.00    -0.242 NA
HETATM    7  C   UNL     1      27.180  39.745  50.051  1.00  0.00     0.086 A 
HETATM    8  C   UNL     1      28.219  40.073  50.960  1.00  0.00     0.088 A 
HETATM    9  N   UNL     1      28.177  41.154  51.756  1.00  0.00    -0.225 NA
HETATM   10  C   UNL     1      27.307  38.602  49.271  1.00  0.00     0.034 A 
HETATM   11  C   UNL     1      28.433  37.781  49.355  1.00  0.00     0.002 A 
HETATM   12  C   UNL     1      29.451  38.104  50.241  1.00  0.00     0.002 A 
HETATM   13  C   UNL     1      29.332  39.244  51.035  1.00  0.00     0.034 A 
ENDROOT
BRANCH   3  14
HETATM   14  N   UNL     1      27.176  43.670  53.389  1.00  0.00    -0.176 NA
HETATM   15  C   UNL     1      28.328  44.252  53.373  1.00  0.00     0.153 C 
BRANCH  15  16
HETATM   16  C   UNL     1      28.934  44.710  54.647  1.00  0.00     0.017 A 
HETATM   17  C   UNL     1      28.410  45.799  55.362  1.00  0.00     0.077 A 
HETATM   18  C   UNL     1      28.945  46.156  56.596  1.00  0.00     0.039 A 
HETATM   19  C   UNL     1      30.007  45.425  57.128  1.00  0.00     0.022 A 
HETATM   20  C   UNL     1      30.529  44.344  56.416  1.00  0.00     0.012 A 
HETATM   21 BR   UNL     1      31.961  43.349  57.148  1.00  0.00    -0.051 Br
HETATM   22  C   UNL     1      29.999  43.978  55.177  1.00  0.00     0.034 A 
BRANCH  17  23
HETATM   23  O   UNL     1      27.349  46.540  54.921  1.00  0.00    -0.360 OA
HETATM   24  H   UNL     1      26.971  46.068  54.145  1.00  0.00     0.217 HD
ENDBRANCH  17  23
ENDBRANCH  15  16
ENDBRANCH   3  14
BRANCH   2  25
HETATM   25  N   UNL     1      25.101  44.833  51.932  1.00  0.00    -0.383 N 
HETATM   26  H   UNL     1      25.742  45.529  52.323  1.00  0.00     0.157 HD
HETATM   27  H   UNL     1      24.170  44.883  52.345  1.00  0.00     0.157 HD
ENDBRANCH   2  25
BRANCH   1  28
HETATM   28  C   UNL     1      23.839  42.804  50.017  1.00  0.00     0.258 C 
HETATM   29  N   UNL     1      23.912  42.548  48.662  1.00  0.00    -0.352 N 
HETATM   30  H   UNL     1      24.825  42.319  48.290  1.00  0.00     0.163 HD
HETATM   31  O   UNL     1      22.782  42.963  50.622  1.00  0.00    -0.267 OA
BRANCH  29  32
HETATM   32  C   UNL     1      22.740  42.086  47.933  1.00  0.00     0.080 C 
HETATM   33  C   UNL     1      22.906  40.610  47.552  1.00  0.00     0.032 C 
BRANCH  32  34
HETATM   34  C   UNL     1      22.515  42.921  46.664  1.00  0.00     0.020 C 
HETATM   35  C   UNL     1      22.326  44.402  46.956  1.00  0.00     0.007 C 
ENDBRANCH  32  34
ENDBRANCH  29  32
ENDBRANCH   1  28
TORSDOF 7
ENDMDL
MODEL 7
REMARK VINA RESULT:      -8.8      3.647      8.080
REMARK  7 active torsions:
REMARK  status: ('A' for Active; 'I' for Inactive)
REMARK    1  A    between atoms: C_2  and  C_3 
REMARK    2  A    between atoms: C_3  and  N_4 
REMARK       I    between atoms: N_4  and  C_5 
REMARK    3  A    between atoms: C_5  and  C_6 
REMARK    4  A    between atoms: C_7  and  N_8 
REMARK    5  A    between atoms: N_9  and  N_10 
REMARK    6  A    between atoms: C_11  and  C_12 
REMARK    7  A    between atoms: C_13  and  O_14 
ROOT
HETATM    1  C   UNL     1      24.593  46.387  49.511  1.00  0.00     0.110 C 
HETATM    2  C   UNL     1      25.858  46.325  50.069  1.00  0.00     0.143 C 
HETATM    3  N   UNL     1      26.244  44.990  50.157  1.00  0.00    -0.197 N 
HETATM    4  C   UNL     1      25.342  44.239  49.415  1.00  0.00     0.183 A 
HETATM    5  C   UNL     1      24.289  45.081  49.065  1.00  0.00     0.125 A 
HETATM    6  N   UNL     1      23.200  44.618  48.399  1.00  0.00    -0.242 NA
HETATM    7  C   UNL     1      23.265  43.323  48.044  1.00  0.00     0.086 A 
HETATM    8  C   UNL     1      24.360  42.489  48.387  1.00  0.00     0.088 A 
HETATM    9  N   UNL     1      25.411  42.922  49.102  1.00  0.00    -0.225 NA
HETATM   10  C   UNL     1      22.218  42.787  47.306  1.00  0.00     0.034 A 
HETATM   11  C   UNL     1      22.226  41.455  46.887  1.00  0.00     0.002 A 
HETATM   12  C   UNL     1      23.299  40.640  47.218  1.00  0.00     0.002 A 
HETATM   13  C   UNL     1      24.353  41.164  47.965  1.00  0.00     0.034 A 
ENDROOT
BRANCH   3  14
HETATM   14  N   UNL     1      27.292  44.639  50.977  1.00  0.00    -0.176 NA
HETATM   15  C   UNL     1      27.031  44.099  52.120  1.00  0.00     0.153 C 
BRANCH  15  16
HETATM   16  C   UNL     1      28.125  43.899  53.102  1.00  0.00     0.017 A 
HETATM   17  C   UNL     1      29.116  42.924  52.912  1.00  0.00     0.077 A 
HETATM   18  C   UNL     1      30.178  42.813  53.805  1.00  0.00     0.039 A 
HETATM   19  C   UNL     1      30.259  43.680  54.895  1.00  0.00     0.022 A 
HETATM   20  C   UNL     1      29.272  44.648  55.085  1.00  0.00     0.012 A 
HETATM   21 BR   UNL     1      29.394  45.829  56.557  1.00  0.00    -0.051 Br
HETATM   22  C   UNL     1      28.203  44.767  54.194  1.00  0.00     0.034 A 
BRANCH  17  23
HETATM   23  O   UNL     1      29.122  42.063  51.849  1.00  0.00    -0.360 OA
HETATM   24  H   UNL     1      28.320  41.499  51.931  1.00  0.00     0.217 HD
ENDBRANCH  17  23
ENDBRANCH  15  16
ENDBRANCH   3  14
BRANCH   2  25
HETATM   25  N   UNL     1      26.626  47.320  50.590  1.00  0.00    -0.383 N 
HETATM   26  H   UNL     1      27.146  47.128  51.450  1.00  0.00     0.157 HD
HETATM   27  H   UNL     1      26.291  48.282  50.542  1.00  0.00     0.157 HD
ENDBRANCH   2  25
BRANCH   1  28
HETATM   28  C   UNL     1      23.788  47.591  49.472  1.00  0.00     0.258 C 
HETATM   29  N   UNL     1      22.721  47.510  48.601  1.00  0.00    -0.352 N 
HETATM   30  H   UNL     1      22.619  46.648  48.082  1.00  0.00     0.163 HD
HETATM   31  O   UNL     1      23.955  48.520  50.258  1.00  0.00    -0.267 OA
BRANCH  29  32
HETATM   32  C   UNL     1      21.533  48.327  48.809  1.00  0.00     0.080 C 
HETATM   33  C   UNL     1      20.273  47.458  48.704  1.00  0.00     0.032 C 
BRANCH  32  34
HETATM   34  C   UNL     1      21.459  49.465  47.782  1.00  0.00     0.020 C 
HETATM   35  C   UNL     1      22.214  50.709  48.223  1.00  0.00     0.007 C 
ENDBRANCH  32  34
ENDBRANCH  29  32
ENDBRANCH   1  28
TORSDOF 7
ENDMDL
MODEL 8
REMARK VINA RESULT:      -8.8      2.743      5.669
REMARK  7 active torsions:
REMARK  status: ('A' for Active; 'I' for Inactive)
REMARK    1  A    between atoms: C_2  and  C_3 
REMARK    2  A    between atoms: C_3  and  N_4 
REMARK       I    between atoms: N_4  and  C_5 
REMARK    3  A    between atoms: C_5  and  C_6 
REMARK    4  A    between atoms: C_7  and  N_8 
REMARK    5  A    between atoms: N_9  and  N_10 
REMARK    6  A    between atoms: C_11  and  C_12 
REMARK    7  A    between atoms: C_13  and  O_14 
ROOT
HETATM    1  C   UNL     1      27.127  41.617  50.077  1.00  0.00     0.110 C 
HETATM    2  C   UNL     1      26.277  42.490  49.421  1.00  0.00     0.143 C 
HETATM    3  N   UNL     1      26.026  43.580  50.249  1.00  0.00    -0.197 N 
HETATM    4  C   UNL     1      26.922  43.523  51.308  1.00  0.00     0.183 A 
HETATM    5  C   UNL     1      27.562  42.287  51.244  1.00  0.00     0.125 A 
HETATM    6  N   UNL     1      28.446  41.893  52.197  1.00  0.00    -0.242 NA
HETATM    7  C   UNL     1      28.704  42.815  53.141  1.00  0.00     0.086 A 
HETATM    8  C   UNL     1      28.061  44.080  53.173  1.00  0.00     0.088 A 
HETATM    9  N   UNL     1      27.138  44.451  52.271  1.00  0.00    -0.225 NA
HETATM   10  C   UNL     1      29.644  42.515  54.119  1.00  0.00     0.034 A 
HETATM   11  C   UNL     1      29.976  43.430  55.119  1.00  0.00     0.002 A 
HETATM   12  C   UNL     1      29.351  44.669  55.148  1.00  0.00     0.002 A 
HETATM   13  C   UNL     1      28.400  44.980  54.176  1.00  0.00     0.034 A 
ENDROOT
BRANCH   3  14
HETATM   14  N   UNL     1      24.958  44.407  49.980  1.00  0.00    -0.176 NA
HETATM   15  C   UNL     1      25.188  45.562  49.450  1.00  0.00     0.153 C 
BRANCH  15  16
HETATM   16  C   UNL     1      24.085  46.547  49.338  1.00  0.00     0.017 A 
HETATM   17  C   UNL     1      24.285  47.911  49.602  1.00  0.00     0.077 A 
HETATM   18  C   UNL     1      23.256  48.827  49.409  1.00  0.00     0.039 A 
HETATM   19  C   UNL     1      22.015  48.386  48.946  1.00  0.00     0.022 A 
HETATM   20  C   UNL     1      21.815  47.030  48.687  1.00  0.00     0.012 A 
HETATM   21 BR   UNL     1      20.136  46.441  48.048  1.00  0.00    -0.051 Br
HETATM   22  C   UNL     1      22.843  46.104  48.877  1.00  0.00     0.034 A 
BRANCH  17  23
HETATM   23  O   UNL     1      25.482  48.421  50.023  1.00  0.00    -0.360 OA
HETATM   24  H   UNL     1      25.952  47.698  50.497  1.00  0.00     0.217 HD
ENDBRANCH  17  23
ENDBRANCH  15  16
ENDBRANCH   3  14
BRANCH   2  25
HETATM   25  N   UNL     1      25.640  42.347  48.227  1.00  0.00    -0.383 N 
HETATM   26  H   UNL     1      24.617  42.365  48.220  1.00  0.00     0.157 HD
HETATM   27  H   UNL     1      26.024  41.704  47.534  1.00  0.00     0.157 HD
ENDBRANCH   2  25
BRANCH   1  28
HETATM   28  C   UNL     1      27.425  40.279  49.611  1.00  0.00     0.258 C 
HETATM   29  N   UNL     1      28.731  39.896  49.838  1.00  0.00    -0.352 N 
HETATM   30  H   UNL     1      29.336  40.576  50.282  1.00  0.00     0.163 HD
HETATM   31  O   UNL     1      26.554  39.515  49.205  1.00  0.00    -0.267 OA
BRANCH  29  32
HETATM   32  C   UNL     1      29.078  38.487  49.963  1.00  0.00     0.080 C 
HETATM   33  C   UNL     1      29.926  38.265  51.222  1.00  0.00     0.032 C 
BRANCH  32  34
HETATM   34  C   UNL     1      29.850  37.997  48.730  1.00  0.00     0.020 C 
HETATM   35  C   UNL     1      28.939  37.636  47.567  1.00  0.00     0.007 C 
ENDBRANCH  32  34
ENDBRANCH  29  32
ENDBRANCH   1  28
TORSDOF 7
ENDMDL
MODEL 9
REMARK VINA RESULT:      -8.5      4.015      8.583
REMARK  7 active torsions:
REMARK  status: ('A' for Active; 'I' for Inactive)
REMARK    1  A    between atoms: C_2  and  C_3 
REMARK    2  A    between atoms: C_3  and  N_4 
REMARK       I    between atoms: N_4  and  C_5 
REMARK    3  A    between atoms: C_5  and  C_6 
REMARK    4  A    between atoms: C_7  and  N_8 
REMARK    5  A    between atoms: N_9  and  N_10 
REMARK    6  A    between atoms: C_11  and  C_12 
REMARK    7  A    between atoms: C_13  and  O_14 
ROOT
HETATM    1  C   UNL     1      23.569  47.538  49.173  1.00  0.00     0.110 C 
HETATM    2  C   UNL     1      24.754  47.132  49.760  1.00  0.00     0.143 C 
HETATM    3  N   UNL     1      24.816  45.742  49.734  1.00  0.00    -0.197 N 
HETATM    4  C   UNL     1      23.804  45.289  48.899  1.00  0.00     0.183 A 
HETATM    5  C   UNL     1      22.994  46.382  48.598  1.00  0.00     0.125 A 
HETATM    6  N   UNL     1      21.861  46.246  47.860  1.00  0.00    -0.242 NA
HETATM    7  C   UNL     1      21.643  45.007  47.387  1.00  0.00     0.086 A 
HETATM    8  C   UNL     1      22.496  43.912  47.682  1.00  0.00     0.088 A 
HETATM    9  N   UNL     1      23.581  44.025  48.465  1.00  0.00    -0.225 NA
HETATM   10  C   UNL     1      20.538  44.796  46.571  1.00  0.00     0.034 A 
HETATM   11  C   UNL     1      20.259  43.540  46.029  1.00  0.00     0.002 A 
HETATM   12  C   UNL     1      21.096  42.471  46.314  1.00  0.00     0.002 A 
HETATM   13  C   UNL     1      22.204  42.667  47.138  1.00  0.00     0.034 A 
ENDROOT
BRANCH   3  14
HETATM   14  N   UNL     1      25.712  45.086  50.548  1.00  0.00    -0.176 NA
HETATM   15  C   UNL     1      25.427  44.951  51.800  1.00  0.00     0.153 C 
BRANCH  15  16
HETATM   16  C   UNL     1      26.458  44.433  52.732  1.00  0.00     0.017 A 
HETATM   17  C   UNL     1      26.898  43.102  52.678  1.00  0.00     0.077 A 
HETATM   18  C   UNL     1      27.926  42.663  53.507  1.00  0.00     0.039 A 
HETATM   19  C   UNL     1      28.525  43.554  54.398  1.00  0.00     0.022 A 
HETATM   20  C   UNL     1      28.085  44.878  54.454  1.00  0.00     0.012 A 
HETATM   21 BR   UNL     1      28.909  46.084  55.654  1.00  0.00    -0.051 Br
HETATM   22  C   UNL     1      27.055  45.327  53.625  1.00  0.00     0.034 A 
BRANCH  17  23
HETATM   23  O   UNL     1      26.384  42.181  51.807  1.00  0.00    -0.360 OA
HETATM   24  H   UNL     1      25.438  42.057  52.046  1.00  0.00     0.217 HD
ENDBRANCH  17  23
ENDBRANCH  15  16
ENDBRANCH   3  14
BRANCH   2  25
HETATM   25  N   UNL     1      25.705  47.872  50.394  1.00  0.00    -0.383 N 
HETATM   26  H   UNL     1      26.686  47.606  50.270  1.00  0.00     0.157 HD
HETATM   27  H   UNL     1      25.513  48.229  51.330  1.00  0.00     0.157 HD
ENDBRANCH   2  25
BRANCH   1  28
HETATM   28  C   UNL     1      23.068  48.896  49.223  1.00  0.00     0.258 C 
HETATM   29  N   UNL     1      21.705  48.986  49.025  1.00  0.00    -0.352 N 
HETATM   30  H   UNL     1      21.209  48.121  48.856  1.00  0.00     0.163 HD
HETATM   31  O   UNL     1      23.768  49.843  49.569  1.00  0.00    -0.267 OA
BRANCH  29  32
HETATM   32  C   UNL     1      20.952  50.111  49.565  1.00  0.00     0.080 C 
HETATM   33  C   UNL     1      19.557  49.647  50.003  1.00  0.00     0.032 C 
BRANCH  32  34
HETATM   34  C   UNL     1      20.817  51.234  48.527  1.00  0.00     0.020 C 
HETATM   35  C   UNL     1      19.531  52.030  48.680  1.00  0.00     0.007 C 
ENDBRANCH  32  34
ENDBRANCH  29  32
ENDBRANCH   1  28
TORSDOF 7
ENDMDL
MODEL 10
REMARK VINA RESULT:      -8.3      4.294      9.146
REMARK  7 active torsions:
REMARK  status: ('A' for Active; 'I' for Inactive)
REMARK    1  A    between atoms: C_2  and  C_3 
REMARK    2  A    between atoms: C_3  and  N_4 
REMARK       I    between atoms: N_4  and  C_5 
REMARK    3  A    between atoms: C_5  and  C_6 
REMARK    4  A    between atoms: C_7  and  N_8 
REMARK    5  A    between atoms: N_9  and  N_10 
REMARK    6  A    between atoms: C_11  and  C_12 
REMARK    7  A    between atoms: C_13  and  O_14 
ROOT
HETATM    1  C   UNL     1      24.635  42.140  49.363  1.00  0.00     0.110 C 
HETATM    2  C   UNL     1      25.529  41.895  50.390  1.00  0.00     0.143 C 
HETATM    3  N   UNL     1      26.009  43.111  50.867  1.00  0.00    -0.197 N 
HETATM    4  C   UNL     1      25.223  44.118  50.325  1.00  0.00     0.183 A 
HETATM    5  C   UNL     1      24.414  43.536  49.352  1.00  0.00     0.125 A 
HETATM    6  N   UNL     1      23.583  44.282  48.579  1.00  0.00    -0.242 NA
HETATM    7  C   UNL     1      23.550  45.590  48.887  1.00  0.00     0.086 A 
HETATM    8  C   UNL     1      24.362  46.159  49.902  1.00  0.00     0.088 A 
HETATM    9  N   UNL     1      25.234  45.440  50.626  1.00  0.00    -0.225 NA
HETATM   10  C   UNL     1      22.678  46.413  48.185  1.00  0.00     0.034 A 
HETATM   11  C   UNL     1      22.577  47.777  48.462  1.00  0.00     0.002 A 
HETATM   12  C   UNL     1      23.367  48.333  49.458  1.00  0.00     0.002 A 
HETATM   13  C   UNL     1      24.252  47.519  50.166  1.00  0.00     0.034 A 
ENDROOT
BRANCH   3  14
HETATM   14  N   UNL     1      27.150  43.135  51.638  1.00  0.00    -0.176 NA
HETATM   15  C   UNL     1      27.028  43.139  52.924  1.00  0.00     0.153 C 
BRANCH  15  16
HETATM   16  C   UNL     1      28.223  43.370  53.770  1.00  0.00     0.017 A 
HETATM   17  C   UNL     1      29.413  42.651  53.577  1.00  0.00     0.077 A 
HETATM   18  C   UNL     1      30.546  42.945  54.330  1.00  0.00     0.039 A 
HETATM   19  C   UNL     1      30.500  43.964  55.281  1.00  0.00     0.022 A 
HETATM   20  C   UNL     1      29.316  44.678  55.475  1.00  0.00     0.012 A 
HETATM   21 BR   UNL     1      29.263  46.067  56.756  1.00  0.00    -0.051 Br
HETATM   22  C   UNL     1      28.175  44.390  54.724  1.00  0.00     0.034 A 
BRANCH  17  23
HETATM   23  O   UNL     1      29.544  41.663  52.641  1.00  0.00    -0.360 OA
HETATM   24  H   UNL     1      28.643  41.307  52.470  1.00  0.00     0.217 HD
ENDBRANCH  17  23
ENDBRANCH  15  16
ENDBRANCH   3  14
BRANCH   2  25
HETATM   25  N   UNL     1      26.019  40.711  50.848  1.00  0.00    -0.383 N 
HETATM   26  H   UNL     1      26.245  39.984  50.164  1.00  0.00     0.157 HD
HETATM   27  H   UNL     1      25.653  40.326  51.719  1.00  0.00     0.157 HD
ENDBRANCH   2  25
BRANCH   1  28
HETATM   28  C   UNL     1      24.109  41.112  48.489  1.00  0.00     0.258 C 
HETATM   29  N   UNL     1      22.772  41.276  48.189  1.00  0.00    -0.352 N 
HETATM   30  H   UNL     1      22.304  42.068  48.609  1.00  0.00     0.163 HD
HETATM   31  O   UNL     1      24.830  40.277  47.947  1.00  0.00    -0.267 OA
BRANCH  29  32
HETATM   32  C   UNL     1      22.217  40.728  46.959  1.00  0.00     0.080 C 
HETATM   33  C   UNL     1      21.418  41.806  46.217  1.00  0.00     0.032 C 
BRANCH  32  34
HETATM   34  C   UNL     1      21.309  39.524  47.251  1.00  0.00     0.020 C 
HETATM   35  C   UNL     1      20.525  39.066  46.032  1.00  0.00     0.007 C 
ENDBRANCH  32  34
ENDBRANCH  29  32
ENDBRANCH   1  28
TORSDOF 7
ENDMDL
