MODEL 1
REMARK VINA RESULT:     -10.0      0.000      0.000
REMARK  7 active torsions:
REMARK  status: ('A' for Active; 'I' for Inactive)
REMARK       I    between atoms: C_2  and  N_3 
REMARK    1  A    between atoms: N_3  and  C_4 
REMARK    2  A    between atoms: C_7  and  C_8 
REMARK    3  A    between atoms: C_13  and  C_14 
REMARK    4  A    between atoms: C_14  and  C_15 
REMARK    5  A    between atoms: C_15  and  C_16 
REMARK    6  A    between atoms: C_16  and  O_17 
REMARK    7  A    between atoms: C_19  and  C_20 
ROOT
HETATM    1  C   UNL     1      25.951  44.251  50.269  1.00  0.00     0.058 A 
HETATM    2  N   UNL     1      26.432  43.514  49.211  1.00  0.00    -0.188 N 
HETATM    3  C   UNL     1      27.107  42.361  49.375  1.00  0.00     0.726 A 
HETATM    4  N   UNL     1      27.349  41.899  50.642  1.00  0.00    -0.084 N 
HETATM    5  N   UNL     1      28.012  40.721  50.617  1.00  0.00    -0.140 NA
HETATM    6  C   UNL     1      28.182  40.558  49.296  1.00  0.00     0.166 A 
HETATM    7  N   UNL     1      27.626  41.534  48.503  1.00  0.00    -0.046 NA
HETATM    8  C   UNL     1      26.912  42.588  51.864  1.00  0.00     0.187 A 
HETATM    9  C   UNL     1      26.130  43.857  51.544  1.00  0.00     0.036 A 
HETATM   10  H   UNL     1      26.272  43.875  48.275  1.00  0.00     0.184 HD
ENDROOT
BRANCH   1  11
HETATM   11  C   UNL     1      25.263  45.507  49.964  1.00  0.00    -0.009 A 
HETATM   12  C   UNL     1      23.991  45.478  49.383  1.00  0.00     0.016 A 
HETATM   13  C   UNL     1      23.311  46.668  49.102  1.00  0.00     0.030 A 
HETATM   14  C   UNL     1      23.890  47.902  49.398  1.00  0.00     0.034 A 
HETATM   15  C   UNL     1      25.168  47.928  49.973  1.00  0.00     0.030 A 
HETATM   16  C   UNL     1      25.851  46.740  50.254  1.00  0.00     0.016 A 
BRANCH  14  17
HETATM   17  N   UNL     1      23.265  49.143  49.156  1.00  0.00    -0.328 N 
HETATM   18  C   UNL     1      23.602  50.082  48.199  1.00  0.00     0.218 C 
HETATM   19  C   UNL     1      22.688  51.282  48.222  1.00  0.00     0.117 C 
HETATM   20  O   UNL     1      24.504  50.003  47.373  1.00  0.00    -0.274 OA
HETATM   21  H   UNL     1      22.469  49.358  49.743  1.00  0.00     0.169 HD
ENDBRANCH  14  17
ENDBRANCH   1  11
BRANCH   8  22
HETATM   22  C   UNL     1      28.078  42.904  52.794  1.00  0.00    -0.028 A 
HETATM   23  C   UNL     1      27.962  43.957  53.720  1.00  0.00     0.028 A 
HETATM   24  C   UNL     1      29.037  44.292  54.544  1.00  0.00     0.011 A 
HETATM   25 BR   UNL     1      28.862  45.718  55.774  1.00  0.00    -0.051 Br
HETATM   26  C   UNL     1      30.238  43.594  54.463  1.00  0.00     0.019 A 
HETATM   27  C   UNL     1      30.369  42.553  53.546  1.00  0.00     0.002 A 
HETATM   28  C   UNL     1      29.302  42.215  52.712  1.00  0.00     0.010 A 
ENDBRANCH   8  22
BRANCH   6  29
HETATM   29  C   UNL     1      28.957  39.430  48.722  1.00  0.00     0.085 C 
BRANCH  29  30
HETATM   30  C   UNL     1      28.868  38.155  49.561  1.00  0.00     0.034 C 
BRANCH  30  31
HETATM   31  C   UNL     1      30.116  37.910  50.404  1.00  0.00     0.164 C 
BRANCH  31  32
HETATM   32  O   UNL     1      31.276  38.280  49.665  1.00  0.00    -0.401 OA
HETATM   33  H   UNL     1      31.245  39.242  49.530  1.00  0.00     0.209 HD
ENDBRANCH  31  32
ENDBRANCH  30  31
ENDBRANCH  29  30
ENDBRANCH   6  29
TORSDOF 7
ENDMDL
MODEL 2
REMARK VINA RESULT:      -9.1      1.802      2.428
REMARK  7 active torsions:
REMARK  status: ('A' for Active; 'I' for Inactive)
REMARK       I    between atoms: C_2  and  N_3 
REMARK    1  A    between atoms: N_3  and  C_4 
REMARK    2  A    between atoms: C_7  and  C_8 
REMARK    3  A    between atoms: C_13  and  C_14 
REMARK    4  A    between atoms: C_14  and  C_15 
REMARK    5  A    between atoms: C_15  and  C_16 
REMARK    6  A    between atoms: C_16  and  O_17 
REMARK    7  A    between atoms: C_19  and  C_20 
ROOT
HETATM    1  C   UNL     1      25.448  44.735  51.219  1.00  0.00     0.058 A 
HETATM    2  N   UNL     1      26.069  43.731  50.512  1.00  0.00    -0.188 N 
HETATM    3  C   UNL     1      26.838  42.796  51.101  1.00  0.00     0.726 A 
HETATM    4  N   UNL     1      27.037  42.845  52.456  1.00  0.00    -0.084 N 
HETATM    5  N   UNL     1      27.809  41.820  52.877  1.00  0.00    -0.140 NA
HETATM    6  C   UNL     1      28.084  41.219  51.710  1.00  0.00     0.166 A 
HETATM    7  N   UNL     1      27.492  41.779  50.602  1.00  0.00    -0.046 NA
HETATM    8  C   UNL     1      26.452  43.870  53.334  1.00  0.00     0.187 A 
HETATM    9  C   UNL     1      25.576  44.843  52.555  1.00  0.00     0.036 A 
HETATM   10  H   UNL     1      25.939  43.714  49.505  1.00  0.00     0.184 HD
ENDROOT
BRANCH   1  11
HETATM   11  C   UNL     1      24.664  45.714  50.461  1.00  0.00    -0.009 A 
HETATM   12  C   UNL     1      24.868  47.080  50.674  1.00  0.00     0.016 A 
HETATM   13  C   UNL     1      24.143  48.030  49.945  1.00  0.00     0.030 A 
HETATM   14  C   UNL     1      23.206  47.627  48.994  1.00  0.00     0.034 A 
HETATM   15  C   UNL     1      22.998  46.256  48.788  1.00  0.00     0.030 A 
HETATM   16  C   UNL     1      23.721  45.305  49.516  1.00  0.00     0.016 A 
BRANCH  14  17
HETATM   17  N   UNL     1      22.445  48.520  48.212  1.00  0.00    -0.328 N 
HETATM   18  C   UNL     1      21.193  49.033  48.500  1.00  0.00     0.218 C 
HETATM   19  C   UNL     1      20.701  49.983  47.436  1.00  0.00     0.117 C 
HETATM   20  O   UNL     1      20.517  48.813  49.498  1.00  0.00    -0.274 OA
HETATM   21  H   UNL     1      22.876  48.830  47.350  1.00  0.00     0.169 HD
ENDBRANCH  14  17
ENDBRANCH   1  11
BRANCH   8  22
HETATM   22  C   UNL     1      27.516  44.626  54.122  1.00  0.00    -0.028 A 
HETATM   23  C   UNL     1      28.624  43.930  54.637  1.00  0.00     0.028 A 
HETATM   24  C   UNL     1      29.581  44.597  55.404  1.00  0.00     0.011 A 
HETATM   25 BR   UNL     1      31.058  43.640  56.095  1.00  0.00    -0.051 Br
HETATM   26  C   UNL     1      29.454  45.957  55.672  1.00  0.00     0.019 A 
HETATM   27  C   UNL     1      28.357  46.658  55.173  1.00  0.00     0.002 A 
HETATM   28  C   UNL     1      27.391  45.997  54.411  1.00  0.00     0.010 A 
ENDBRANCH   8  22
BRANCH   6  29
HETATM   29  C   UNL     1      29.001  40.057  51.605  1.00  0.00     0.085 C 
BRANCH  29  30
HETATM   30  C   UNL     1      28.817  39.264  50.311  1.00  0.00     0.034 C 
BRANCH  30  31
HETATM   31  C   UNL     1      29.589  37.948  50.304  1.00  0.00     0.164 C 
BRANCH  31  32
HETATM   32  O   UNL     1      30.985  38.209  50.203  1.00  0.00    -0.401 OA
HETATM   33  H   UNL     1      31.355  38.186  51.101  1.00  0.00     0.209 HD
ENDBRANCH  31  32
ENDBRANCH  30  31
ENDBRANCH  29  30
ENDBRANCH   6  29
TORSDOF 7
ENDMDL
MODEL 3
REMARK VINA RESULT:      -9.1      4.259      8.713
REMARK  7 active torsions:
REMARK  status: ('A' for Active; 'I' for Inactive)
REMARK       I    between atoms: C_2  and  N_3 
REMARK    1  A    between atoms: N_3  and  C_4 
REMARK    2  A    between atoms: C_7  and  C_8 
REMARK    3  A    between atoms: C_13  and  C_14 
REMARK    4  A    between atoms: C_14  and  C_15 
REMARK    5  A    between atoms: C_15  and  C_16 
REMARK    6  A    between atoms: C_16  and  O_17 
REMARK    7  A    between atoms: C_19  and  C_20 
ROOT
HETATM    1  C   UNL     1      25.897  45.780  52.337  1.00  0.00     0.058 A 
HETATM    2  N   UNL     1      25.653  46.964  51.678  1.00  0.00    -0.188 N 
HETATM    3  C   UNL     1      24.748  47.071  50.688  1.00  0.00     0.726 A 
HETATM    4  N   UNL     1      24.046  45.962  50.296  1.00  0.00    -0.084 N 
HETATM    5  N   UNL     1      23.166  46.258  49.314  1.00  0.00    -0.140 NA
HETATM    6  C   UNL     1      23.430  47.560  49.127  1.00  0.00     0.166 A 
HETATM    7  N   UNL     1      24.381  48.096  49.962  1.00  0.00    -0.046 NA
HETATM    8  C   UNL     1      24.214  44.631  50.896  1.00  0.00     0.187 A 
HETATM    9  C   UNL     1      25.236  44.649  52.026  1.00  0.00     0.036 A 
HETATM   10  H   UNL     1      26.195  47.777  51.955  1.00  0.00     0.184 HD
ENDROOT
BRANCH   1  11
HETATM   11  C   UNL     1      26.932  45.782  53.374  1.00  0.00    -0.009 A 
HETATM   12  C   UNL     1      27.157  46.938  54.127  1.00  0.00     0.016 A 
HETATM   13  C   UNL     1      28.128  46.952  55.134  1.00  0.00     0.030 A 
HETATM   14  C   UNL     1      28.887  45.813  55.403  1.00  0.00     0.034 A 
HETATM   15  C   UNL     1      28.664  44.657  54.640  1.00  0.00     0.030 A 
HETATM   16  C   UNL     1      27.694  44.641  53.632  1.00  0.00     0.016 A 
BRANCH  14  17
HETATM   17  N   UNL     1      29.874  45.743  56.406  1.00  0.00    -0.328 N 
HETATM   18  C   UNL     1      29.696  45.869  57.772  1.00  0.00     0.218 C 
HETATM   19  C   UNL     1      30.986  45.713  58.539  1.00  0.00     0.117 C 
HETATM   20  O   UNL     1      28.639  46.055  58.364  1.00  0.00    -0.274 OA
HETATM   21  H   UNL     1      30.818  45.563  56.086  1.00  0.00     0.169 HD
ENDBRANCH  14  17
ENDBRANCH   1  11
BRANCH   8  22
HETATM   22  C   UNL     1      24.585  43.575  49.861  1.00  0.00    -0.028 A 
HETATM   23  C   UNL     1      23.572  42.810  49.255  1.00  0.00     0.028 A 
HETATM   24  C   UNL     1      23.898  41.805  48.344  1.00  0.00     0.011 A 
HETATM   25 BR   UNL     1      22.521  40.782  47.549  1.00  0.00    -0.051 Br
HETATM   26  C   UNL     1      25.227  41.543  48.021  1.00  0.00     0.019 A 
HETATM   27  C   UNL     1      26.241  42.289  48.619  1.00  0.00     0.002 A 
HETATM   28  C   UNL     1      25.925  43.291  49.538  1.00  0.00     0.010 A 
ENDBRANCH   8  22
BRANCH   6  29
HETATM   29  C   UNL     1      22.780  48.363  48.061  1.00  0.00     0.085 C 
BRANCH  29  30
HETATM   30  C   UNL     1      23.205  49.831  48.076  1.00  0.00     0.034 C 
BRANCH  30  31
HETATM   31  C   UNL     1      22.245  50.721  48.860  1.00  0.00     0.164 C 
BRANCH  31  32
HETATM   32  O   UNL     1      22.453  50.539  50.257  1.00  0.00    -0.401 OA
HETATM   33  H   UNL     1      23.259  50.007  50.368  1.00  0.00     0.209 HD
ENDBRANCH  31  32
ENDBRANCH  30  31
ENDBRANCH  29  30
ENDBRANCH   6  29
TORSDOF 7
ENDMDL
MODEL 4
REMARK VINA RESULT:      -9.1      4.292      9.122
REMARK  7 active torsions:
REMARK  status: ('A' for Active; 'I' for Inactive)
REMARK       I    between atoms: C_2  and  N_3 
REMARK    1  A    between atoms: N_3  and  C_4 
REMARK    2  A    between atoms: C_7  and  C_8 
REMARK    3  A    between atoms: C_13  and  C_14 
REMARK    4  A    between atoms: C_14  and  C_15 
REMARK    5  A    between atoms: C_15  and  C_16 
REMARK    6  A    between atoms: C_16  and  O_17 
REMARK    7  A    between atoms: C_19  and  C_20 
ROOT
HETATM    1  C   UNL     1      25.862  45.476  51.735  1.00  0.00     0.058 A 
HETATM    2  N   UNL     1      25.983  46.756  51.243  1.00  0.00    -0.188 N 
HETATM    3  C   UNL     1      25.094  47.293  50.386  1.00  0.00     0.726 A 
HETATM    4  N   UNL     1      24.031  46.539  49.962  1.00  0.00    -0.084 N 
HETATM    5  N   UNL     1      23.231  47.242  49.130  1.00  0.00    -0.140 NA
HETATM    6  C   UNL     1      23.904  48.400  49.057  1.00  0.00     0.166 A 
HETATM    7  N   UNL     1      25.041  48.474  49.827  1.00  0.00    -0.046 NA
HETATM    8  C   UNL     1      23.786  45.154  50.388  1.00  0.00     0.187 A 
HETATM    9  C   UNL     1      24.838  44.678  51.383  1.00  0.00     0.036 A 
HETATM   10  H   UNL     1      26.787  47.301  51.542  1.00  0.00     0.184 HD
ENDROOT
BRANCH   1  11
HETATM   11  C   UNL     1      26.913  44.993  52.634  1.00  0.00    -0.009 A 
HETATM   12  C   UNL     1      26.977  45.471  53.947  1.00  0.00     0.016 A 
HETATM   13  C   UNL     1      27.961  45.008  54.826  1.00  0.00     0.030 A 
HETATM   14  C   UNL     1      28.895  44.060  54.406  1.00  0.00     0.034 A 
HETATM   15  C   UNL     1      28.834  43.588  53.087  1.00  0.00     0.030 A 
HETATM   16  C   UNL     1      27.850  44.051  52.206  1.00  0.00     0.016 A 
BRANCH  14  17
HETATM   17  N   UNL     1      29.909  43.534  55.233  1.00  0.00    -0.328 N 
HETATM   18  C   UNL     1      30.733  44.230  56.099  1.00  0.00     0.218 C 
HETATM   19  C   UNL     1      31.685  43.325  56.841  1.00  0.00     0.117 C 
HETATM   20  O   UNL     1      30.725  45.437  56.316  1.00  0.00    -0.274 OA
HETATM   21  H   UNL     1      30.032  42.530  55.197  1.00  0.00     0.169 HD
ENDBRANCH  14  17
ENDBRANCH   1  11
BRANCH   8  22
HETATM   22  C   UNL     1      23.700  44.195  49.206  1.00  0.00    -0.028 A 
HETATM   23  C   UNL     1      22.564  44.216  48.376  1.00  0.00     0.028 A 
HETATM   24  C   UNL     1      22.446  43.311  47.321  1.00  0.00     0.011 A 
HETATM   25 BR   UNL     1      20.906  43.350  46.224  1.00  0.00    -0.051 Br
HETATM   26  C   UNL     1      23.446  42.374  47.073  1.00  0.00     0.019 A 
HETATM   27  C   UNL     1      24.573  42.338  47.892  1.00  0.00     0.002 A 
HETATM   28  C   UNL     1      24.696  43.234  48.955  1.00  0.00     0.010 A 
ENDBRANCH   8  22
BRANCH   6  29
HETATM   29  C   UNL     1      23.484  49.515  48.172  1.00  0.00     0.085 C 
BRANCH  29  30
HETATM   30  C   UNL     1      23.174  50.802  48.936  1.00  0.00     0.034 C 
BRANCH  30  31
HETATM   31  C   UNL     1      21.953  50.677  49.842  1.00  0.00     0.164 C 
BRANCH  31  32
HETATM   32  O   UNL     1      22.293  51.076  51.166  1.00  0.00    -0.401 OA
HETATM   33  H   UNL     1      23.152  50.677  51.383  1.00  0.00     0.209 HD
ENDBRANCH  31  32
ENDBRANCH  30  31
ENDBRANCH  29  30
ENDBRANCH   6  29
TORSDOF 7
ENDMDL
MODEL 5
REMARK VINA RESULT:      -9.0      4.063      7.118
REMARK  7 active torsions:
REMARK  status: ('A' for Active; 'I' for Inactive)
REMARK       I    between atoms: C_2  and  N_3 
REMARK    1  A    between atoms: N_3  and  C_4 
REMARK    2  A    between atoms: C_7  and  C_8 
REMARK    3  A    between atoms: C_13  and  C_14 
REMARK    4  A    between atoms: C_14  and  C_15 
REMARK    5  A    between atoms: C_15  and  C_16 
REMARK    6  A    between atoms: C_16  and  O_17 
REMARK    7  A    between atoms: C_19  and  C_20 
ROOT
HETATM    1  C   UNL     1      28.202  43.003  51.682  1.00  0.00     0.058 A 
HETATM    2  N   UNL     1      28.462  41.697  51.333  1.00  0.00    -0.188 N 
HETATM    3  C   UNL     1      28.000  41.141  50.198  1.00  0.00     0.726 A 
HETATM    4  N   UNL     1      27.221  41.888  49.353  1.00  0.00    -0.084 N 
HETATM    5  N   UNL     1      26.870  41.183  48.255  1.00  0.00    -0.140 NA
HETATM    6  C   UNL     1      27.432  39.997  48.531  1.00  0.00     0.166 A 
HETATM    7  N   UNL     1      28.147  39.939  49.704  1.00  0.00    -0.046 NA
HETATM    8  C   UNL     1      26.847  43.287  49.605  1.00  0.00     0.187 A 
HETATM    9  C   UNL     1      27.461  43.809  50.899  1.00  0.00     0.036 A 
HETATM   10  H   UNL     1      29.018  41.140  51.976  1.00  0.00     0.184 HD
ENDROOT
BRANCH   1  11
HETATM   11  C   UNL     1      28.731  43.482  52.961  1.00  0.00    -0.009 A 
HETATM   12  C   UNL     1      29.893  42.911  53.488  1.00  0.00     0.016 A 
HETATM   13  C   UNL     1      30.424  43.368  54.699  1.00  0.00     0.030 A 
HETATM   14  C   UNL     1      29.802  44.403  55.399  1.00  0.00     0.034 A 
HETATM   15  C   UNL     1      28.632  44.967  54.872  1.00  0.00     0.030 A 
HETATM   16  C   UNL     1      28.099  44.511  53.662  1.00  0.00     0.016 A 
BRANCH  14  17
HETATM   17  N   UNL     1      30.281  44.927  56.617  1.00  0.00    -0.328 N 
HETATM   18  C   UNL     1      31.097  44.299  57.540  1.00  0.00     0.218 C 
HETATM   19  C   UNL     1      31.423  45.185  58.718  1.00  0.00     0.117 C 
HETATM   20  O   UNL     1      31.566  43.170  57.463  1.00  0.00    -0.274 OA
HETATM   21  H   UNL     1      30.005  45.878  56.827  1.00  0.00     0.169 HD
ENDBRANCH  14  17
ENDBRANCH   1  11
BRANCH   8  22
HETATM   22  C   UNL     1      25.335  43.486  49.617  1.00  0.00    -0.028 A 
HETATM   23  C   UNL     1      24.788  44.680  49.113  1.00  0.00     0.028 A 
HETATM   24  C   UNL     1      23.411  44.899  49.162  1.00  0.00     0.011 A 
HETATM   25 BR   UNL     1      22.698  46.515  48.488  1.00  0.00    -0.051 Br
HETATM   26  C   UNL     1      22.559  43.945  49.711  1.00  0.00     0.019 A 
HETATM   27  C   UNL     1      23.089  42.761  50.221  1.00  0.00     0.002 A 
HETATM   28  C   UNL     1      24.466  42.535  50.182  1.00  0.00     0.010 A 
ENDBRANCH   8  22
BRANCH   6  29
HETATM   29  C   UNL     1      27.261  38.808  47.659  1.00  0.00     0.085 C 
BRANCH  29  30
HETATM   30  C   UNL     1      27.774  37.518  48.298  1.00  0.00     0.034 C 
BRANCH  30  31
HETATM   31  C   UNL     1      26.672  36.712  48.979  1.00  0.00     0.164 C 
BRANCH  31  32
HETATM   32  O   UNL     1      26.320  37.326  50.214  1.00  0.00    -0.401 OA
HETATM   33  H   UNL     1      25.441  36.996  50.467  1.00  0.00     0.209 HD
ENDBRANCH  31  32
ENDBRANCH  30  31
ENDBRANCH  29  30
ENDBRANCH   6  29
TORSDOF 7
ENDMDL
MODEL 6
REMARK VINA RESULT:      -8.9      3.937      8.960
REMARK  7 active torsions:
REMARK  status: ('A' for Active; 'I' for Inactive)
REMARK       I    between atoms: C_2  and  N_3 
REMARK    1  A    between atoms: N_3  and  C_4 
REMARK    2  A    between atoms: C_7  and  C_8 
REMARK    3  A    between atoms: C_13  and  C_14 
REMARK    4  A    between atoms: C_14  and  C_15 
REMARK    5  A    between atoms: C_15  and  C_16 
REMARK    6  A    between atoms: C_16  and  O_17 
REMARK    7  A    between atoms: C_19  and  C_20 
ROOT
HETATM    1  C   UNL     1      26.244  45.230  52.120  1.00  0.00     0.058 A 
HETATM    2  N   UNL     1      26.341  46.479  51.551  1.00  0.00    -0.188 N 
HETATM    3  C   UNL     1      25.412  46.968  50.708  1.00  0.00     0.726 A 
HETATM    4  N   UNL     1      24.332  46.193  50.377  1.00  0.00    -0.084 N 
HETATM    5  N   UNL     1      23.493  46.849  49.545  1.00  0.00    -0.140 NA
HETATM    6  C   UNL     1      24.161  48.000  49.374  1.00  0.00     0.166 A 
HETATM    7  N   UNL     1      25.332  48.115  50.085  1.00  0.00    -0.046 NA
HETATM    8  C   UNL     1      24.107  44.835  50.893  1.00  0.00     0.187 A 
HETATM    9  C   UNL     1      25.205  44.414  51.863  1.00  0.00     0.036 A 
HETATM   10  H   UNL     1      27.157  47.039  51.780  1.00  0.00     0.184 HD
ENDROOT
BRANCH   1  11
HETATM   11  C   UNL     1      27.336  44.797  52.996  1.00  0.00    -0.009 A 
HETATM   12  C   UNL     1      27.500  45.396  54.248  1.00  0.00     0.016 A 
HETATM   13  C   UNL     1      28.525  44.982  55.106  1.00  0.00     0.030 A 
HETATM   14  C   UNL     1      29.400  43.965  54.724  1.00  0.00     0.034 A 
HETATM   15  C   UNL     1      29.238  43.372  53.464  1.00  0.00     0.030 A 
HETATM   16  C   UNL     1      28.214  43.784  52.605  1.00  0.00     0.016 A 
BRANCH  14  17
HETATM   17  N   UNL     1      30.449  43.484  55.534  1.00  0.00    -0.328 N 
HETATM   18  C   UNL     1      31.010  44.100  56.638  1.00  0.00     0.218 C 
HETATM   19  C   UNL     1      32.100  43.271  57.270  1.00  0.00     0.117 C 
HETATM   20  O   UNL     1      30.687  45.179  57.124  1.00  0.00    -0.274 OA
HETATM   21  H   UNL     1      30.820  42.576  55.284  1.00  0.00     0.169 HD
ENDBRANCH  14  17
ENDBRANCH   1  11
BRANCH   8  22
HETATM   22  C   UNL     1      23.967  43.811  49.772  1.00  0.00    -0.028 A 
HETATM   23  C   UNL     1      25.081  43.039  49.394  1.00  0.00     0.028 A 
HETATM   24  C   UNL     1      24.984  42.133  48.337  1.00  0.00     0.011 A 
HETATM   25 BR   UNL     1      26.496  41.114  47.839  1.00  0.00    -0.051 Br
HETATM   26  C   UNL     1      23.788  41.979  47.641  1.00  0.00     0.019 A 
HETATM   27  C   UNL     1      22.679  42.742  48.001  1.00  0.00     0.002 A 
HETATM   28  C   UNL     1      22.768  43.657  49.052  1.00  0.00     0.010 A 
ENDBRANCH   8  22
BRANCH   6  29
HETATM   29  C   UNL     1      23.699  49.064  48.447  1.00  0.00     0.085 C 
BRANCH  29  30
HETATM   30  C   UNL     1      22.215  49.395  48.608  1.00  0.00     0.034 C 
BRANCH  30  31
HETATM   31  C   UNL     1      21.976  50.742  49.283  1.00  0.00     0.164 C 
BRANCH  31  32
HETATM   32  O   UNL     1      22.236  50.633  50.679  1.00  0.00    -0.401 OA
HETATM   33  H   UNL     1      21.562  51.155  51.146  1.00  0.00     0.209 HD
ENDBRANCH  31  32
ENDBRANCH  30  31
ENDBRANCH  29  30
ENDBRANCH   6  29
TORSDOF 7
ENDMDL
MODEL 7
REMARK VINA RESULT:      -8.7      7.592     13.967
REMARK  7 active torsions:
REMARK  status: ('A' for Active; 'I' for Inactive)
REMARK       I    between atoms: C_2  and  N_3 
REMARK    1  A    between atoms: N_3  and  C_4 
REMARK    2  A    between atoms: C_7  and  C_8 
REMARK    3  A    between atoms: C_13  and  C_14 
REMARK    4  A    between atoms: C_14  and  C_15 
REMARK    5  A    between atoms: C_15  and  C_16 
REMARK    6  A    between atoms: C_16  and  O_17 
REMARK    7  A    between atoms: C_19  and  C_20 
ROOT
HETATM    1  C   UNL     1      19.350  50.316  49.050  1.00  0.00     0.058 A 
HETATM    2  N   UNL     1      18.953  51.558  49.491  1.00  0.00    -0.188 N 
HETATM    3  C   UNL     1      17.667  51.954  49.487  1.00  0.00     0.726 A 
HETATM    4  N   UNL     1      16.704  51.105  49.010  1.00  0.00    -0.084 N 
HETATM    5  N   UNL     1      15.473  51.655  49.106  1.00  0.00    -0.140 NA
HETATM    6  C   UNL     1      15.777  52.862  49.605  1.00  0.00     0.166 A 
HETATM    7  N   UNL     1      17.110  53.076  49.867  1.00  0.00    -0.046 NA
HETATM    8  C   UNL     1      16.982  49.758  48.491  1.00  0.00     0.187 A 
HETATM    9  C   UNL     1      18.464  49.416  48.583  1.00  0.00     0.036 A 
HETATM   10  H   UNL     1      19.675  52.193  49.819  1.00  0.00     0.184 HD
ENDROOT
BRANCH   1  11
HETATM   11  C   UNL     1      20.783  50.014  49.071  1.00  0.00    -0.009 A 
HETATM   12  C   UNL     1      21.711  51.058  49.124  1.00  0.00     0.016 A 
HETATM   13  C   UNL     1      23.083  50.789  49.165  1.00  0.00     0.030 A 
HETATM   14  C   UNL     1      23.547  49.473  49.152  1.00  0.00     0.034 A 
HETATM   15  C   UNL     1      22.614  48.428  49.090  1.00  0.00     0.030 A 
HETATM   16  C   UNL     1      21.241  48.695  49.050  1.00  0.00     0.016 A 
BRANCH  14  17
HETATM   17  N   UNL     1      24.911  49.119  49.202  1.00  0.00    -0.328 N 
HETATM   18  C   UNL     1      25.917  49.523  48.343  1.00  0.00     0.218 C 
HETATM   19  C   UNL     1      27.263  48.959  48.726  1.00  0.00     0.117 C 
HETATM   20  O   UNL     1      25.808  50.277  47.383  1.00  0.00    -0.274 OA
HETATM   21  H   UNL     1      25.182  48.512  49.966  1.00  0.00     0.169 HD
ENDBRANCH  14  17
ENDBRANCH   1  11
BRANCH   8  22
HETATM   22  C   UNL     1      16.483  49.578  47.062  1.00  0.00    -0.028 A 
HETATM   23  C   UNL     1      17.206  50.147  45.997  1.00  0.00     0.028 A 
HETATM   24  C   UNL     1      16.737  50.035  44.688  1.00  0.00     0.011 A 
HETATM   25 BR   UNL     1      17.721  50.815  43.274  1.00  0.00    -0.051 Br
HETATM   26  C   UNL     1      15.549  49.363  44.414  1.00  0.00     0.019 A 
HETATM   27  C   UNL     1      14.819  48.802  45.460  1.00  0.00     0.002 A 
HETATM   28  C   UNL     1      15.276  48.915  46.774  1.00  0.00     0.010 A 
ENDBRANCH   8  22
BRANCH   6  29
HETATM   29  C   UNL     1      14.757  53.920  49.817  1.00  0.00     0.085 C 
BRANCH  29  30
HETATM   30  C   UNL     1      14.084  53.835  51.187  1.00  0.00     0.034 C 
BRANCH  30  31
HETATM   31  C   UNL     1      14.315  55.078  52.041  1.00  0.00     0.164 C 
BRANCH  31  32
HETATM   32  O   UNL     1      13.748  54.886  53.333  1.00  0.00    -0.401 OA
HETATM   33  H   UNL     1      14.235  54.163  53.764  1.00  0.00     0.209 HD
ENDBRANCH  31  32
ENDBRANCH  30  31
ENDBRANCH  29  30
ENDBRANCH   6  29
TORSDOF 7
ENDMDL
MODEL 8
REMARK VINA RESULT:      -8.7      7.674     14.215
REMARK  7 active torsions:
REMARK  status: ('A' for Active; 'I' for Inactive)
REMARK       I    between atoms: C_2  and  N_3 
REMARK    1  A    between atoms: N_3  and  C_4 
REMARK    2  A    between atoms: C_7  and  C_8 
REMARK    3  A    between atoms: C_13  and  C_14 
REMARK    4  A    between atoms: C_14  and  C_15 
REMARK    5  A    between atoms: C_15  and  C_16 
REMARK    6  A    between atoms: C_16  and  O_17 
REMARK    7  A    between atoms: C_19  and  C_20 
ROOT
HETATM    1  C   UNL     1      19.540  50.659  48.004  1.00  0.00     0.058 A 
HETATM    2  N   UNL     1      18.908  51.464  48.924  1.00  0.00    -0.188 N 
HETATM    3  C   UNL     1      17.649  51.911  48.755  1.00  0.00     0.726 A 
HETATM    4  N   UNL     1      16.964  51.575  47.616  1.00  0.00    -0.084 N 
HETATM    5  N   UNL     1      15.713  52.086  47.627  1.00  0.00    -0.140 NA
HETATM    6  C   UNL     1      15.730  52.764  48.784  1.00  0.00     0.166 A 
HETATM    7  N   UNL     1      16.894  52.666  49.510  1.00  0.00    -0.046 NA
HETATM    8  C   UNL     1      17.519  50.740  46.542  1.00  0.00     0.187 A 
HETATM    9  C   UNL     1      18.931  50.269  46.869  1.00  0.00     0.036 A 
HETATM   10  H   UNL     1      19.430  51.730  49.753  1.00  0.00     0.184 HD
ENDROOT
BRANCH   1  11
HETATM   11  C   UNL     1      20.924  50.266  48.284  1.00  0.00    -0.009 A 
HETATM   12  C   UNL     1      21.339  48.957  48.025  1.00  0.00     0.016 A 
HETATM   13  C   UNL     1      22.661  48.568  48.268  1.00  0.00     0.030 A 
HETATM   14  C   UNL     1      23.586  49.483  48.773  1.00  0.00     0.034 A 
HETATM   15  C   UNL     1      23.164  50.793  49.039  1.00  0.00     0.030 A 
HETATM   16  C   UNL     1      21.843  51.183  48.797  1.00  0.00     0.016 A 
BRANCH  14  17
HETATM   17  N   UNL     1      24.936  49.173  49.033  1.00  0.00    -0.328 N 
HETATM   18  C   UNL     1      26.047  49.586  48.320  1.00  0.00     0.218 C 
HETATM   19  C   UNL     1      27.336  49.075  48.913  1.00  0.00     0.117 C 
HETATM   20  O   UNL     1      26.061  50.310  47.331  1.00  0.00    -0.274 OA
HETATM   21  H   UNL     1      25.108  48.596  49.847  1.00  0.00     0.169 HD
ENDBRANCH  14  17
ENDBRANCH   1  11
BRANCH   8  22
HETATM   22  C   UNL     1      17.495  51.448  45.192  1.00  0.00    -0.028 A 
HETATM   23  C   UNL     1      18.103  50.840  44.078  1.00  0.00     0.028 A 
HETATM   24  C   UNL     1      18.134  51.497  42.847  1.00  0.00     0.011 A 
HETATM   25 BR   UNL     1      18.965  50.666  41.366  1.00  0.00    -0.051 Br
HETATM   26  C   UNL     1      17.569  52.760  42.702  1.00  0.00     0.019 A 
HETATM   27  C   UNL     1      16.970  53.377  43.799  1.00  0.00     0.002 A 
HETATM   28  C   UNL     1      16.940  52.731  45.036  1.00  0.00     0.010 A 
ENDBRANCH   8  22
BRANCH   6  29
HETATM   29  C   UNL     1      14.594  53.605  49.236  1.00  0.00     0.085 C 
BRANCH  29  30
HETATM   30  C   UNL     1      15.040  54.884  49.945  1.00  0.00     0.034 C 
BRANCH  30  31
HETATM   31  C   UNL     1      14.623  54.927  51.411  1.00  0.00     0.164 C 
BRANCH  31  32
HETATM   32  O   UNL     1      13.912  53.740  51.745  1.00  0.00    -0.401 OA
HETATM   33  H   UNL     1      13.502  53.403  50.931  1.00  0.00     0.209 HD
ENDBRANCH  31  32
ENDBRANCH  30  31
ENDBRANCH  29  30
ENDBRANCH   6  29
TORSDOF 7
ENDMDL
MODEL 9
REMARK VINA RESULT:      -8.6      3.981      7.844
REMARK  7 active torsions:
REMARK  status: ('A' for Active; 'I' for Inactive)
REMARK       I    between atoms: C_2  and  N_3 
REMARK    1  A    between atoms: N_3  and  C_4 
REMARK    2  A    between atoms: C_7  and  C_8 
REMARK    3  A    between atoms: C_13  and  C_14 
REMARK    4  A    between atoms: C_14  and  C_15 
REMARK    5  A    between atoms: C_15  and  C_16 
REMARK    6  A    between atoms: C_16  and  O_17 
REMARK    7  A    between atoms: C_19  and  C_20 
ROOT
HETATM    1  C   UNL     1      28.206  41.629  51.475  1.00  0.00     0.058 A 
HETATM    2  N   UNL     1      29.414  41.723  52.128  1.00  0.00    -0.188 N 
HETATM    3  C   UNL     1      29.582  42.455  53.245  1.00  0.00     0.726 A 
HETATM    4  N   UNL     1      28.521  43.157  53.754  1.00  0.00    -0.084 N 
HETATM    5  N   UNL     1      28.861  43.811  54.886  1.00  0.00    -0.140 NA
HETATM    6  C   UNL     1      30.163  43.498  54.973  1.00  0.00     0.166 A 
HETATM    7  N   UNL     1      30.635  42.655  53.994  1.00  0.00    -0.046 NA
HETATM    8  C   UNL     1      27.179  43.165  53.153  1.00  0.00     0.187 A 
HETATM    9  C   UNL     1      27.110  42.272  51.920  1.00  0.00     0.036 A 
HETATM   10  H   UNL     1      30.203  41.221  51.732  1.00  0.00     0.184 HD
ENDROOT
BRANCH   1  11
HETATM   11  C   UNL     1      28.158  40.829  50.249  1.00  0.00    -0.009 A 
HETATM   12  C   UNL     1      27.580  41.364  49.094  1.00  0.00     0.016 A 
HETATM   13  C   UNL     1      27.543  40.622  47.908  1.00  0.00     0.030 A 
HETATM   14  C   UNL     1      28.082  39.336  47.861  1.00  0.00     0.034 A 
HETATM   15  C   UNL     1      28.654  38.799  49.023  1.00  0.00     0.030 A 
HETATM   16  C   UNL     1      28.692  39.539  50.209  1.00  0.00     0.016 A 
BRANCH  14  17
HETATM   17  N   UNL     1      28.094  38.530  46.704  1.00  0.00    -0.328 N 
HETATM   18  C   UNL     1      27.312  37.419  46.444  1.00  0.00     0.218 C 
HETATM   19  C   UNL     1      27.587  36.825  45.085  1.00  0.00     0.117 C 
HETATM   20  O   UNL     1      26.453  36.935  47.173  1.00  0.00    -0.274 OA
HETATM   21  H   UNL     1      28.739  38.812  45.976  1.00  0.00     0.169 HD
ENDBRANCH  14  17
ENDBRANCH   1  11
BRANCH   8  22
HETATM   22  C   UNL     1      26.709  44.575  52.814  1.00  0.00    -0.028 A 
HETATM   23  C   UNL     1      26.688  45.560  53.818  1.00  0.00     0.028 A 
HETATM   24  C   UNL     1      26.213  46.842  53.537  1.00  0.00     0.011 A 
HETATM   25 BR   UNL     1      26.184  48.148  54.905  1.00  0.00    -0.051 Br
HETATM   26  C   UNL     1      25.752  47.166  52.264  1.00  0.00     0.019 A 
HETATM   27  C   UNL     1      25.761  46.198  51.262  1.00  0.00     0.002 A 
HETATM   28  C   UNL     1      26.228  44.910  51.535  1.00  0.00     0.010 A 
ENDBRANCH   8  22
BRANCH   6  29
HETATM   29  C   UNL     1      31.052  44.056  56.022  1.00  0.00     0.085 C 
BRANCH  29  30
HETATM   30  C   UNL     1      30.543  45.378  56.597  1.00  0.00     0.034 C 
BRANCH  30  31
HETATM   31  C   UNL     1      30.455  45.371  58.120  1.00  0.00     0.164 C 
BRANCH  31  32
HETATM   32  O   UNL     1      31.638  44.797  58.667  1.00  0.00    -0.401 OA
HETATM   33  H   UNL     1      31.570  44.852  59.636  1.00  0.00     0.209 HD
ENDBRANCH  31  32
ENDBRANCH  30  31
ENDBRANCH  29  30
ENDBRANCH   6  29
TORSDOF 7
ENDMDL
MODEL 10
REMARK VINA RESULT:      -8.5      3.924      7.383
REMARK  7 active torsions:
REMARK  status: ('A' for Active; 'I' for Inactive)
REMARK       I    between atoms: C_2  and  N_3 
REMARK    1  A    between atoms: N_3  and  C_4 
REMARK    2  A    between atoms: C_7  and  C_8 
REMARK    3  A    between atoms: C_13  and  C_14 
REMARK    4  A    between atoms: C_14  and  C_15 
REMARK    5  A    between atoms: C_15  and  C_16 
REMARK    6  A    between atoms: C_16  and  O_17 
REMARK    7  A    between atoms: C_19  and  C_20 
ROOT
HETATM    1  C   UNL     1      27.902  41.806  51.208  1.00  0.00     0.058 A 
HETATM    2  N   UNL     1      29.149  41.804  51.791  1.00  0.00    -0.188 N 
HETATM    3  C   UNL     1      29.396  42.385  52.980  1.00  0.00     0.726 A 
HETATM    4  N   UNL     1      28.380  43.025  53.639  1.00  0.00    -0.084 N 
HETATM    5  N   UNL     1      28.799  43.525  54.822  1.00  0.00    -0.140 NA
HETATM    6  C   UNL     1      30.098  43.191  54.787  1.00  0.00     0.166 A 
HETATM    7  N   UNL     1      30.497  42.478  53.682  1.00  0.00    -0.046 NA
HETATM    8  C   UNL     1      27.005  43.123  53.129  1.00  0.00     0.187 A 
HETATM    9  C   UNL     1      26.847  42.396  51.798  1.00  0.00     0.036 A 
HETATM   10  H   UNL     1      29.904  41.350  51.285  1.00  0.00     0.184 HD
ENDROOT
BRANCH   1  11
HETATM   11  C   UNL     1      27.767  41.170  49.895  1.00  0.00    -0.009 A 
HETATM   12  C   UNL     1      26.907  41.724  48.941  1.00  0.00     0.016 A 
HETATM   13  C   UNL     1      26.779  41.143  47.675  1.00  0.00     0.030 A 
HETATM   14  C   UNL     1      27.508  40.000  47.345  1.00  0.00     0.034 A 
HETATM   15  C   UNL     1      28.364  39.442  48.305  1.00  0.00     0.030 A 
HETATM   16  C   UNL     1      28.493  40.022  49.572  1.00  0.00     0.016 A 
BRANCH  14  17
HETATM   17  N   UNL     1      27.444  39.362  46.089  1.00  0.00    -0.328 N 
HETATM   18  C   UNL     1      27.975  39.806  44.891  1.00  0.00     0.218 C 
HETATM   19  C   UNL     1      27.728  38.841  43.758  1.00  0.00     0.117 C 
HETATM   20  O   UNL     1      28.611  40.837  44.703  1.00  0.00    -0.274 OA
HETATM   21  H   UNL     1      26.968  38.469  46.071  1.00  0.00     0.169 HD
ENDBRANCH  14  17
ENDBRANCH   1  11
BRANCH   8  22
HETATM   22  C   UNL     1      26.539  44.569  53.003  1.00  0.00    -0.028 A 
HETATM   23  C   UNL     1      26.522  45.185  51.738  1.00  0.00     0.028 A 
HETATM   24  C   UNL     1      26.148  46.523  51.611  1.00  0.00     0.011 A 
HETATM   25 BR   UNL     1      26.141  47.333  49.903  1.00  0.00    -0.051 Br
HETATM   26  C   UNL     1      25.788  47.269  52.730  1.00  0.00     0.019 A 
HETATM   27  C   UNL     1      25.807  46.673  53.990  1.00  0.00     0.002 A 
HETATM   28  C   UNL     1      26.188  45.337  54.128  1.00  0.00     0.010 A 
ENDBRANCH   8  22
BRANCH   6  29
HETATM   29  C   UNL     1      31.059  43.602  55.842  1.00  0.00     0.085 C 
BRANCH  29  30
HETATM   30  C   UNL     1      30.639  44.880  56.569  1.00  0.00     0.034 C 
BRANCH  30  31
HETATM   31  C   UNL     1      31.000  44.867  58.051  1.00  0.00     0.164 C 
BRANCH  31  32
HETATM   32  O   UNL     1      30.887  46.182  58.585  1.00  0.00    -0.401 OA
HETATM   33  H   UNL     1      31.737  46.632  58.442  1.00  0.00     0.209 HD
ENDBRANCH  31  32
ENDBRANCH  30  31
ENDBRANCH  29  30
ENDBRANCH   6  29
TORSDOF 7
ENDMDL
