MODEL 1
REMARK VINA RESULT:      -9.6      0.000      0.000
REMARK  6 active torsions:
REMARK  status: ('A' for Active; 'I' for Inactive)
REMARK    1  A    between atoms: O_2  and  C_3 
REMARK    2  A    between atoms: C_6  and  C_7 
REMARK    3  A    between atoms: C_13  and  C_14 
REMARK       I    between atoms: C_14  and  N_15 
REMARK    4  A    between atoms: N_15  and  C_16 
REMARK    5  A    between atoms: C_18  and  O_19 
REMARK    6  A    between atoms: C_24  and  C_25 
ROOT
HETATM    1  C   UNL     1      27.595  44.060  53.282  1.00  0.00     0.118 C 
HETATM    2  N   UNL     1      26.812  45.078  52.564  1.00  0.00    -0.365 N 
HETATM    3  C   UNL     1      26.480  44.884  51.253  1.00  0.00     0.138 A 
HETATM    4  N   UNL     1      26.951  43.793  50.560  1.00  0.00    -0.240 N 
HETATM    5  N   UNL     1      26.557  43.739  49.281  1.00  0.00    -0.181 NA
HETATM    6  C   UNL     1      25.776  44.815  49.160  1.00  0.00     0.160 A 
HETATM    7  C   UNL     1      25.712  45.593  50.345  1.00  0.00     0.096 A 
HETATM    8  C   UNL     1      27.820  42.773  51.112  1.00  0.00     0.221 C 
HETATM    9  C   UNL     1      28.565  43.349  52.323  1.00  0.00     0.066 C 
HETATM   10  H   UNL     1      26.117  45.509  53.179  1.00  0.00     0.161 HD
ENDROOT
BRANCH   7  11
HETATM   11  C   UNL     1      24.995  46.853  50.479  1.00  0.00     0.261 C 
HETATM   12  N   UNL     1      24.370  47.269  49.320  1.00  0.00    -0.323 N 
HETATM   13  H   UNL     1      24.448  46.636  48.533  1.00  0.00     0.169 HD
HETATM   14  O   UNL     1      24.962  47.426  51.561  1.00  0.00    -0.267 OA
BRANCH  12  15
HETATM   15  C   UNL     1      23.583  48.423  49.130  1.00  0.00     0.037 A 
HETATM   16  C   UNL     1      22.190  48.447  49.225  1.00  0.00     0.066 A 
HETATM   17  C   UNL     1      21.492  49.634  49.005  1.00  0.00     0.067 A 
HETATM   18  C   UNL     1      22.161  50.814  48.702  1.00  0.00     0.036 A 
HETATM   19  C   UNL     1      23.551  50.802  48.611  1.00  0.00     0.005 A 
HETATM   20  C   UNL     1      24.257  49.613  48.819  1.00  0.00     0.029 A 
BRANCH  17  21
HETATM   21  O   UNL     1      20.131  49.597  49.091  1.00  0.00    -0.361 OA
HETATM   22  H   UNL     1      19.843  50.202  49.792  1.00  0.00     0.217 HD
ENDBRANCH  17  21
ENDBRANCH  12  15
ENDBRANCH   7  11
BRANCH   1  23
HETATM   23  C   UNL     1      28.376  44.692  54.421  1.00  0.00    -0.035 A 
HETATM   24  C   UNL     1      27.845  45.803  55.096  1.00  0.00     0.012 A 
HETATM   25  C   UNL     1      28.493  46.345  56.212  1.00  0.00     0.037 A 
HETATM   26  C   UNL     1      29.682  45.783  56.673  1.00  0.00     0.068 A 
HETATM   27  C   UNL     1      30.230  44.695  55.993  1.00  0.00     0.037 A 
HETATM   28  C   UNL     1      29.582  44.147  54.882  1.00  0.00     0.012 A 
BRANCH  26  29
HETATM   29  O   UNL     1      30.396  46.203  57.761  1.00  0.00    -0.356 OA
HETATM   30  C   UNL     1      31.037  45.191  58.529  1.00  0.00     0.210 C 
ENDBRANCH  26  29
ENDBRANCH   1  23
BRANCH   8  31
HETATM   31  C   UNL     1      27.017  41.539  51.461  1.00  0.00     0.409 C 
HETATM   32  F   UNL     1      27.397  40.973  52.628  1.00  0.00    -0.169 F 
HETATM   33  F   UNL     1      25.690  41.771  51.528  1.00  0.00    -0.169 F 
HETATM   34  F   UNL     1      27.194  40.592  50.502  1.00  0.00    -0.169 F 
ENDBRANCH   8  31
TORSDOF 6
ENDMDL
MODEL 2
REMARK VINA RESULT:      -9.5      3.961      7.101
REMARK  6 active torsions:
REMARK  status: ('A' for Active; 'I' for Inactive)
REMARK    1  A    between atoms: O_2  and  C_3 
REMARK    2  A    between atoms: C_6  and  C_7 
REMARK    3  A    between atoms: C_13  and  C_14 
REMARK       I    between atoms: C_14  and  N_15 
REMARK    4  A    between atoms: N_15  and  C_16 
REMARK    5  A    between atoms: C_18  and  O_19 
REMARK    6  A    between atoms: C_24  and  C_25 
ROOT
HETATM    1  C   UNL     1      27.633  44.727  52.991  1.00  0.00     0.118 C 
HETATM    2  N   UNL     1      27.348  43.458  52.303  1.00  0.00    -0.365 N 
HETATM    3  C   UNL     1      26.158  43.288  51.652  1.00  0.00     0.138 A 
HETATM    4  N   UNL     1      25.176  44.250  51.714  1.00  0.00    -0.240 N 
HETATM    5  N   UNL     1      24.059  43.943  51.042  1.00  0.00    -0.181 NA
HETATM    6  C   UNL     1      24.349  42.757  50.501  1.00  0.00     0.160 A 
HETATM    7  C   UNL     1      25.632  42.275  50.869  1.00  0.00     0.096 A 
HETATM    8  C   UNL     1      25.283  45.495  52.447  1.00  0.00     0.221 C 
HETATM    9  C   UNL     1      26.339  45.342  53.549  1.00  0.00     0.066 C 
HETATM   10  H   UNL     1      28.192  43.076  51.870  1.00  0.00     0.161 HD
ENDROOT
BRANCH   7  11
HETATM   11  C   UNL     1      26.180  40.982  50.486  1.00  0.00     0.261 C 
HETATM   12  N   UNL     1      27.179  41.056  49.534  1.00  0.00    -0.323 N 
HETATM   13  H   UNL     1      27.438  41.992  49.249  1.00  0.00     0.169 HD
HETATM   14  O   UNL     1      25.769  39.960  51.021  1.00  0.00    -0.267 OA
BRANCH  12  15
HETATM   15  C   UNL     1      27.921  39.994  48.978  1.00  0.00     0.037 A 
HETATM   16  C   UNL     1      29.145  39.545  49.480  1.00  0.00     0.066 A 
HETATM   17  C   UNL     1      29.817  38.497  48.852  1.00  0.00     0.067 A 
HETATM   18  C   UNL     1      29.284  37.871  47.732  1.00  0.00     0.036 A 
HETATM   19  C   UNL     1      28.061  38.307  47.228  1.00  0.00     0.005 A 
HETATM   20  C   UNL     1      27.386  39.366  47.844  1.00  0.00     0.029 A 
BRANCH  17  21
HETATM   21  O   UNL     1      31.018  38.110  49.372  1.00  0.00    -0.361 OA
HETATM   22  H   UNL     1      31.183  38.609  50.187  1.00  0.00     0.217 HD
ENDBRANCH  17  21
ENDBRANCH  12  15
ENDBRANCH   7  11
BRANCH   1  23
HETATM   23  C   UNL     1      28.623  44.508  54.123  1.00  0.00    -0.035 A 
HETATM   24  C   UNL     1      29.503  43.415  54.076  1.00  0.00     0.012 A 
HETATM   25  C   UNL     1      30.491  43.244  55.053  1.00  0.00     0.037 A 
HETATM   26  C   UNL     1      30.617  44.165  56.091  1.00  0.00     0.068 A 
HETATM   27  C   UNL     1      29.730  45.240  56.159  1.00  0.00     0.037 A 
HETATM   28  C   UNL     1      28.747  45.418  55.182  1.00  0.00     0.012 A 
BRANCH  26  29
HETATM   29  O   UNL     1      31.551  44.124  57.088  1.00  0.00    -0.356 OA
HETATM   30  C   UNL     1      31.244  44.843  58.277  1.00  0.00     0.210 C 
ENDBRANCH  26  29
ENDBRANCH   1  23
BRANCH   8  31
HETATM   31  C   UNL     1      25.597  46.632  51.498  1.00  0.00     0.409 C 
HETATM   32  F   UNL     1      26.324  46.241  50.428  1.00  0.00    -0.169 F 
HETATM   33  F   UNL     1      24.495  47.261  51.042  1.00  0.00    -0.169 F 
HETATM   34  F   UNL     1      26.339  47.572  52.141  1.00  0.00    -0.169 F 
ENDBRANCH   8  31
TORSDOF 6
ENDMDL
MODEL 3
REMARK VINA RESULT:      -9.3      3.589      8.227
REMARK  6 active torsions:
REMARK  status: ('A' for Active; 'I' for Inactive)
REMARK    1  A    between atoms: O_2  and  C_3 
REMARK    2  A    between atoms: C_6  and  C_7 
REMARK    3  A    between atoms: C_13  and  C_14 
REMARK       I    between atoms: C_14  and  N_15 
REMARK    4  A    between atoms: N_15  and  C_16 
REMARK    5  A    between atoms: C_18  and  O_19 
REMARK    6  A    between atoms: C_24  and  C_25 
ROOT
HETATM    1  C   UNL     1      26.207  42.900  50.410  1.00  0.00     0.118 C 
HETATM    2  N   UNL     1      26.697  43.365  51.718  1.00  0.00    -0.365 N 
HETATM    3  C   UNL     1      26.515  44.667  52.090  1.00  0.00     0.138 A 
HETATM    4  N   UNL     1      25.968  45.580  51.219  1.00  0.00    -0.240 N 
HETATM    5  N   UNL     1      25.863  46.821  51.712  1.00  0.00    -0.181 NA
HETATM    6  C   UNL     1      26.328  46.690  52.957  1.00  0.00     0.160 A 
HETATM    7  C   UNL     1      26.783  45.378  53.247  1.00  0.00     0.096 A 
HETATM    8  C   UNL     1      25.545  45.282  49.865  1.00  0.00     0.221 C 
HETATM    9  C   UNL     1      26.282  44.030  49.371  1.00  0.00     0.066 C 
HETATM   10  H   UNL     1      26.587  42.640  52.431  1.00  0.00     0.161 HD
ENDROOT
BRANCH   7  11
HETATM   11  C   UNL     1      27.403  44.966  54.499  1.00  0.00     0.261 C 
HETATM   12  N   UNL     1      28.781  45.067  54.503  1.00  0.00    -0.323 N 
HETATM   13  H   UNL     1      29.190  45.450  53.659  1.00  0.00     0.169 HD
HETATM   14  O   UNL     1      26.704  44.603  55.437  1.00  0.00    -0.267 OA
BRANCH  12  15
HETATM   15  C   UNL     1      29.665  44.773  55.561  1.00  0.00     0.037 A 
HETATM   16  C   UNL     1      29.859  45.595  56.672  1.00  0.00     0.066 A 
HETATM   17  C   UNL     1      30.769  45.230  57.664  1.00  0.00     0.067 A 
HETATM   18  C   UNL     1      31.487  44.043  57.577  1.00  0.00     0.036 A 
HETATM   19  C   UNL     1      31.295  43.213  56.475  1.00  0.00     0.005 A 
HETATM   20  C   UNL     1      30.394  43.577  55.471  1.00  0.00     0.029 A 
BRANCH  17  21
HETATM   21  O   UNL     1      30.935  46.079  58.719  1.00  0.00    -0.361 OA
HETATM   22  H   UNL     1      30.188  45.973  59.329  1.00  0.00     0.217 HD
ENDBRANCH  17  21
ENDBRANCH  12  15
ENDBRANCH   7  11
BRANCH   1  23
HETATM   23  C   UNL     1      27.019  41.710  49.929  1.00  0.00    -0.035 A 
HETATM   24  C   UNL     1      27.300  41.567  48.560  1.00  0.00     0.012 A 
HETATM   25  C   UNL     1      28.129  40.538  48.099  1.00  0.00     0.037 A 
HETATM   26  C   UNL     1      28.691  39.635  48.999  1.00  0.00     0.068 A 
HETATM   27  C   UNL     1      28.397  39.754  50.358  1.00  0.00     0.037 A 
HETATM   28  C   UNL     1      27.575  40.785  50.823  1.00  0.00     0.012 A 
BRANCH  26  29
HETATM   29  O   UNL     1      29.532  38.605  48.679  1.00  0.00    -0.356 OA
HETATM   30  C   UNL     1      30.091  37.879  49.768  1.00  0.00     0.210 C 
ENDBRANCH  26  29
ENDBRANCH   1  23
BRANCH   8  31
HETATM   31  C   UNL     1      24.041  45.126  49.813  1.00  0.00     0.409 C 
HETATM   32  F   UNL     1      23.627  44.334  48.799  1.00  0.00    -0.169 F 
HETATM   33  F   UNL     1      23.519  44.639  50.956  1.00  0.00    -0.169 F 
HETATM   34  F   UNL     1      23.462  46.339  49.611  1.00  0.00    -0.169 F 
ENDBRANCH   8  31
TORSDOF 6
ENDMDL
MODEL 4
REMARK VINA RESULT:      -9.1      1.199      1.873
REMARK  6 active torsions:
REMARK  status: ('A' for Active; 'I' for Inactive)
REMARK    1  A    between atoms: O_2  and  C_3 
REMARK    2  A    between atoms: C_6  and  C_7 
REMARK    3  A    between atoms: C_13  and  C_14 
REMARK       I    between atoms: C_14  and  N_15 
REMARK    4  A    between atoms: N_15  and  C_16 
REMARK    5  A    between atoms: C_18  and  O_19 
REMARK    6  A    between atoms: C_24  and  C_25 
ROOT
HETATM    1  C   UNL     1      28.025  43.193  53.280  1.00  0.00     0.118 C 
HETATM    2  N   UNL     1      27.056  44.064  52.595  1.00  0.00    -0.365 N 
HETATM    3  C   UNL     1      26.759  43.849  51.278  1.00  0.00     0.138 A 
HETATM    4  N   UNL     1      27.428  42.893  50.551  1.00  0.00    -0.240 N 
HETATM    5  N   UNL     1      27.044  42.803  49.271  1.00  0.00    -0.181 NA
HETATM    6  C   UNL     1      26.069  43.711  49.184  1.00  0.00     0.160 A 
HETATM    7  C   UNL     1      25.863  44.425  50.393  1.00  0.00     0.096 A 
HETATM    8  C   UNL     1      28.480  42.043  51.071  1.00  0.00     0.221 C 
HETATM    9  C   UNL     1      29.107  42.713  52.300  1.00  0.00     0.066 C 
HETATM   10  H   UNL     1      26.294  44.332  53.223  1.00  0.00     0.161 HD
ENDROOT
BRANCH   7  11
HETATM   11  C   UNL     1      24.918  45.518  50.567  1.00  0.00     0.261 C 
HETATM   12  N   UNL     1      24.449  46.049  49.381  1.00  0.00    -0.323 N 
HETATM   13  H   UNL     1      24.782  45.594  48.540  1.00  0.00     0.169 HD
HETATM   14  O   UNL     1      24.585  45.866  51.693  1.00  0.00    -0.267 OA
BRANCH  12  15
HETATM   15  C   UNL     1      23.513  47.090  49.211  1.00  0.00     0.037 A 
HETATM   16  C   UNL     1      23.749  48.421  49.561  1.00  0.00     0.066 A 
HETATM   17  C   UNL     1      22.756  49.382  49.372  1.00  0.00     0.067 A 
HETATM   18  C   UNL     1      21.525  49.043  48.822  1.00  0.00     0.036 A 
HETATM   19  C   UNL     1      21.283  47.719  48.464  1.00  0.00     0.005 A 
HETATM   20  C   UNL     1      22.269  46.747  48.661  1.00  0.00     0.029 A 
BRANCH  17  21
HETATM   21  O   UNL     1      23.032  50.664  49.749  1.00  0.00    -0.361 OA
HETATM   22  H   UNL     1      22.349  51.252  49.390  1.00  0.00     0.217 HD
ENDBRANCH  17  21
ENDBRANCH  12  15
ENDBRANCH   7  11
BRANCH   1  23
HETATM   23  C   UNL     1      28.676  43.929  54.439  1.00  0.00    -0.035 A 
HETATM   24  C   UNL     1      29.925  43.504  54.919  1.00  0.00     0.012 A 
HETATM   25  C   UNL     1      30.594  44.221  55.918  1.00  0.00     0.037 A 
HETATM   26  C   UNL     1      30.027  45.376  56.450  1.00  0.00     0.068 A 
HETATM   27  C   UNL     1      28.774  45.792  55.997  1.00  0.00     0.037 A 
HETATM   28  C   UNL     1      28.106  45.083  54.995  1.00  0.00     0.012 A 
BRANCH  26  29
HETATM   29  O   UNL     1      30.588  46.175  57.407  1.00  0.00    -0.356 OA
HETATM   30  C   UNL     1      30.965  45.541  58.625  1.00  0.00     0.210 C 
ENDBRANCH  26  29
ENDBRANCH   1  23
BRANCH   8  31
HETATM   31  C   UNL     1      27.932  40.666  51.380  1.00  0.00     0.409 C 
HETATM   32  F   UNL     1      26.618  40.679  51.693  1.00  0.00    -0.169 F 
HETATM   33  F   UNL     1      28.108  39.788  50.373  1.00  0.00    -0.169 F 
HETATM   34  F   UNL     1      28.577  40.149  52.460  1.00  0.00    -0.169 F 
ENDBRANCH   8  31
TORSDOF 6
ENDMDL
MODEL 5
REMARK VINA RESULT:      -8.8      2.927      5.950
REMARK  6 active torsions:
REMARK  status: ('A' for Active; 'I' for Inactive)
REMARK    1  A    between atoms: O_2  and  C_3 
REMARK    2  A    between atoms: C_6  and  C_7 
REMARK    3  A    between atoms: C_13  and  C_14 
REMARK       I    between atoms: C_14  and  N_15 
REMARK    4  A    between atoms: N_15  and  C_16 
REMARK    5  A    between atoms: C_18  and  O_19 
REMARK    6  A    between atoms: C_24  and  C_25 
ROOT
HETATM    1  C   UNL     1      27.918  42.761  51.777  1.00  0.00     0.118 C 
HETATM    2  N   UNL     1      27.232  44.061  51.852  1.00  0.00    -0.365 N 
HETATM    3  C   UNL     1      27.192  44.744  53.034  1.00  0.00     0.138 A 
HETATM    4  N   UNL     1      27.698  44.190  54.187  1.00  0.00    -0.240 N 
HETATM    5  N   UNL     1      27.579  44.965  55.272  1.00  0.00    -0.181 NA
HETATM    6  C   UNL     1      27.007  46.071  54.791  1.00  0.00     0.160 A 
HETATM    7  C   UNL     1      26.707  45.987  53.406  1.00  0.00     0.096 A 
HETATM    8  C   UNL     1      28.301  42.875  54.278  1.00  0.00     0.221 C 
HETATM    9  C   UNL     1      27.800  42.010  53.114  1.00  0.00     0.066 C 
HETATM   10  H   UNL     1      27.364  44.597  50.990  1.00  0.00     0.161 HD
ENDROOT
BRANCH   7  11
HETATM   11  C   UNL     1      26.020  47.013  52.636  1.00  0.00     0.261 C 
HETATM   12  N   UNL     1      26.214  46.915  51.271  1.00  0.00    -0.323 N 
HETATM   13  H   UNL     1      26.771  46.125  50.968  1.00  0.00     0.169 HD
HETATM   14  O   UNL     1      25.322  47.842  53.206  1.00  0.00    -0.267 OA
BRANCH  12  15
HETATM   15  C   UNL     1      25.670  47.734  50.261  1.00  0.00     0.037 A 
HETATM   16  C   UNL     1      26.423  48.589  49.455  1.00  0.00     0.066 A 
HETATM   17  C   UNL     1      25.795  49.376  48.490  1.00  0.00     0.067 A 
HETATM   18  C   UNL     1      24.419  49.317  48.300  1.00  0.00     0.036 A 
HETATM   19  C   UNL     1      23.661  48.462  49.094  1.00  0.00     0.005 A 
HETATM   20  C   UNL     1      24.281  47.678  50.072  1.00  0.00     0.029 A 
BRANCH  17  21
HETATM   21  O   UNL     1      26.576  50.210  47.743  1.00  0.00    -0.361 OA
HETATM   22  H   UNL     1      26.768  49.783  46.893  1.00  0.00     0.217 HD
ENDBRANCH  17  21
ENDBRANCH  12  15
ENDBRANCH   7  11
BRANCH   1  23
HETATM   23  C   UNL     1      27.333  41.913  50.662  1.00  0.00    -0.035 A 
HETATM   24  C   UNL     1      27.140  40.536  50.862  1.00  0.00     0.012 A 
HETATM   25  C   UNL     1      26.512  39.748  49.891  1.00  0.00     0.037 A 
HETATM   26  C   UNL     1      26.064  40.324  48.704  1.00  0.00     0.068 A 
HETATM   27  C   UNL     1      26.274  41.686  48.485  1.00  0.00     0.037 A 
HETATM   28  C   UNL     1      26.895  42.478  49.456  1.00  0.00     0.012 A 
BRANCH  26  29
HETATM   29  O   UNL     1      25.417  39.671  47.692  1.00  0.00    -0.356 OA
HETATM   30  C   UNL     1      25.580  40.206  46.383  1.00  0.00     0.210 C 
ENDBRANCH  26  29
ENDBRANCH   1  23
BRANCH   8  31
HETATM   31  C   UNL     1      29.809  42.994  54.302  1.00  0.00     0.409 C 
HETATM   32  F   UNL     1      30.416  42.201  53.392  1.00  0.00    -0.169 F 
HETATM   33  F   UNL     1      30.244  44.255  54.107  1.00  0.00    -0.169 F 
HETATM   34  F   UNL     1      30.278  42.608  55.518  1.00  0.00    -0.169 F 
ENDBRANCH   8  31
TORSDOF 6
ENDMDL
MODEL 6
REMARK VINA RESULT:      -8.7      3.018      5.002
REMARK  6 active torsions:
REMARK  status: ('A' for Active; 'I' for Inactive)
REMARK    1  A    between atoms: O_2  and  C_3 
REMARK    2  A    between atoms: C_6  and  C_7 
REMARK    3  A    between atoms: C_13  and  C_14 
REMARK       I    between atoms: C_14  and  N_15 
REMARK    4  A    between atoms: N_15  and  C_16 
REMARK    5  A    between atoms: C_18  and  O_19 
REMARK    6  A    between atoms: C_24  and  C_25 
ROOT
HETATM    1  C   UNL     1      27.991  43.536  52.694  1.00  0.00     0.118 C 
HETATM    2  N   UNL     1      27.176  44.487  51.921  1.00  0.00    -0.365 N 
HETATM    3  C   UNL     1      26.513  45.494  52.562  1.00  0.00     0.138 A 
HETATM    4  N   UNL     1      26.512  45.577  53.935  1.00  0.00    -0.240 N 
HETATM    5  N   UNL     1      25.810  46.606  54.427  1.00  0.00    -0.181 NA
HETATM    6  C   UNL     1      25.374  47.225  53.328  1.00  0.00     0.160 A 
HETATM    7  C   UNL     1      25.749  46.565  52.129  1.00  0.00     0.096 A 
HETATM    8  C   UNL     1      27.180  44.644  54.821  1.00  0.00     0.221 C 
HETATM    9  C   UNL     1      27.383  43.312  54.088  1.00  0.00     0.066 C 
HETATM   10  H   UNL     1      27.610  44.694  51.018  1.00  0.00     0.161 HD
ENDROOT
BRANCH   7  11
HETATM   11  C   UNL     1      25.353  46.975  50.790  1.00  0.00     0.261 C 
HETATM   12  N   UNL     1      24.264  47.825  50.762  1.00  0.00    -0.323 N 
HETATM   13  H   UNL     1      23.898  48.092  51.668  1.00  0.00     0.169 HD
HETATM   14  O   UNL     1      25.992  46.591  49.818  1.00  0.00    -0.267 OA
BRANCH  12  15
HETATM   15  C   UNL     1      23.658  48.415  49.634  1.00  0.00     0.037 A 
HETATM   16  C   UNL     1      22.491  47.940  49.033  1.00  0.00     0.066 A 
HETATM   17  C   UNL     1      21.972  48.580  47.907  1.00  0.00     0.067 A 
HETATM   18  C   UNL     1      22.591  49.703  47.372  1.00  0.00     0.036 A 
HETATM   19  C   UNL     1      23.751  50.189  47.969  1.00  0.00     0.005 A 
HETATM   20  C   UNL     1      24.284  49.546  49.090  1.00  0.00     0.029 A 
BRANCH  17  21
HETATM   21  O   UNL     1      20.841  48.062  47.347  1.00  0.00    -0.361 OA
HETATM   22  H   UNL     1      20.487  48.698  46.706  1.00  0.00     0.217 HD
ENDBRANCH  17  21
ENDBRANCH  12  15
ENDBRANCH   7  11
BRANCH   1  23
HETATM   23  C   UNL     1      28.096  42.208  51.964  1.00  0.00    -0.035 A 
HETATM   24  C   UNL     1      27.552  42.077  50.676  1.00  0.00     0.012 A 
HETATM   25  C   UNL     1      27.720  40.898  49.940  1.00  0.00     0.037 A 
HETATM   26  C   UNL     1      28.437  39.832  50.478  1.00  0.00     0.068 A 
HETATM   27  C   UNL     1      28.959  39.944  51.768  1.00  0.00     0.037 A 
HETATM   28  C   UNL     1      28.800  41.122  52.503  1.00  0.00     0.012 A 
BRANCH  26  29
HETATM   29  O   UNL     1      28.691  38.642  49.855  1.00  0.00    -0.356 OA
HETATM   30  C   UNL     1      29.915  37.997  50.189  1.00  0.00     0.210 C 
ENDBRANCH  26  29
ENDBRANCH   1  23
BRANCH   8  31
HETATM   31  C   UNL     1      28.482  45.237  55.315  1.00  0.00     0.409 C 
HETATM   32  F   UNL     1      29.485  44.333  55.375  1.00  0.00    -0.169 F 
HETATM   33  F   UNL     1      28.908  46.276  54.569  1.00  0.00    -0.169 F 
HETATM   34  F   UNL     1      28.318  45.711  56.578  1.00  0.00    -0.169 F 
ENDBRANCH   8  31
TORSDOF 6
ENDMDL
MODEL 7
REMARK VINA RESULT:      -8.6      3.425      6.078
REMARK  6 active torsions:
REMARK  status: ('A' for Active; 'I' for Inactive)
REMARK    1  A    between atoms: O_2  and  C_3 
REMARK    2  A    between atoms: C_6  and  C_7 
REMARK    3  A    between atoms: C_13  and  C_14 
REMARK       I    between atoms: C_14  and  N_15 
REMARK    4  A    between atoms: N_15  and  C_16 
REMARK    5  A    between atoms: C_18  and  O_19 
REMARK    6  A    between atoms: C_24  and  C_25 
ROOT
HETATM    1  C   UNL     1      28.336  41.663  51.052  1.00  0.00     0.118 C 
HETATM    2  N   UNL     1      27.506  42.811  50.656  1.00  0.00    -0.365 N 
HETATM    3  C   UNL     1      27.081  43.703  51.600  1.00  0.00     0.138 A 
HETATM    4  N   UNL     1      27.332  43.491  52.935  1.00  0.00    -0.240 N 
HETATM    5  N   UNL     1      26.845  44.438  53.747  1.00  0.00    -0.181 NA
HETATM    6  C   UNL     1      26.290  45.307  52.898  1.00  0.00     0.160 A 
HETATM    7  C   UNL     1      26.372  44.892  51.543  1.00  0.00     0.096 A 
HETATM    8  C   UNL     1      28.042  42.347  53.472  1.00  0.00     0.221 C 
HETATM    9  C   UNL     1      27.965  41.190  52.467  1.00  0.00     0.066 C 
HETATM   10  H   UNL     1      27.792  43.175  49.743  1.00  0.00     0.161 HD
ENDROOT
BRANCH   7  11
HETATM   11  C   UNL     1      25.792  45.605  50.415  1.00  0.00     0.261 C 
HETATM   12  N   UNL     1      25.568  46.947  50.654  1.00  0.00    -0.323 N 
HETATM   13  H   UNL     1      25.867  47.282  51.561  1.00  0.00     0.169 HD
HETATM   14  O   UNL     1      25.577  45.015  49.363  1.00  0.00    -0.267 OA
BRANCH  12  15
HETATM   15  C   UNL     1      25.045  47.907  49.764  1.00  0.00     0.037 A 
HETATM   16  C   UNL     1      25.826  48.788  49.014  1.00  0.00     0.066 A 
HETATM   17  C   UNL     1      25.219  49.718  48.169  1.00  0.00     0.067 A 
HETATM   18  C   UNL     1      23.836  49.779  48.045  1.00  0.00     0.036 A 
HETATM   19  C   UNL     1      23.049  48.899  48.784  1.00  0.00     0.005 A 
HETATM   20  C   UNL     1      23.649  47.972  49.642  1.00  0.00     0.029 A 
BRANCH  17  21
HETATM   21  O   UNL     1      26.029  50.569  47.474  1.00  0.00    -0.361 OA
HETATM   22  H   UNL     1      26.270  50.155  46.631  1.00  0.00     0.217 HD
ENDBRANCH  17  21
ENDBRANCH  12  15
ENDBRANCH   7  11
BRANCH   1  23
HETATM   23  C   UNL     1      28.165  40.517  50.070  1.00  0.00    -0.035 A 
HETATM   24  C   UNL     1      27.726  40.781  48.762  1.00  0.00     0.012 A 
HETATM   25  C   UNL     1      27.654  39.760  47.807  1.00  0.00     0.037 A 
HETATM   26  C   UNL     1      28.022  38.459  48.143  1.00  0.00     0.068 A 
HETATM   27  C   UNL     1      28.435  38.183  49.447  1.00  0.00     0.037 A 
HETATM   28  C   UNL     1      28.515  39.201  50.402  1.00  0.00     0.012 A 
BRANCH  26  29
HETATM   29  O   UNL     1      28.020  37.383  47.299  1.00  0.00    -0.356 OA
HETATM   30  C   UNL     1      28.785  37.509  46.106  1.00  0.00     0.210 C 
ENDBRANCH  26  29
ENDBRANCH   1  23
BRANCH   8  31
HETATM   31  C   UNL     1      29.467  42.728  53.807  1.00  0.00     0.409 C 
HETATM   32  F   UNL     1      30.382  41.986  53.145  1.00  0.00    -0.169 F 
HETATM   33  F   UNL     1      29.738  44.027  53.568  1.00  0.00    -0.169 F 
HETATM   34  F   UNL     1      29.695  42.524  55.132  1.00  0.00    -0.169 F 
ENDBRANCH   8  31
TORSDOF 6
ENDMDL
MODEL 8
REMARK VINA RESULT:      -8.5      4.391     10.072
REMARK  6 active torsions:
REMARK  status: ('A' for Active; 'I' for Inactive)
REMARK    1  A    between atoms: O_2  and  C_3 
REMARK    2  A    between atoms: C_6  and  C_7 
REMARK    3  A    between atoms: C_13  and  C_14 
REMARK       I    between atoms: C_14  and  N_15 
REMARK    4  A    between atoms: N_15  and  C_16 
REMARK    5  A    between atoms: C_18  and  O_19 
REMARK    6  A    between atoms: C_24  and  C_25 
ROOT
HETATM    1  C   UNL     1      21.486  47.878  48.761  1.00  0.00     0.118 C 
HETATM    2  N   UNL     1      22.517  47.045  49.401  1.00  0.00    -0.365 N 
HETATM    3  C   UNL     1      23.792  47.518  49.530  1.00  0.00     0.138 A 
HETATM    4  N   UNL     1      24.156  48.725  48.981  1.00  0.00    -0.240 N 
HETATM    5  N   UNL     1      25.439  49.056  49.173  1.00  0.00    -0.181 NA
HETATM    6  C   UNL     1      25.906  48.039  49.902  1.00  0.00     0.160 A 
HETATM    7  C   UNL     1      24.938  47.028  50.133  1.00  0.00     0.096 A 
HETATM    8  C   UNL     1      23.271  49.594  48.231  1.00  0.00     0.221 C 
HETATM    9  C   UNL     1      22.109  48.765  47.670  1.00  0.00     0.066 C 
HETATM   10  H   UNL     1      22.123  46.502  50.173  1.00  0.00     0.161 HD
ENDROOT
BRANCH   7  11
HETATM   11  C   UNL     1      25.188  45.777  50.834  1.00  0.00     0.261 C 
HETATM   12  N   UNL     1      26.422  45.716  51.451  1.00  0.00    -0.323 N 
HETATM   13  H   UNL     1      26.986  46.554  51.379  1.00  0.00     0.169 HD
HETATM   14  O   UNL     1      24.324  44.908  50.863  1.00  0.00    -0.267 OA
BRANCH  12  15
HETATM   15  C   UNL     1      26.950  44.661  52.224  1.00  0.00     0.037 A 
HETATM   16  C   UNL     1      27.903  43.751  51.761  1.00  0.00     0.066 A 
HETATM   17  C   UNL     1      28.356  42.727  52.593  1.00  0.00     0.067 A 
HETATM   18  C   UNL     1      27.884  42.599  53.895  1.00  0.00     0.036 A 
HETATM   19  C   UNL     1      26.939  43.506  54.367  1.00  0.00     0.005 A 
HETATM   20  C   UNL     1      26.471  44.528  53.536  1.00  0.00     0.029 A 
BRANCH  17  21
HETATM   21  O   UNL     1      29.272  41.854  52.085  1.00  0.00    -0.361 OA
HETATM   22  H   UNL     1      28.833  41.274  51.443  1.00  0.00     0.217 HD
ENDBRANCH  17  21
ENDBRANCH  12  15
ENDBRANCH   7  11
BRANCH   1  23
HETATM   23  C   UNL     1      20.400  47.008  48.152  1.00  0.00    -0.035 A 
HETATM   24  C   UNL     1      20.746  45.802  47.521  1.00  0.00     0.012 A 
HETATM   25  C   UNL     1      19.760  44.932  47.040  1.00  0.00     0.037 A 
HETATM   26  C   UNL     1      18.412  45.253  47.184  1.00  0.00     0.068 A 
HETATM   27  C   UNL     1      18.059  46.461  47.788  1.00  0.00     0.037 A 
HETATM   28  C   UNL     1      19.041  47.328  48.276  1.00  0.00     0.012 A 
BRANCH  26  29
HETATM   29  O   UNL     1      17.358  44.481  46.781  1.00  0.00    -0.356 OA
HETATM   30  C   UNL     1      17.106  44.431  45.381  1.00  0.00     0.210 C 
ENDBRANCH  26  29
ENDBRANCH   1  23
BRANCH   8  31
HETATM   31  C   UNL     1      22.798  50.735  49.104  1.00  0.00     0.409 C 
HETATM   32  F   UNL     1      22.272  50.319  50.278  1.00  0.00    -0.169 F 
HETATM   33  F   UNL     1      23.770  51.628  49.381  1.00  0.00    -0.169 F 
HETATM   34  F   UNL     1      21.814  51.422  48.466  1.00  0.00    -0.169 F 
ENDBRANCH   8  31
TORSDOF 6
ENDMDL
MODEL 9
REMARK VINA RESULT:      -8.3      4.336      9.800
REMARK  6 active torsions:
REMARK  status: ('A' for Active; 'I' for Inactive)
REMARK    1  A    between atoms: O_2  and  C_3 
REMARK    2  A    between atoms: C_6  and  C_7 
REMARK    3  A    between atoms: C_13  and  C_14 
REMARK       I    between atoms: C_14  and  N_15 
REMARK    4  A    between atoms: N_15  and  C_16 
REMARK    5  A    between atoms: C_18  and  O_19 
REMARK    6  A    between atoms: C_24  and  C_25 
ROOT
HETATM    1  C   UNL     1      21.763  48.225  48.845  1.00  0.00     0.118 C 
HETATM    2  N   UNL     1      22.942  47.559  49.419  1.00  0.00    -0.365 N 
HETATM    3  C   UNL     1      24.177  48.130  49.293  1.00  0.00     0.138 A 
HETATM    4  N   UNL     1      24.353  49.274  48.549  1.00  0.00    -0.240 N 
HETATM    5  N   UNL     1      25.617  49.713  48.501  1.00  0.00    -0.181 NA
HETATM    6  C   UNL     1      26.269  48.839  49.271  1.00  0.00     0.160 A 
HETATM    7  C   UNL     1      25.436  47.805  49.770  1.00  0.00     0.096 A 
HETATM    8  C   UNL     1      23.298  49.970  47.841  1.00  0.00     0.221 C 
HETATM    9  C   UNL     1      22.144  48.996  47.571  1.00  0.00     0.066 C 
HETATM   10  H   UNL     1      22.712  47.100  50.304  1.00  0.00     0.161 HD
ENDROOT
BRANCH   7  11
HETATM   11  C   UNL     1      25.890  46.680  50.574  1.00  0.00     0.261 C 
HETATM   12  N   UNL     1      25.707  46.852  51.933  1.00  0.00    -0.323 N 
HETATM   13  H   UNL     1      25.246  47.712  52.204  1.00  0.00     0.169 HD
HETATM   14  O   UNL     1      26.355  45.686  50.030  1.00  0.00    -0.267 OA
BRANCH  12  15
HETATM   15  C   UNL     1      26.017  45.945  52.967  1.00  0.00     0.037 A 
HETATM   16  C   UNL     1      27.123  46.066  53.812  1.00  0.00     0.066 A 
HETATM   17  C   UNL     1      27.359  45.109  54.798  1.00  0.00     0.067 A 
HETATM   18  C   UNL     1      26.500  44.030  54.972  1.00  0.00     0.036 A 
HETATM   19  C   UNL     1      25.390  43.905  54.140  1.00  0.00     0.005 A 
HETATM   20  C   UNL     1      25.153  44.853  53.140  1.00  0.00     0.029 A 
BRANCH  17  21
HETATM   21  O   UNL     1      28.464  45.265  55.583  1.00  0.00    -0.361 OA
HETATM   22  H   UNL     1      28.312  45.998  56.199  1.00  0.00     0.217 HD
ENDBRANCH  17  21
ENDBRANCH  12  15
ENDBRANCH   7  11
BRANCH   1  23
HETATM   23  C   UNL     1      20.681  47.210  48.522  1.00  0.00    -0.035 A 
HETATM   24  C   UNL     1      19.329  47.581  48.609  1.00  0.00     0.012 A 
HETATM   25  C   UNL     1      18.314  46.699  48.222  1.00  0.00     0.037 A 
HETATM   26  C   UNL     1      18.633  45.432  47.740  1.00  0.00     0.068 A 
HETATM   27  C   UNL     1      19.972  45.044  47.675  1.00  0.00     0.037 A 
HETATM   28  C   UNL     1      20.989  45.925  48.053  1.00  0.00     0.012 A 
BRANCH  26  29
HETATM   29  O   UNL     1      17.739  44.490  47.310  1.00  0.00    -0.356 OA
HETATM   30  C   UNL     1      17.328  44.578  45.950  1.00  0.00     0.210 C 
ENDBRANCH  26  29
ENDBRANCH   1  23
BRANCH   8  31
HETATM   31  C   UNL     1      22.857  51.185  48.628  1.00  0.00     0.409 C 
HETATM   32  F   UNL     1      21.566  51.518  48.406  1.00  0.00    -0.169 F 
HETATM   33  F   UNL     1      23.024  51.044  49.958  1.00  0.00    -0.169 F 
HETATM   34  F   UNL     1      23.598  52.263  48.258  1.00  0.00    -0.169 F 
ENDBRANCH   8  31
TORSDOF 6
ENDMDL
MODEL 10
REMARK VINA RESULT:      -8.1     17.490     20.084
REMARK  6 active torsions:
REMARK  status: ('A' for Active; 'I' for Inactive)
REMARK    1  A    between atoms: O_2  and  C_3 
REMARK    2  A    between atoms: C_6  and  C_7 
REMARK    3  A    between atoms: C_13  and  C_14 
REMARK       I    between atoms: C_14  and  N_15 
REMARK    4  A    between atoms: N_15  and  C_16 
REMARK    5  A    between atoms: C_18  and  O_19 
REMARK    6  A    between atoms: C_24  and  C_25 
ROOT
HETATM    1  C   UNL     1      40.785  47.271  64.906  1.00  0.00     0.118 C 
HETATM    2  N   UNL     1      40.049  46.040  64.579  1.00  0.00    -0.365 N 
HETATM    3  C   UNL     1      38.719  45.942  64.874  1.00  0.00     0.138 A 
HETATM    4  N   UNL     1      38.074  46.941  65.564  1.00  0.00    -0.240 N 
HETATM    5  N   UNL     1      36.776  46.705  65.795  1.00  0.00    -0.181 NA
HETATM    6  C   UNL     1      36.574  45.527  65.200  1.00  0.00     0.160 A 
HETATM    7  C   UNL     1      37.753  44.978  64.634  1.00  0.00     0.096 A 
HETATM    8  C   UNL     1      38.703  48.156  66.043  1.00  0.00     0.221 C 
HETATM    9  C   UNL     1      40.213  47.921  66.176  1.00  0.00     0.066 C 
HETATM   10  H   UNL     1      40.379  45.637  63.698  1.00  0.00     0.161 HD
ENDROOT
BRANCH   7  11
HETATM   11  C   UNL     1      37.843  43.678  63.987  1.00  0.00     0.261 C 
HETATM   12  N   UNL     1      38.821  42.855  64.513  1.00  0.00    -0.323 N 
HETATM   13  H   UNL     1      39.327  43.234  65.305  1.00  0.00     0.169 HD
HETATM   14  O   UNL     1      37.068  43.389  63.083  1.00  0.00    -0.267 OA
BRANCH  12  15
HETATM   15  C   UNL     1      39.139  41.537  64.128  1.00  0.00     0.037 A 
HETATM   16  C   UNL     1      39.268  41.117  62.802  1.00  0.00     0.066 A 
HETATM   17  C   UNL     1      39.570  39.786  62.515  1.00  0.00     0.067 A 
HETATM   18  C   UNL     1      39.762  38.858  63.532  1.00  0.00     0.036 A 
HETATM   19  C   UNL     1      39.643  39.269  64.857  1.00  0.00     0.005 A 
HETATM   20  C   UNL     1      39.328  40.599  65.154  1.00  0.00     0.029 A 
BRANCH  17  21
HETATM   21  O   UNL     1      39.665  39.425  61.203  1.00  0.00    -0.361 OA
HETATM   22  H   UNL     1      39.839  40.216  60.670  1.00  0.00     0.217 HD
ENDBRANCH  17  21
ENDBRANCH  12  15
ENDBRANCH   7  11
BRANCH   1  23
HETATM   23  C   UNL     1      42.261  46.973  65.106  1.00  0.00    -0.035 A 
HETATM   24  C   UNL     1      42.938  46.161  64.182  1.00  0.00     0.012 A 
HETATM   25  C   UNL     1      44.318  45.950  64.285  1.00  0.00     0.037 A 
HETATM   26  C   UNL     1      45.044  46.550  65.311  1.00  0.00     0.068 A 
HETATM   27  C   UNL     1      44.376  47.338  66.249  1.00  0.00     0.037 A 
HETATM   28  C   UNL     1      42.998  47.557  66.145  1.00  0.00     0.012 A 
BRANCH  26  29
HETATM   29  O   UNL     1      46.393  46.443  65.506  1.00  0.00    -0.356 OA
HETATM   30  C   UNL     1      46.824  45.470  66.452  1.00  0.00     0.210 C 
ENDBRANCH  26  29
ENDBRANCH   1  23
BRANCH   8  31
HETATM   31  C   UNL     1      38.376  49.310  65.120  1.00  0.00     0.409 C 
HETATM   32  F   UNL     1      39.426  50.134  64.913  1.00  0.00    -0.169 F 
HETATM   33  F   UNL     1      37.920  48.911  63.915  1.00  0.00    -0.169 F 
HETATM   34  F   UNL     1      37.395  50.072  65.671  1.00  0.00    -0.169 F 
ENDBRANCH   8  31
TORSDOF 6
ENDMDL
