MODEL 1
REMARK VINA RESULT:     -11.0      0.000      0.000
REMARK  7 active torsions:
REMARK  status: ('A' for Active; 'I' for Inactive)
REMARK    1  A    between atoms: N_8  and  C_9 
REMARK    2  A    between atoms: C_9  and  C_10 
REMARK    3  A    between atoms: C_13  and  C_14 
REMARK       I    between atoms: C_14  and  N_15 
REMARK    4  A    between atoms: N_15  and  N_16 
REMARK    5  A    between atoms: C_17  and  C_18 
REMARK    6  A    between atoms: C_19  and  O_20 
REMARK    7  A    between atoms: C_22  and  O_23 
ROOT
HETATM    1  C   UNL     1      26.389  44.422  51.292  1.00  0.00    -0.040 A 
HETATM    2  C   UNL     1      25.048  44.723  51.570  1.00  0.00     0.010 A 
HETATM    3  C   UNL     1      24.436  45.842  50.998  1.00  0.00     0.017 A 
HETATM    4  C   UNL     1      25.153  46.680  50.136  1.00  0.00     0.033 A 
HETATM    5  C   UNL     1      26.486  46.372  49.836  1.00  0.00     0.017 A 
HETATM    6  C   UNL     1      27.098  45.255  50.415  1.00  0.00     0.010 A 
ENDROOT
BRANCH   4   7
HETATM    7  C   UNL     1      24.442  47.846  49.534  1.00  0.00     0.271 C 
HETATM    8  N   UNL     1      23.059  47.852  49.659  1.00  0.00    -0.243 N 
HETATM    9  H   UNL     1      22.559  47.061  50.042  1.00  0.00     0.192 HD
HETATM   10  O   UNL     1      25.088  48.716  48.955  1.00  0.00    -0.266 OA
BRANCH   8  11
HETATM   11  N   UNL     1      22.359  48.912  49.168  1.00  0.00    -0.183 NA
HETATM   12  C   UNL     1      21.096  48.719  48.959  1.00  0.00     0.153 C 
BRANCH  12  13
HETATM   13  C   UNL     1      20.248  49.810  48.441  1.00  0.00     0.016 A 
HETATM   14  C   UNL     1      20.041  50.998  49.158  1.00  0.00     0.080 A 
HETATM   15  C   UNL     1      19.227  52.001  48.639  1.00  0.00     0.074 A 
HETATM   16  C   UNL     1      18.616  51.812  47.403  1.00  0.00     0.068 A 
HETATM   17  C   UNL     1      18.812  50.638  46.681  1.00  0.00     0.037 A 
HETATM   18  C   UNL     1      19.630  49.631  47.198  1.00  0.00     0.018 A 
BRANCH  14  19
HETATM   19  O   UNL     1      20.607  51.249  50.379  1.00  0.00    -0.360 OA
HETATM   20  H   UNL     1      21.291  51.950  50.272  1.00  0.00     0.217 HD
ENDBRANCH  14  19
BRANCH  16  21
HETATM   21  O   UNL     1      17.808  52.764  46.857  1.00  0.00    -0.361 OA
HETATM   22  H   UNL     1      17.779  53.526  47.460  1.00  0.00     0.217 HD
ENDBRANCH  16  21
ENDBRANCH  12  13
ENDBRANCH   8  11
ENDBRANCH   4   7
BRANCH   1  23
HETATM   23  C   UNL     1      27.035  43.195  51.895  1.00  0.00     0.171 C 
BRANCH  23  24
HETATM   24  N   UNL     1      27.933  43.517  52.979  1.00  0.00    -0.309 N 
HETATM   25  C   UNL     1      27.855  44.636  53.813  1.00  0.00     0.050 A 
HETATM   26  C   UNL     1      28.925  44.568  54.676  1.00  0.00     0.017 A 
HETATM   27  C   UNL     1      26.947  45.680  53.893  1.00  0.00     0.031 A 
HETATM   28  C   UNL     1      29.663  43.433  54.398  1.00  0.00     0.045 A 
HETATM   29  C   UNL     1      29.204  45.478  55.652  1.00  0.00    -0.023 A 
HETATM   30  C   UNL     1      30.801  43.153  55.151  1.00  0.00     0.018 A 
HETATM   31  C   UNL     1      29.054  42.712  53.297  1.00  0.00     0.259 A 
HETATM   32  C   UNL     1      31.128  44.069  56.171  1.00  0.00     0.002 A 
HETATM   33  C   UNL     1      30.349  45.217  56.428  1.00  0.00     0.012 A 
HETATM   34  O   UNL     1      29.368  41.666  52.743  1.00  0.00    -0.267 OA
HETATM   35  C   UNL     1      28.308  46.558  55.759  1.00  0.00     0.012 A 
HETATM   36  C   UNL     1      27.199  46.648  54.889  1.00  0.00     0.003 A 
ENDBRANCH  23  24
ENDBRANCH   1  23
TORSDOF 7
ENDMDL
MODEL 2
REMARK VINA RESULT:     -10.9      2.532     11.127
REMARK  7 active torsions:
REMARK  status: ('A' for Active; 'I' for Inactive)
REMARK    1  A    between atoms: N_8  and  C_9 
REMARK    2  A    between atoms: C_9  and  C_10 
REMARK    3  A    between atoms: C_13  and  C_14 
REMARK       I    between atoms: C_14  and  N_15 
REMARK    4  A    between atoms: N_15  and  N_16 
REMARK    5  A    between atoms: C_17  and  C_18 
REMARK    6  A    between atoms: C_19  and  O_20 
REMARK    7  A    between atoms: C_22  and  O_23 
ROOT
HETATM    1  C   UNL     1      23.402  45.749  49.325  1.00  0.00    -0.040 A 
HETATM    2  C   UNL     1      24.277  46.637  49.968  1.00  0.00     0.010 A 
HETATM    3  C   UNL     1      24.982  46.240  51.107  1.00  0.00     0.017 A 
HETATM    4  C   UNL     1      24.827  44.949  51.625  1.00  0.00     0.033 A 
HETATM    5  C   UNL     1      23.973  44.050  50.974  1.00  0.00     0.017 A 
HETATM    6  C   UNL     1      23.263  44.451  49.837  1.00  0.00     0.010 A 
ENDROOT
BRANCH   4   7
HETATM    7  C   UNL     1      25.624  44.572  52.829  1.00  0.00     0.271 C 
HETATM    8  N   UNL     1      27.002  44.712  52.721  1.00  0.00    -0.243 N 
HETATM    9  H   UNL     1      27.441  44.953  51.843  1.00  0.00     0.192 HD
HETATM   10  O   UNL     1      25.048  44.149  53.828  1.00  0.00    -0.266 OA
BRANCH   8  11
HETATM   11  N   UNL     1      27.779  44.425  53.801  1.00  0.00    -0.183 NA
HETATM   12  C   UNL     1      28.398  45.423  54.345  1.00  0.00     0.153 C 
BRANCH  12  13
HETATM   13  C   UNL     1      29.254  45.217  55.530  1.00  0.00     0.016 A 
HETATM   14  C   UNL     1      30.248  44.228  55.568  1.00  0.00     0.080 A 
HETATM   15  C   UNL     1      31.030  44.059  56.708  1.00  0.00     0.074 A 
HETATM   16  C   UNL     1      30.813  44.879  57.811  1.00  0.00     0.068 A 
HETATM   17  C   UNL     1      29.830  45.865  57.787  1.00  0.00     0.037 A 
HETATM   18  C   UNL     1      29.046  46.038  56.644  1.00  0.00     0.018 A 
BRANCH  14  19
HETATM   19  O   UNL     1      30.513  43.385  54.523  1.00  0.00    -0.360 OA
HETATM   20  H   UNL     1      30.841  43.918  53.762  1.00  0.00     0.217 HD
ENDBRANCH  14  19
BRANCH  16  21
HETATM   21  O   UNL     1      31.551  44.748  58.949  1.00  0.00    -0.361 OA
HETATM   22  H   UNL     1      32.359  44.250  58.737  1.00  0.00     0.217 HD
ENDBRANCH  16  21
ENDBRANCH  12  13
ENDBRANCH   8  11
ENDBRANCH   4   7
BRANCH   1  23
HETATM   23  C   UNL     1      22.662  46.178  48.077  1.00  0.00     0.171 C 
BRANCH  23  24
HETATM   24  N   UNL     1      21.621  47.139  48.352  1.00  0.00    -0.309 N 
HETATM   25  C   UNL     1      21.758  48.530  48.355  1.00  0.00     0.050 A 
HETATM   26  C   UNL     1      20.534  49.053  48.705  1.00  0.00     0.017 A 
HETATM   27  C   UNL     1      22.829  49.363  48.074  1.00  0.00     0.031 A 
HETATM   28  C   UNL     1      19.641  48.019  48.918  1.00  0.00     0.045 A 
HETATM   29  C   UNL     1      20.252  50.382  48.817  1.00  0.00    -0.023 A 
HETATM   30  C   UNL     1      18.329  48.311  49.283  1.00  0.00     0.018 A 
HETATM   31  C   UNL     1      20.304  46.749  48.698  1.00  0.00     0.259 A 
HETATM   32  C   UNL     1      17.994  49.674  49.413  1.00  0.00     0.002 A 
HETATM   33  C   UNL     1      18.933  50.702  49.185  1.00  0.00     0.012 A 
HETATM   34  O   UNL     1      19.889  45.598  48.765  1.00  0.00    -0.267 OA
HETATM   35  C   UNL     1      21.318  51.260  48.547  1.00  0.00     0.012 A 
HETATM   36  C   UNL     1      22.583  50.749  48.181  1.00  0.00     0.003 A 
ENDBRANCH  23  24
ENDBRANCH   1  23
TORSDOF 7
ENDMDL
MODEL 3
REMARK VINA RESULT:     -10.5      2.320     11.134
REMARK  7 active torsions:
REMARK  status: ('A' for Active; 'I' for Inactive)
REMARK    1  A    between atoms: N_8  and  C_9 
REMARK    2  A    between atoms: C_9  and  C_10 
REMARK    3  A    between atoms: C_13  and  C_14 
REMARK       I    between atoms: C_14  and  N_15 
REMARK    4  A    between atoms: N_15  and  N_16 
REMARK    5  A    between atoms: C_17  and  C_18 
REMARK    6  A    between atoms: C_19  and  O_20 
REMARK    7  A    between atoms: C_22  and  O_23 
ROOT
HETATM    1  C   UNL     1      23.076  45.930  48.952  1.00  0.00    -0.040 A 
HETATM    2  C   UNL     1      24.081  46.713  49.539  1.00  0.00     0.010 A 
HETATM    3  C   UNL     1      24.831  46.222  50.611  1.00  0.00     0.017 A 
HETATM    4  C   UNL     1      24.591  44.939  51.117  1.00  0.00     0.033 A 
HETATM    5  C   UNL     1      23.605  44.143  50.521  1.00  0.00     0.017 A 
HETATM    6  C   UNL     1      22.851  44.639  49.451  1.00  0.00     0.010 A 
ENDROOT
BRANCH   4   7
HETATM    7  C   UNL     1      25.438  44.457  52.247  1.00  0.00     0.271 C 
HETATM    8  N   UNL     1      26.812  44.494  52.042  1.00  0.00    -0.243 N 
HETATM    9  H   UNL     1      27.206  44.733  51.142  1.00  0.00     0.192 HD
HETATM   10  O   UNL     1      24.903  44.042  53.272  1.00  0.00    -0.266 OA
BRANCH   8  11
HETATM   11  N   UNL     1      27.638  44.107  53.053  1.00  0.00    -0.183 NA
HETATM   12  C   UNL     1      28.235  45.056  53.701  1.00  0.00     0.153 C 
BRANCH  12  13
HETATM   13  C   UNL     1      29.141  44.740  54.824  1.00  0.00     0.016 A 
HETATM   14  C   UNL     1      29.233  45.560  55.958  1.00  0.00     0.080 A 
HETATM   15  C   UNL     1      30.106  45.233  56.994  1.00  0.00     0.074 A 
HETATM   16  C   UNL     1      30.888  44.087  56.889  1.00  0.00     0.068 A 
HETATM   17  C   UNL     1      30.807  43.265  55.769  1.00  0.00     0.037 A 
HETATM   18  C   UNL     1      29.930  43.589  54.730  1.00  0.00     0.018 A 
BRANCH  14  19
HETATM   19  O   UNL     1      28.497  46.701  56.126  1.00  0.00    -0.360 OA
HETATM   20  H   UNL     1      29.038  47.357  56.625  1.00  0.00     0.217 HD
ENDBRANCH  14  19
BRANCH  16  21
HETATM   21  O   UNL     1      31.759  43.729  57.874  1.00  0.00    -0.361 OA
HETATM   22  H   UNL     1      32.481  44.380  57.899  1.00  0.00     0.217 HD
ENDBRANCH  16  21
ENDBRANCH  12  13
ENDBRANCH   8  11
ENDBRANCH   4   7
BRANCH   1  23
HETATM   23  C   UNL     1      22.287  46.459  47.776  1.00  0.00     0.171 C 
BRANCH  23  24
HETATM   24  N   UNL     1      21.592  47.687  48.081  1.00  0.00    -0.309 N 
HETATM   25  C   UNL     1      20.264  47.803  48.502  1.00  0.00     0.050 A 
HETATM   26  C   UNL     1      20.003  49.148  48.637  1.00  0.00     0.017 A 
HETATM   27  C   UNL     1      19.287  46.861  48.782  1.00  0.00     0.031 A 
HETATM   28  C   UNL     1      21.137  49.867  48.312  1.00  0.00     0.045 A 
HETATM   29  C   UNL     1      18.812  49.679  49.035  1.00  0.00    -0.023 A 
HETATM   30  C   UNL     1      21.110  51.258  48.379  1.00  0.00     0.018 A 
HETATM   31  C   UNL     1      22.204  48.956  47.943  1.00  0.00     0.259 A 
HETATM   32  C   UNL     1      19.897  51.851  48.784  1.00  0.00     0.002 A 
HETATM   33  C   UNL     1      18.759  51.083  49.111  1.00  0.00     0.012 A 
HETATM   34  O   UNL     1      23.362  49.163  47.601  1.00  0.00    -0.267 OA
HETATM   35  C   UNL     1      17.792  48.753  49.322  1.00  0.00     0.012 A 
HETATM   36  C   UNL     1      18.036  47.367  49.195  1.00  0.00     0.003 A 
ENDBRANCH  23  24
ENDBRANCH   1  23
TORSDOF 7
ENDMDL
MODEL 4
REMARK VINA RESULT:      -9.8      1.647      2.577
REMARK  7 active torsions:
REMARK  status: ('A' for Active; 'I' for Inactive)
REMARK    1  A    between atoms: N_8  and  C_9 
REMARK    2  A    between atoms: C_9  and  C_10 
REMARK    3  A    between atoms: C_13  and  C_14 
REMARK       I    between atoms: C_14  and  N_15 
REMARK    4  A    between atoms: N_15  and  N_16 
REMARK    5  A    between atoms: C_17  and  C_18 
REMARK    6  A    between atoms: C_19  and  O_20 
REMARK    7  A    between atoms: C_22  and  O_23 
ROOT
HETATM    1  C   UNL     1      25.555  44.001  51.216  1.00  0.00    -0.040 A 
HETATM    2  C   UNL     1      24.176  43.783  51.084  1.00  0.00     0.010 A 
HETATM    3  C   UNL     1      23.393  44.637  50.303  1.00  0.00     0.017 A 
HETATM    4  C   UNL     1      23.972  45.725  49.640  1.00  0.00     0.033 A 
HETATM    5  C   UNL     1      25.352  45.934  49.750  1.00  0.00     0.017 A 
HETATM    6  C   UNL     1      26.135  45.082  50.536  1.00  0.00     0.010 A 
ENDROOT
BRANCH   4   7
HETATM    7  C   UNL     1      23.092  46.589  48.801  1.00  0.00     0.271 C 
HETATM    8  N   UNL     1      22.706  47.800  49.362  1.00  0.00    -0.243 N 
HETATM    9  H   UNL     1      22.923  48.031  50.322  1.00  0.00     0.192 HD
HETATM   10  O   UNL     1      22.740  46.199  47.691  1.00  0.00    -0.266 OA
BRANCH   8  11
HETATM   11  N   UNL     1      21.938  48.650  48.626  1.00  0.00    -0.183 NA
HETATM   12  C   UNL     1      20.900  49.145  49.220  1.00  0.00     0.153 C 
BRANCH  12  13
HETATM   13  C   UNL     1      20.011  50.089  48.512  1.00  0.00     0.016 A 
HETATM   14  C   UNL     1      19.323  49.729  47.344  1.00  0.00     0.080 A 
HETATM   15  C   UNL     1      18.499  50.649  46.700  1.00  0.00     0.074 A 
HETATM   16  C   UNL     1      18.371  51.932  47.225  1.00  0.00     0.068 A 
HETATM   17  C   UNL     1      19.049  52.303  48.383  1.00  0.00     0.037 A 
HETATM   18  C   UNL     1      19.873  51.380  49.032  1.00  0.00     0.018 A 
BRANCH  14  19
HETATM   19  O   UNL     1      19.406  48.488  46.772  1.00  0.00    -0.360 OA
HETATM   20  H   UNL     1      19.428  48.592  45.792  1.00  0.00     0.217 HD
ENDBRANCH  14  19
BRANCH  16  21
HETATM   21  O   UNL     1      17.581  52.867  46.627  1.00  0.00    -0.361 OA
HETATM   22  H   UNL     1      16.690  52.811  47.013  1.00  0.00     0.217 HD
ENDBRANCH  16  21
ENDBRANCH  12  13
ENDBRANCH   8  11
ENDBRANCH   4   7
BRANCH   1  23
HETATM   23  C   UNL     1      26.401  43.057  52.041  1.00  0.00     0.171 C 
BRANCH  23  24
HETATM   24  N   UNL     1      27.122  43.733  53.093  1.00  0.00    -0.309 N 
HETATM   25  C   UNL     1      28.433  43.470  53.499  1.00  0.00     0.050 A 
HETATM   26  C   UNL     1      28.704  44.314  54.552  1.00  0.00     0.017 A 
HETATM   27  C   UNL     1      29.396  42.588  53.034  1.00  0.00     0.031 A 
HETATM   28  C   UNL     1      27.592  45.094  54.808  1.00  0.00     0.045 A 
HETATM   29  C   UNL     1      29.886  44.370  55.229  1.00  0.00    -0.023 A 
HETATM   30  C   UNL     1      27.634  46.031  55.838  1.00  0.00     0.018 A 
HETATM   31  C   UNL     1      26.532  44.752  53.880  1.00  0.00     0.259 A 
HETATM   32  C   UNL     1      28.837  46.121  56.566  1.00  0.00     0.002 A 
HETATM   33  C   UNL     1      29.953  45.309  56.274  1.00  0.00     0.012 A 
HETATM   34  O   UNL     1      25.398  45.198  53.746  1.00  0.00    -0.267 OA
HETATM   35  C   UNL     1      30.887  43.482  54.790  1.00  0.00     0.012 A 
HETATM   36  C   UNL     1      30.635  42.610  53.708  1.00  0.00     0.003 A 
ENDBRANCH  23  24
ENDBRANCH   1  23
TORSDOF 7
ENDMDL
MODEL 5
REMARK VINA RESULT:      -9.8      2.985     10.865
REMARK  7 active torsions:
REMARK  status: ('A' for Active; 'I' for Inactive)
REMARK    1  A    between atoms: N_8  and  C_9 
REMARK    2  A    between atoms: C_9  and  C_10 
REMARK    3  A    between atoms: C_13  and  C_14 
REMARK       I    between atoms: C_14  and  N_15 
REMARK    4  A    between atoms: N_15  and  N_16 
REMARK    5  A    between atoms: C_17  and  C_18 
REMARK    6  A    between atoms: C_19  and  O_20 
REMARK    7  A    between atoms: C_22  and  O_23 
ROOT
HETATM    1  C   UNL     1      22.999  44.173  48.780  1.00  0.00    -0.040 A 
HETATM    2  C   UNL     1      24.340  44.280  48.385  1.00  0.00     0.010 A 
HETATM    3  C   UNL     1      25.371  43.956  49.270  1.00  0.00     0.017 A 
HETATM    4  C   UNL     1      25.081  43.519  50.568  1.00  0.00     0.033 A 
HETATM    5  C   UNL     1      23.744  43.388  50.961  1.00  0.00     0.017 A 
HETATM    6  C   UNL     1      22.713  43.718  50.076  1.00  0.00     0.010 A 
ENDROOT
BRANCH   4   7
HETATM    7  C   UNL     1      26.221  43.164  51.463  1.00  0.00     0.271 C 
HETATM    8  N   UNL     1      26.893  44.226  52.053  1.00  0.00    -0.243 N 
HETATM    9  H   UNL     1      26.686  45.185  51.805  1.00  0.00     0.192 HD
HETATM   10  O   UNL     1      26.522  41.983  51.621  1.00  0.00    -0.266 OA
BRANCH   8  11
HETATM   11  N   UNL     1      27.914  43.963  52.914  1.00  0.00    -0.183 NA
HETATM   12  C   UNL     1      28.011  44.739  53.945  1.00  0.00     0.153 C 
BRANCH  12  13
HETATM   13  C   UNL     1      29.077  44.527  54.944  1.00  0.00     0.016 A 
HETATM   14  C   UNL     1      29.334  45.452  55.966  1.00  0.00     0.080 A 
HETATM   15  C   UNL     1      30.354  45.220  56.886  1.00  0.00     0.074 A 
HETATM   16  C   UNL     1      31.119  44.063  56.777  1.00  0.00     0.068 A 
HETATM   17  C   UNL     1      30.875  43.136  55.768  1.00  0.00     0.037 A 
HETATM   18  C   UNL     1      29.851  43.365  54.846  1.00  0.00     0.018 A 
BRANCH  14  19
HETATM   19  O   UNL     1      28.625  46.611  56.130  1.00  0.00    -0.360 OA
HETATM   20  H   UNL     1      29.160  47.362  55.783  1.00  0.00     0.217 HD
ENDBRANCH  14  19
BRANCH  16  21
HETATM   21  O   UNL     1      32.130  43.796  57.651  1.00  0.00    -0.361 OA
HETATM   22  H   UNL     1      32.640  43.042  57.311  1.00  0.00     0.217 HD
ENDBRANCH  16  21
ENDBRANCH  12  13
ENDBRANCH   8  11
ENDBRANCH   4   7
BRANCH   1  23
HETATM   23  C   UNL     1      21.888  44.501  47.807  1.00  0.00     0.171 C 
BRANCH  23  24
HETATM   24  N   UNL     1      21.124  45.658  48.206  1.00  0.00    -0.309 N 
HETATM   25  C   UNL     1      21.630  46.937  48.460  1.00  0.00     0.050 A 
HETATM   26  C   UNL     1      20.566  47.719  48.849  1.00  0.00     0.017 A 
HETATM   27  C   UNL     1      22.906  47.471  48.372  1.00  0.00     0.031 A 
HETATM   28  C   UNL     1      19.413  46.956  48.841  1.00  0.00     0.045 A 
HETATM   29  C   UNL     1      20.643  49.039  49.182  1.00  0.00    -0.023 A 
HETATM   30  C   UNL     1      18.201  47.542  49.200  1.00  0.00     0.018 A 
HETATM   31  C   UNL     1      19.726  45.603  48.427  1.00  0.00     0.259 A 
HETATM   32  C   UNL     1      18.235  48.905  49.555  1.00  0.00     0.002 A 
HETATM   33  C   UNL     1      19.432  49.653  49.549  1.00  0.00     0.012 A 
HETATM   34  O   UNL     1      19.013  44.618  48.274  1.00  0.00    -0.267 OA
HETATM   35  C   UNL     1      21.926  49.615  49.113  1.00  0.00     0.012 A 
HETATM   36  C   UNL     1      23.032  48.835  48.712  1.00  0.00     0.003 A 
ENDBRANCH  23  24
ENDBRANCH   1  23
TORSDOF 7
ENDMDL
MODEL 6
REMARK VINA RESULT:      -9.6     13.389     17.090
REMARK  7 active torsions:
REMARK  status: ('A' for Active; 'I' for Inactive)
REMARK    1  A    between atoms: N_8  and  C_9 
REMARK    2  A    between atoms: C_9  and  C_10 
REMARK    3  A    between atoms: C_13  and  C_14 
REMARK       I    between atoms: C_14  and  N_15 
REMARK    4  A    between atoms: N_15  and  N_16 
REMARK    5  A    between atoms: C_17  and  C_18 
REMARK    6  A    between atoms: C_19  and  O_20 
REMARK    7  A    between atoms: C_22  and  O_23 
ROOT
HETATM    1  C   UNL     1      32.624  50.467  43.067  1.00  0.00    -0.040 A 
HETATM    2  C   UNL     1      32.787  51.360  44.136  1.00  0.00     0.010 A 
HETATM    3  C   UNL     1      33.977  52.077  44.290  1.00  0.00     0.017 A 
HETATM    4  C   UNL     1      35.026  51.914  43.379  1.00  0.00     0.033 A 
HETATM    5  C   UNL     1      34.862  51.041  42.296  1.00  0.00     0.017 A 
HETATM    6  C   UNL     1      33.672  50.320  42.147  1.00  0.00     0.010 A 
ENDROOT
BRANCH   4   7
HETATM    7  C   UNL     1      36.264  52.723  43.578  1.00  0.00     0.271 C 
HETATM    8  N   UNL     1      36.866  52.627  44.826  1.00  0.00    -0.243 N 
HETATM    9  H   UNL     1      36.429  52.122  45.585  1.00  0.00     0.192 HD
HETATM   10  O   UNL     1      36.677  53.434  42.664  1.00  0.00    -0.266 OA
BRANCH   8  11
HETATM   11  N   UNL     1      38.022  53.309  45.053  1.00  0.00    -0.183 NA
HETATM   12  C   UNL     1      38.258  53.647  46.280  1.00  0.00     0.153 C 
BRANCH  12  13
HETATM   13  C   UNL     1      39.493  54.377  46.632  1.00  0.00     0.016 A 
HETATM   14  C   UNL     1      39.867  55.563  45.983  1.00  0.00     0.080 A 
HETATM   15  C   UNL     1      41.043  56.218  46.338  1.00  0.00     0.074 A 
HETATM   16  C   UNL     1      41.847  55.681  47.339  1.00  0.00     0.068 A 
HETATM   17  C   UNL     1      41.488  54.505  47.991  1.00  0.00     0.037 A 
HETATM   18  C   UNL     1      40.307  53.847  47.639  1.00  0.00     0.018 A 
BRANCH  14  19
HETATM   19  O   UNL     1      39.127  56.144  44.989  1.00  0.00    -0.360 OA
HETATM   20  H   UNL     1      39.553  55.948  44.122  1.00  0.00     0.217 HD
ENDBRANCH  14  19
BRANCH  16  21
HETATM   21  O   UNL     1      43.009  56.285  47.716  1.00  0.00    -0.361 OA
HETATM   22  H   UNL     1      43.752  55.718  47.449  1.00  0.00     0.217 HD
ENDBRANCH  16  21
ENDBRANCH  12  13
ENDBRANCH   8  11
ENDBRANCH   4   7
BRANCH   1  23
HETATM   23  C   UNL     1      31.324  49.715  42.893  1.00  0.00     0.171 C 
BRANCH  23  24
HETATM   24  N   UNL     1      30.572  50.164  41.745  1.00  0.00    -0.309 N 
HETATM   25  C   UNL     1      30.406  51.489  41.332  1.00  0.00     0.050 A 
HETATM   26  C   UNL     1      29.589  51.464  40.224  1.00  0.00     0.017 A 
HETATM   27  C   UNL     1      30.902  52.689  41.818  1.00  0.00     0.031 A 
HETATM   28  C   UNL     1      29.247  50.155  39.940  1.00  0.00     0.045 A 
HETATM   29  C   UNL     1      29.190  52.561  39.519  1.00  0.00    -0.023 A 
HETATM   30  C   UNL     1      28.422  49.884  38.851  1.00  0.00     0.018 A 
HETATM   31  C   UNL     1      29.866  49.269  40.906  1.00  0.00     0.259 A 
HETATM   32  C   UNL     1      27.983  50.989  38.095  1.00  0.00     0.002 A 
HETATM   33  C   UNL     1      28.355  52.312  38.415  1.00  0.00     0.012 A 
HETATM   34  O   UNL     1      29.838  48.049  41.018  1.00  0.00    -0.267 OA
HETATM   35  C   UNL     1      29.668  53.799  39.988  1.00  0.00     0.012 A 
HETATM   36  C   UNL     1      30.511  53.851  41.120  1.00  0.00     0.003 A 
ENDBRANCH  23  24
ENDBRANCH   1  23
TORSDOF 7
ENDMDL
MODEL 7
REMARK VINA RESULT:      -9.6      2.919     11.628
REMARK  7 active torsions:
REMARK  status: ('A' for Active; 'I' for Inactive)
REMARK    1  A    between atoms: N_8  and  C_9 
REMARK    2  A    between atoms: C_9  and  C_10 
REMARK    3  A    between atoms: C_13  and  C_14 
REMARK       I    between atoms: C_14  and  N_15 
REMARK    4  A    between atoms: N_15  and  N_16 
REMARK    5  A    between atoms: C_17  and  C_18 
REMARK    6  A    between atoms: C_19  and  O_20 
REMARK    7  A    between atoms: C_22  and  O_23 
ROOT
HETATM    1  C   UNL     1      19.876  46.776  46.990  1.00  0.00    -0.040 A 
HETATM    2  C   UNL     1      21.230  46.719  46.630  1.00  0.00     0.010 A 
HETATM    3  C   UNL     1      22.136  45.968  47.384  1.00  0.00     0.017 A 
HETATM    4  C   UNL     1      21.706  45.260  48.512  1.00  0.00     0.033 A 
HETATM    5  C   UNL     1      20.351  45.294  48.863  1.00  0.00     0.017 A 
HETATM    6  C   UNL     1      19.446  46.051  48.111  1.00  0.00     0.010 A 
ENDROOT
BRANCH   4   7
HETATM    7  C   UNL     1      22.712  44.455  49.265  1.00  0.00     0.271 C 
HETATM    8  N   UNL     1      23.278  45.065  50.377  1.00  0.00    -0.243 N 
HETATM    9  H   UNL     1      23.096  46.035  50.597  1.00  0.00     0.192 HD
HETATM   10  O   UNL     1      23.003  43.328  48.872  1.00  0.00    -0.266 OA
BRANCH   8  11
HETATM   11  N   UNL     1      24.170  44.364  51.129  1.00  0.00    -0.183 NA
HETATM   12  C   UNL     1      25.218  45.010  51.527  1.00  0.00     0.153 C 
BRANCH  12  13
HETATM   13  C   UNL     1      26.238  44.341  52.360  1.00  0.00     0.016 A 
HETATM   14  C   UNL     1      25.957  43.880  53.654  1.00  0.00     0.080 A 
HETATM   15  C   UNL     1      26.949  43.261  54.412  1.00  0.00     0.074 A 
HETATM   16  C   UNL     1      28.223  43.110  53.873  1.00  0.00     0.068 A 
HETATM   17  C   UNL     1      28.516  43.563  52.590  1.00  0.00     0.037 A 
HETATM   18  C   UNL     1      27.522  44.182  51.827  1.00  0.00     0.018 A 
BRANCH  14  19
HETATM   19  O   UNL     1      24.729  43.999  54.247  1.00  0.00    -0.360 OA
HETATM   20  H   UNL     1      24.730  44.802  54.818  1.00  0.00     0.217 HD
ENDBRANCH  14  19
BRANCH  16  21
HETATM   21  O   UNL     1      29.225  42.515  54.579  1.00  0.00    -0.361 OA
HETATM   22  H   UNL     1      28.870  41.717  55.006  1.00  0.00     0.217 HD
ENDBRANCH  16  21
ENDBRANCH  12  13
ENDBRANCH   8  11
ENDBRANCH   4   7
BRANCH   1  23
HETATM   23  C   UNL     1      18.898  47.570  46.154  1.00  0.00     0.171 C 
BRANCH  23  24
HETATM   24  N   UNL     1      18.311  48.671  46.882  1.00  0.00    -0.309 N 
HETATM   25  C   UNL     1      19.000  49.739  47.463  1.00  0.00     0.050 A 
HETATM   26  C   UNL     1      18.061  50.530  48.086  1.00  0.00     0.017 A 
HETATM   27  C   UNL     1      20.342  50.083  47.487  1.00  0.00     0.031 A 
HETATM   28  C   UNL     1      16.807  49.978  47.903  1.00  0.00     0.045 A 
HETATM   29  C   UNL     1      18.331  51.678  48.769  1.00  0.00    -0.023 A 
HETATM   30  C   UNL     1      15.693  50.612  48.448  1.00  0.00     0.018 A 
HETATM   31  C   UNL     1      16.918  48.762  47.121  1.00  0.00     0.259 A 
HETATM   32  C   UNL     1      15.926  51.802  49.165  1.00  0.00     0.002 A 
HETATM   33  C   UNL     1      17.222  52.337  49.329  1.00  0.00     0.012 A 
HETATM   34  O   UNL     1      16.067  47.975  46.724  1.00  0.00    -0.267 OA
HETATM   35  C   UNL     1      19.686  52.056  48.822  1.00  0.00     0.012 A 
HETATM   36  C   UNL     1      20.668  51.264  48.187  1.00  0.00     0.003 A 
ENDBRANCH  23  24
ENDBRANCH   1  23
TORSDOF 7
ENDMDL
MODEL 8
REMARK VINA RESULT:      -9.5      3.938      4.917
REMARK  7 active torsions:
REMARK  status: ('A' for Active; 'I' for Inactive)
REMARK    1  A    between atoms: N_8  and  C_9 
REMARK    2  A    between atoms: C_9  and  C_10 
REMARK    3  A    between atoms: C_13  and  C_14 
REMARK       I    between atoms: C_14  and  N_15 
REMARK    4  A    between atoms: N_15  and  N_16 
REMARK    5  A    between atoms: C_17  and  C_18 
REMARK    6  A    between atoms: C_19  and  O_20 
REMARK    7  A    between atoms: C_22  and  O_23 
ROOT
HETATM    1  C   UNL     1      26.240  46.256  54.084  1.00  0.00    -0.040 A 
HETATM    2  C   UNL     1      25.582  45.041  54.328  1.00  0.00     0.010 A 
HETATM    3  C   UNL     1      24.853  44.411  53.317  1.00  0.00     0.017 A 
HETATM    4  C   UNL     1      24.766  44.982  52.042  1.00  0.00     0.033 A 
HETATM    5  C   UNL     1      25.439  46.183  51.785  1.00  0.00     0.017 A 
HETATM    6  C   UNL     1      26.164  46.816  52.800  1.00  0.00     0.010 A 
ENDROOT
BRANCH   4   7
HETATM    7  C   UNL     1      23.994  44.253  50.994  1.00  0.00     0.271 C 
HETATM    8  N   UNL     1      23.193  45.032  50.168  1.00  0.00    -0.243 N 
HETATM    9  H   UNL     1      23.061  46.020  50.339  1.00  0.00     0.192 HD
HETATM   10  O   UNL     1      24.081  43.030  50.918  1.00  0.00    -0.266 OA
BRANCH   8  11
HETATM   11  N   UNL     1      22.498  44.427  49.166  1.00  0.00    -0.183 NA
HETATM   12  C   UNL     1      21.701  45.184  48.482  1.00  0.00     0.153 C 
BRANCH  12  13
HETATM   13  C   UNL     1      20.914  44.626  47.365  1.00  0.00     0.016 A 
HETATM   14  C   UNL     1      19.520  44.484  47.434  1.00  0.00     0.080 A 
HETATM   15  C   UNL     1      18.813  43.947  46.361  1.00  0.00     0.074 A 
HETATM   16  C   UNL     1      19.504  43.546  45.222  1.00  0.00     0.068 A 
HETATM   17  C   UNL     1      20.887  43.681  45.140  1.00  0.00     0.037 A 
HETATM   18  C   UNL     1      21.598  44.223  46.213  1.00  0.00     0.018 A 
BRANCH  14  19
HETATM   19  O   UNL     1      18.778  44.853  48.523  1.00  0.00    -0.360 OA
HETATM   20  H   UNL     1      17.980  45.341  48.213  1.00  0.00     0.217 HD
ENDBRANCH  14  19
BRANCH  16  21
HETATM   21  O   UNL     1      18.855  43.010  44.150  1.00  0.00    -0.361 OA
HETATM   22  H   UNL     1      18.359  43.718  43.705  1.00  0.00     0.217 HD
ENDBRANCH  16  21
ENDBRANCH  12  13
ENDBRANCH   8  11
ENDBRANCH   4   7
BRANCH   1  23
HETATM   23  C   UNL     1      27.049  46.918  55.176  1.00  0.00     0.171 C 
BRANCH  23  24
HETATM   24  N   UNL     1      28.156  46.104  55.618  1.00  0.00    -0.309 N 
HETATM   25  C   UNL     1      28.778  45.087  54.889  1.00  0.00     0.050 A 
HETATM   26  C   UNL     1      29.752  44.550  55.699  1.00  0.00     0.017 A 
HETATM   27  C   UNL     1      28.582  44.605  53.604  1.00  0.00     0.031 A 
HETATM   28  C   UNL     1      29.750  45.212  56.913  1.00  0.00     0.045 A 
HETATM   29  C   UNL     1      30.588  43.531  55.352  1.00  0.00    -0.023 A 
HETATM   30  C   UNL     1      30.660  44.838  57.899  1.00  0.00     0.018 A 
HETATM   31  C   UNL     1      28.725  46.238  56.908  1.00  0.00     0.259 A 
HETATM   32  C   UNL     1      31.543  43.786  57.583  1.00  0.00     0.002 A 
HETATM   33  C   UNL     1      31.517  43.135  56.332  1.00  0.00     0.012 A 
HETATM   34  O   UNL     1      28.392  47.052  57.760  1.00  0.00    -0.267 OA
HETATM   35  C   UNL     1      30.414  43.009  54.056  1.00  0.00     0.012 A 
HETATM   36  C   UNL     1      29.424  43.545  53.203  1.00  0.00     0.003 A 
ENDBRANCH  23  24
ENDBRANCH   1  23
TORSDOF 7
ENDMDL
MODEL 9
REMARK VINA RESULT:      -9.1      7.262     11.693
REMARK  7 active torsions:
REMARK  status: ('A' for Active; 'I' for Inactive)
REMARK    1  A    between atoms: N_8  and  C_9 
REMARK    2  A    between atoms: C_9  and  C_10 
REMARK    3  A    between atoms: C_13  and  C_14 
REMARK       I    between atoms: C_14  and  N_15 
REMARK    4  A    between atoms: N_15  and  N_16 
REMARK    5  A    between atoms: C_17  and  C_18 
REMARK    6  A    between atoms: C_19  and  O_20 
REMARK    7  A    between atoms: C_22  and  O_23 
ROOT
HETATM    1  C   UNL     1      26.667  39.541  48.158  1.00  0.00    -0.040 A 
HETATM    2  C   UNL     1      27.955  39.282  48.648  1.00  0.00     0.010 A 
HETATM    3  C   UNL     1      28.374  39.819  49.868  1.00  0.00     0.017 A 
HETATM    4  C   UNL     1      27.513  40.627  50.621  1.00  0.00     0.033 A 
HETATM    5  C   UNL     1      26.218  40.871  50.148  1.00  0.00     0.017 A 
HETATM    6  C   UNL     1      25.803  40.337  48.923  1.00  0.00     0.010 A 
ENDROOT
BRANCH   4   7
HETATM    7  C   UNL     1      28.005  41.154  51.928  1.00  0.00     0.271 C 
HETATM    8  N   UNL     1      27.583  42.431  52.272  1.00  0.00    -0.243 N 
HETATM    9  H   UNL     1      27.061  43.008  51.625  1.00  0.00     0.192 HD
HETATM   10  O   UNL     1      28.754  40.465  52.615  1.00  0.00    -0.266 OA
BRANCH   8  11
HETATM   11  N   UNL     1      27.963  42.949  53.472  1.00  0.00    -0.183 NA
HETATM   12  C   UNL     1      29.216  43.246  53.598  1.00  0.00     0.153 C 
BRANCH  12  13
HETATM   13  C   UNL     1      29.726  43.826  54.857  1.00  0.00     0.016 A 
HETATM   14  C   UNL     1      29.219  45.022  55.384  1.00  0.00     0.080 A 
HETATM   15  C   UNL     1      29.730  45.542  56.571  1.00  0.00     0.074 A 
HETATM   16  C   UNL     1      30.754  44.864  57.226  1.00  0.00     0.068 A 
HETATM   17  C   UNL     1      31.267  43.675  56.714  1.00  0.00     0.037 A 
HETATM   18  C   UNL     1      30.753  43.151  55.526  1.00  0.00     0.018 A 
BRANCH  14  19
HETATM   19  O   UNL     1      28.217  45.742  54.791  1.00  0.00    -0.360 OA
HETATM   20  H   UNL     1      28.036  45.360  53.901  1.00  0.00     0.217 HD
ENDBRANCH  14  19
BRANCH  16  21
HETATM   21  O   UNL     1      31.289  45.336  58.387  1.00  0.00    -0.361 OA
HETATM   22  H   UNL     1      32.154  45.733  58.188  1.00  0.00     0.217 HD
ENDBRANCH  16  21
ENDBRANCH  12  13
ENDBRANCH   8  11
ENDBRANCH   4   7
BRANCH   1  23
HETATM   23  C   UNL     1      26.213  38.934  46.849  1.00  0.00     0.171 C 
BRANCH  23  24
HETATM   24  N   UNL     1      27.231  38.992  45.827  1.00  0.00    -0.309 N 
HETATM   25  C   UNL     1      28.096  37.956  45.461  1.00  0.00     0.050 A 
HETATM   26  C   UNL     1      28.925  38.454  44.481  1.00  0.00     0.017 A 
HETATM   27  C   UNL     1      28.213  36.643  45.887  1.00  0.00     0.031 A 
HETATM   28  C   UNL     1      28.594  39.772  44.231  1.00  0.00     0.045 A 
HETATM   29  C   UNL     1      29.911  37.749  43.857  1.00  0.00    -0.023 A 
HETATM   30  C   UNL     1      29.304  40.486  43.269  1.00  0.00     0.018 A 
HETATM   31  C   UNL     1      27.492  40.170  45.086  1.00  0.00     0.259 A 
HETATM   32  C   UNL     1      30.335  39.798  42.599  1.00  0.00     0.002 A 
HETATM   33  C   UNL     1      30.643  38.449  42.880  1.00  0.00     0.012 A 
HETATM   34  O   UNL     1      26.887  41.230  45.184  1.00  0.00    -0.267 OA
HETATM   35  C   UNL     1      30.066  36.413  44.269  1.00  0.00     0.012 A 
HETATM   36  C   UNL     1      29.225  35.877  45.269  1.00  0.00     0.003 A 
ENDBRANCH  23  24
ENDBRANCH   1  23
TORSDOF 7
ENDMDL
MODEL 10
REMARK VINA RESULT:      -8.9      2.261     11.552
REMARK  7 active torsions:
REMARK  status: ('A' for Active; 'I' for Inactive)
REMARK    1  A    between atoms: N_8  and  C_9 
REMARK    2  A    between atoms: C_9  and  C_10 
REMARK    3  A    between atoms: C_13  and  C_14 
REMARK       I    between atoms: C_14  and  N_15 
REMARK    4  A    between atoms: N_15  and  N_16 
REMARK    5  A    between atoms: C_17  and  C_18 
REMARK    6  A    between atoms: C_19  and  O_20 
REMARK    7  A    between atoms: C_22  and  O_23 
ROOT
HETATM    1  C   UNL     1      22.687  46.796  48.353  1.00  0.00    -0.040 A 
HETATM    2  C   UNL     1      23.340  47.869  48.976  1.00  0.00     0.010 A 
HETATM    3  C   UNL     1      24.237  47.644  50.023  1.00  0.00     0.017 A 
HETATM    4  C   UNL     1      24.498  46.343  50.468  1.00  0.00     0.033 A 
HETATM    5  C   UNL     1      23.867  45.266  49.836  1.00  0.00     0.017 A 
HETATM    6  C   UNL     1      22.964  45.492  48.790  1.00  0.00     0.010 A 
ENDROOT
BRANCH   4   7
HETATM    7  C   UNL     1      25.484  46.161  51.574  1.00  0.00     0.271 C 
HETATM    8  N   UNL     1      25.550  44.892  52.134  1.00  0.00    -0.243 N 
HETATM    9  H   UNL     1      24.894  44.166  51.878  1.00  0.00     0.192 HD
HETATM   10  O   UNL     1      26.162  47.116  51.945  1.00  0.00    -0.266 OA
BRANCH   8  11
HETATM   11  N   UNL     1      26.461  44.653  53.117  1.00  0.00    -0.183 NA
HETATM   12  C   UNL     1      27.663  44.370  52.730  1.00  0.00     0.153 C 
BRANCH  12  13
HETATM   13  C   UNL     1      28.727  44.109  53.721  1.00  0.00     0.016 A 
HETATM   14  C   UNL     1      29.590  43.009  53.613  1.00  0.00     0.080 A 
HETATM   15  C   UNL     1      30.576  42.791  54.572  1.00  0.00     0.074 A 
HETATM   16  C   UNL     1      30.693  43.675  55.641  1.00  0.00     0.068 A 
HETATM   17  C   UNL     1      29.844  44.771  55.760  1.00  0.00     0.037 A 
HETATM   18  C   UNL     1      28.855  44.992  54.798  1.00  0.00     0.018 A 
BRANCH  14  19
HETATM   19  O   UNL     1      29.528  42.099  52.592  1.00  0.00    -0.360 OA
HETATM   20  H   UNL     1      28.803  42.361  51.979  1.00  0.00     0.217 HD
ENDBRANCH  14  19
BRANCH  16  21
HETATM   21  O   UNL     1      31.640  43.500  56.605  1.00  0.00    -0.361 OA
HETATM   22  H   UNL     1      31.192  43.292  57.443  1.00  0.00     0.217 HD
ENDBRANCH  16  21
ENDBRANCH  12  13
ENDBRANCH   8  11
ENDBRANCH   4   7
BRANCH   1  23
HETATM   23  C   UNL     1      21.738  47.045  47.202  1.00  0.00     0.171 C 
BRANCH  23  24
HETATM   24  N   UNL     1      20.666  47.947  47.552  1.00  0.00    -0.309 N 
HETATM   25  C   UNL     1      19.362  47.586  47.905  1.00  0.00     0.050 A 
HETATM   26  C   UNL     1      18.667  48.755  48.119  1.00  0.00     0.017 A 
HETATM   27  C   UNL     1      18.744  46.356  48.063  1.00  0.00     0.031 A 
HETATM   28  C   UNL     1      19.509  49.831  47.909  1.00  0.00     0.045 A 
HETATM   29  C   UNL     1      17.356  48.832  48.485  1.00  0.00    -0.023 A 
HETATM   30  C   UNL     1      19.021  51.125  48.071  1.00  0.00     0.018 A 
HETATM   31  C   UNL     1      20.827  49.354  47.538  1.00  0.00     0.259 A 
HETATM   32  C   UNL     1      17.669  51.252  48.447  1.00  0.00     0.002 A 
HETATM   33  C   UNL     1      16.840  50.129  48.655  1.00  0.00     0.012 A 
HETATM   34  O   UNL     1      21.862  49.957  47.277  1.00  0.00    -0.267 OA
HETATM   35  C   UNL     1      16.692  47.602  48.649  1.00  0.00     0.012 A 
HETATM   36  C   UNL     1      17.384  46.389  48.439  1.00  0.00     0.003 A 
ENDBRANCH  23  24
ENDBRANCH   1  23
TORSDOF 7
ENDMDL
