MODEL 1
REMARK VINA RESULT:     -11.0      0.000      0.000
REMARK  5 active torsions:
REMARK  status: ('A' for Active; 'I' for Inactive)
REMARK    1  A    between atoms: C_6  and  N_7 
REMARK       I    between atoms: N_7  and  C_8 
REMARK    2  A    between atoms: C_8  and  C_9 
REMARK    3  A    between atoms: C_10  and  N_11 
REMARK    4  A    between atoms: N_12  and  N_13 
REMARK    5  A    between atoms: C_14  and  C_15 
ROOT
HETATM    1  C   UNL     1      26.069  44.447  50.990  1.00  0.00     0.099 C 
HETATM    2  C   UNL     1      26.298  45.280  49.852  1.00  0.00     0.101 C 
HETATM    3  N   UNL     1      25.067  45.233  49.297  1.00  0.00    -0.107 NA
HETATM    4  C   UNL     1      25.063  43.856  49.368  1.00  0.00     0.162 C 
HETATM    5  C   UNL     1      24.844  43.561  50.741  1.00  0.00     0.118 C 
HETATM    6  N   UNL     1      23.720  42.757  50.483  1.00  0.00    -0.242 NA
HETATM    7  C   UNL     1      23.806  41.874  49.334  1.00  0.00     0.086 C 
HETATM    8  C   UNL     1      25.078  41.735  48.864  1.00  0.00     0.087 C 
HETATM    9  N   UNL     1      25.712  42.887  48.649  1.00  0.00    -0.230 NA
HETATM   10  C   UNL     1      22.918  41.306  48.352  1.00  0.00     0.034 C 
HETATM   11  C   UNL     1      23.372  40.402  47.350  1.00  0.00     0.002 C 
HETATM   12  C   UNL     1      24.664  39.907  47.436  1.00  0.00     0.002 C 
HETATM   13  C   UNL     1      25.528  40.565  48.281  1.00  0.00     0.034 C 
ENDROOT
BRANCH   1  14
HETATM   14  C   UNL     1      27.221  44.473  51.939  1.00  0.00     0.261 C 
HETATM   15  N   UNL     1      27.162  44.826  53.292  1.00  0.00    -0.323 N 
HETATM   16  H   UNL     1      26.499  45.529  53.582  1.00  0.00     0.169 HD
HETATM   17  O   UNL     1      28.318  44.138  51.468  1.00  0.00    -0.267 OA
BRANCH  15  18
HETATM   18  C   UNL     1      28.241  44.451  54.189  1.00  0.00     0.035 C 
HETATM   19  C   UNL     1      28.818  45.404  55.045  1.00  0.00     0.037 C 
HETATM   20  C   UNL     1      29.734  45.085  56.056  1.00  0.00    -0.054 C 
HETATM   21  C   UNL     1      30.411  43.874  55.971  1.00  0.00    -0.056 C 
HETATM   22  C   UNL     1      29.725  45.951  57.289  1.00  0.00     0.049 C 
HETATM   23  C   UNL     1      31.738  43.688  56.661  1.00  0.00     0.049 C 
HETATM   24  C   UNL     1      29.894  42.900  55.095  1.00  0.00     0.009 C 
HETATM   25  C   UNL     1      28.768  43.160  54.266  1.00  0.00     0.030 C 
ENDBRANCH  15  18
ENDBRANCH   1  14
BRANCH   2  26
HETATM   26  N   UNL     1      27.322  45.947  49.257  1.00  0.00    -0.291 NA
HETATM   27  H   UNL     1      27.629  46.774  49.779  1.00  0.00     0.125 HD
HETATM   28  H   UNL     1      28.141  45.357  49.081  1.00  0.00     0.125 HD
ENDBRANCH   2  26
BRANCH   3  29
HETATM   29  N   UNL     1      24.045  46.143  49.638  1.00  0.00    -0.198 NA
HETATM   30  C   UNL     1      23.098  46.183  48.743  1.00  0.00     0.147 C 
BRANCH  30  31
HETATM   31  C   UNL     1      22.041  47.185  48.737  1.00  0.00     0.010 A 
HETATM   32  C   UNL     1      22.214  48.620  48.715  1.00  0.00     0.004 A 
HETATM   33  C   UNL     1      20.943  49.197  48.697  1.00  0.00     0.043 A 
HETATM   34  C   UNL     1      23.330  49.490  48.703  1.00  0.00     0.014 A 
HETATM   35  C   UNL     1      20.731  50.583  48.625  1.00  0.00     0.030 A 
HETATM   36  N   UNL     1      20.034  48.167  48.767  1.00  0.00    -0.364 N 
HETATM   37  C   UNL     1      21.854  51.415  48.592  1.00  0.00     0.002 A 
HETATM   38  C   UNL     1      23.137  50.879  48.643  1.00  0.00     0.001 A 
HETATM   39  H   UNL     1      19.032  48.293  48.795  1.00  0.00     0.165 HD
HETATM   40  C   UNL     1      20.680  46.958  48.808  1.00  0.00     0.102 A 
ENDBRANCH  30  31
ENDBRANCH   3  29
TORSDOF 5
ENDMDL
MODEL 2
REMARK VINA RESULT:     -10.8      0.877      1.591
REMARK  5 active torsions:
REMARK  status: ('A' for Active; 'I' for Inactive)
REMARK    1  A    between atoms: C_6  and  N_7 
REMARK       I    between atoms: N_7  and  C_8 
REMARK    2  A    between atoms: C_8  and  C_9 
REMARK    3  A    between atoms: C_10  and  N_11 
REMARK    4  A    between atoms: N_12  and  N_13 
REMARK    5  A    between atoms: C_14  and  C_15 
ROOT
HETATM    1  C   UNL     1      26.086  44.634  51.165  1.00  0.00     0.099 C 
HETATM    2  C   UNL     1      26.306  45.484  50.039  1.00  0.00     0.101 C 
HETATM    3  N   UNL     1      25.051  45.514  49.540  1.00  0.00    -0.107 NA
HETATM    4  C   UNL     1      24.979  44.138  49.578  1.00  0.00     0.162 C 
HETATM    5  C   UNL     1      24.807  43.819  50.952  1.00  0.00     0.118 C 
HETATM    6  N   UNL     1      23.631  43.080  50.728  1.00  0.00    -0.242 NA
HETATM    7  C   UNL     1      23.620  42.224  49.555  1.00  0.00     0.086 C 
HETATM    8  C   UNL     1      24.861  42.033  49.023  1.00  0.00     0.087 C 
HETATM    9  N   UNL     1      25.544  43.156  48.807  1.00  0.00    -0.230 NA
HETATM   10  C   UNL     1      22.661  41.728  48.601  1.00  0.00     0.034 C 
HETATM   11  C   UNL     1      23.022  40.828  47.558  1.00  0.00     0.002 C 
HETATM   12  C   UNL     1      24.289  40.266  47.572  1.00  0.00     0.002 C 
HETATM   13  C   UNL     1      25.223  40.858  48.392  1.00  0.00     0.034 C 
ENDROOT
BRANCH   1  14
HETATM   14  C   UNL     1      27.279  44.577  52.061  1.00  0.00     0.261 C 
HETATM   15  N   UNL     1      27.327  45.004  53.392  1.00  0.00    -0.323 N 
HETATM   16  H   UNL     1      26.763  45.794  53.670  1.00  0.00     0.169 HD
HETATM   17  O   UNL     1      28.306  44.093  51.563  1.00  0.00    -0.267 OA
BRANCH  15  18
HETATM   18  C   UNL     1      28.400  44.555  54.263  1.00  0.00     0.035 C 
HETATM   19  C   UNL     1      29.001  45.444  55.169  1.00  0.00     0.037 C 
HETATM   20  C   UNL     1      29.912  45.048  56.156  1.00  0.00    -0.054 C 
HETATM   21  C   UNL     1      30.562  43.828  56.000  1.00  0.00    -0.056 C 
HETATM   22  C   UNL     1      29.927  45.842  57.437  1.00  0.00     0.049 C 
HETATM   23  C   UNL     1      31.886  43.574  56.672  1.00  0.00     0.049 C 
HETATM   24  C   UNL     1      30.020  42.918  55.071  1.00  0.00     0.009 C 
HETATM   25  C   UNL     1      28.898  43.251  54.263  1.00  0.00     0.030 C 
ENDBRANCH  15  18
ENDBRANCH   1  14
BRANCH   2  26
HETATM   26  N   UNL     1      27.337  46.114  49.414  1.00  0.00    -0.291 NA
HETATM   27  H   UNL     1      27.463  45.821  48.439  1.00  0.00     0.125 HD
HETATM   28  H   UNL     1      27.260  47.136  49.435  1.00  0.00     0.125 HD
ENDBRANCH   2  26
BRANCH   3  29
HETATM   29  N   UNL     1      24.094  46.466  49.950  1.00  0.00    -0.198 NA
HETATM   30  C   UNL     1      23.538  47.076  48.941  1.00  0.00     0.147 C 
BRANCH  30  31
HETATM   31  C   UNL     1      22.684  48.247  49.082  1.00  0.00     0.010 A 
HETATM   32  C   UNL     1      21.241  48.274  49.000  1.00  0.00     0.004 A 
HETATM   33  C   UNL     1      20.832  49.593  49.212  1.00  0.00     0.043 A 
HETATM   34  C   UNL     1      20.235  47.305  48.771  1.00  0.00     0.014 A 
HETATM   35  C   UNL     1      19.484  49.981  49.248  1.00  0.00     0.030 A 
HETATM   36  N   UNL     1      21.973  50.347  49.355  1.00  0.00    -0.364 N 
HETATM   37  C   UNL     1      18.514  48.996  49.040  1.00  0.00     0.002 A 
HETATM   38  C   UNL     1      18.882  47.677  48.793  1.00  0.00     0.001 A 
HETATM   39  H   UNL     1      21.979  51.348  49.497  1.00  0.00     0.165 HD
HETATM   40  C   UNL     1      23.088  49.555  49.263  1.00  0.00     0.102 A 
ENDBRANCH  30  31
ENDBRANCH   3  29
TORSDOF 5
ENDMDL
MODEL 3
REMARK VINA RESULT:     -10.8      1.260      1.771
REMARK  5 active torsions:
REMARK  status: ('A' for Active; 'I' for Inactive)
REMARK    1  A    between atoms: C_6  and  N_7 
REMARK       I    between atoms: N_7  and  C_8 
REMARK    2  A    between atoms: C_8  and  C_9 
REMARK    3  A    between atoms: C_10  and  N_11 
REMARK    4  A    between atoms: N_12  and  N_13 
REMARK    5  A    between atoms: C_14  and  C_15 
ROOT
HETATM    1  C   UNL     1      24.683  44.484  51.046  1.00  0.00     0.099 C 
HETATM    2  C   UNL     1      25.196  45.346  50.030  1.00  0.00     0.101 C 
HETATM    3  N   UNL     1      24.195  45.239  49.128  1.00  0.00    -0.107 NA
HETATM    4  C   UNL     1      24.251  43.863  49.197  1.00  0.00     0.162 C 
HETATM    5  C   UNL     1      23.645  43.534  50.440  1.00  0.00     0.118 C 
HETATM    6  N   UNL     1      22.700  42.672  49.855  1.00  0.00    -0.242 NA
HETATM    7  C   UNL     1      23.182  41.814  48.787  1.00  0.00     0.086 C 
HETATM    8  C   UNL     1      24.543  41.755  48.725  1.00  0.00     0.087 C 
HETATM    9  N   UNL     1      25.143  42.943  48.710  1.00  0.00    -0.230 NA
HETATM   10  C   UNL     1      22.667  41.213  47.583  1.00  0.00     0.034 C 
HETATM   11  C   UNL     1      23.455  40.351  46.768  1.00  0.00     0.002 C 
HETATM   12  C   UNL     1      24.688  39.929  47.242  1.00  0.00     0.002 C 
HETATM   13  C   UNL     1      25.215  40.621  48.308  1.00  0.00     0.034 C 
ENDROOT
BRANCH   1  14
HETATM   14  C   UNL     1      25.491  44.559  52.300  1.00  0.00     0.261 C 
HETATM   15  N   UNL     1      26.873  44.764  52.374  1.00  0.00    -0.323 N 
HETATM   16  H   UNL     1      27.460  44.390  51.643  1.00  0.00     0.169 HD
HETATM   17  O   UNL     1      24.858  44.437  53.359  1.00  0.00    -0.267 OA
BRANCH  15  18
HETATM   18  C   UNL     1      27.479  45.196  53.621  1.00  0.00     0.035 C 
HETATM   19  C   UNL     1      28.366  44.355  54.311  1.00  0.00     0.037 C 
HETATM   20  C   UNL     1      29.120  44.763  55.418  1.00  0.00    -0.054 C 
HETATM   21  C   UNL     1      28.704  45.890  56.119  1.00  0.00    -0.056 C 
HETATM   22  C   UNL     1      30.466  44.112  55.611  1.00  0.00     0.049 C 
HETATM   23  C   UNL     1      29.096  46.084  57.561  1.00  0.00     0.049 C 
HETATM   24  C   UNL     1      27.782  46.745  55.484  1.00  0.00     0.009 C 
HETATM   25  C   UNL     1      27.232  46.439  54.209  1.00  0.00     0.030 C 
ENDBRANCH  15  18
ENDBRANCH   1  14
BRANCH   2  26
HETATM   26  N   UNL     1      26.311  46.079  49.772  1.00  0.00    -0.291 NA
HETATM   27  H   UNL     1      27.182  45.600  50.024  1.00  0.00     0.125 HD
HETATM   28  H   UNL     1      26.381  46.380  48.795  1.00  0.00     0.125 HD
ENDBRANCH   2  26
BRANCH   3  29
HETATM   29  N   UNL     1      23.066  46.084  49.142  1.00  0.00    -0.198 NA
HETATM   30  C   UNL     1      22.551  46.242  47.955  1.00  0.00     0.147 C 
BRANCH  30  31
HETATM   31  C   UNL     1      21.522  47.227  47.652  1.00  0.00     0.010 A 
HETATM   32  C   UNL     1      21.507  48.612  48.064  1.00  0.00     0.004 A 
HETATM   33  C   UNL     1      20.351  49.195  47.540  1.00  0.00     0.043 A 
HETATM   34  C   UNL     1      22.367  49.435  48.830  1.00  0.00     0.014 A 
HETATM   35  C   UNL     1      20.035  50.552  47.705  1.00  0.00     0.030 A 
HETATM   36  N   UNL     1      19.660  48.199  46.891  1.00  0.00    -0.364 N 
HETATM   37  C   UNL     1      20.916  51.344  48.447  1.00  0.00     0.002 A 
HETATM   38  C   UNL     1      22.061  50.793  49.014  1.00  0.00     0.001 A 
HETATM   39  H   UNL     1      18.767  48.330  46.434  1.00  0.00     0.165 HD
HETATM   40  C   UNL     1      20.343  47.013  46.964  1.00  0.00     0.102 A 
ENDBRANCH  30  31
ENDBRANCH   3  29
TORSDOF 5
ENDMDL
MODEL 4
REMARK VINA RESULT:     -10.7      2.034      7.901
REMARK  5 active torsions:
REMARK  status: ('A' for Active; 'I' for Inactive)
REMARK    1  A    between atoms: C_6  and  N_7 
REMARK       I    between atoms: N_7  and  C_8 
REMARK    2  A    between atoms: C_8  and  C_9 
REMARK    3  A    between atoms: C_10  and  N_11 
REMARK    4  A    between atoms: N_12  and  N_13 
REMARK    5  A    between atoms: C_14  and  C_15 
ROOT
HETATM    1  C   UNL     1      25.884  43.488  49.688  1.00  0.00     0.099 C 
HETATM    2  C   UNL     1      25.516  42.880  50.927  1.00  0.00     0.101 C 
HETATM    3  N   UNL     1      26.501  41.961  51.020  1.00  0.00    -0.107 NA
HETATM    4  C   UNL     1      26.245  41.524  49.738  1.00  0.00     0.162 C 
HETATM    5  C   UNL     1      26.780  42.533  48.893  1.00  0.00     0.118 C 
HETATM    6  N   UNL     1      27.597  41.634  48.183  1.00  0.00    -0.242 NA
HETATM    7  C   UNL     1      27.009  40.348  47.856  1.00  0.00     0.086 C 
HETATM    8  C   UNL     1      25.655  40.325  48.016  1.00  0.00     0.087 C 
HETATM    9  N   UNL     1      25.235  40.772  49.198  1.00  0.00    -0.230 NA
HETATM   10  C   UNL     1      27.446  38.987  47.675  1.00  0.00     0.034 C 
HETATM   11  C   UNL     1      26.552  37.946  47.294  1.00  0.00     0.002 C 
HETATM   12  C   UNL     1      25.265  38.283  46.904  1.00  0.00     0.002 C 
HETATM   13  C   UNL     1      24.830  39.550  47.222  1.00  0.00     0.034 C 
ENDROOT
BRANCH   1  14
HETATM   14  C   UNL     1      25.079  44.715  49.409  1.00  0.00     0.261 C 
HETATM   15  N   UNL     1      25.029  45.862  50.208  1.00  0.00    -0.323 N 
HETATM   16  H   UNL     1      25.114  45.762  51.209  1.00  0.00     0.169 HD
HETATM   17  O   UNL     1      24.411  44.697  48.365  1.00  0.00    -0.267 OA
BRANCH  15  18
HETATM   18  C   UNL     1      24.532  47.111  49.658  1.00  0.00     0.035 C 
HETATM   19  C   UNL     1      25.402  48.193  49.447  1.00  0.00     0.037 C 
HETATM   20  C   UNL     1      25.038  49.360  48.763  1.00  0.00    -0.054 C 
HETATM   21  C   UNL     1      23.684  49.652  48.634  1.00  0.00    -0.056 C 
HETATM   22  C   UNL     1      26.121  50.072  47.995  1.00  0.00     0.049 C 
HETATM   23  C   UNL     1      23.224  51.069  48.417  1.00  0.00     0.049 C 
HETATM   24  C   UNL     1      22.769  48.608  48.876  1.00  0.00     0.009 C 
HETATM   25  C   UNL     1      23.196  47.322  49.309  1.00  0.00     0.030 C 
ENDBRANCH  15  18
ENDBRANCH   1  14
BRANCH   2  26
HETATM   26  N   UNL     1      24.523  42.956  51.853  1.00  0.00    -0.291 NA
HETATM   27  H   UNL     1      24.825  43.364  52.743  1.00  0.00     0.125 HD
HETATM   28  H   UNL     1      23.701  43.473  51.524  1.00  0.00     0.125 HD
ENDBRANCH   2  26
BRANCH   3  29
HETATM   29  N   UNL     1      27.741  42.237  51.633  1.00  0.00    -0.198 NA
HETATM   30  C   UNL     1      27.629  42.422  52.918  1.00  0.00     0.147 C 
BRANCH  30  31
HETATM   31  C   UNL     1      28.706  42.932  53.754  1.00  0.00     0.010 A 
HETATM   32  C   UNL     1      28.667  44.115  54.584  1.00  0.00     0.004 A 
HETATM   33  C   UNL     1      29.903  44.221  55.225  1.00  0.00     0.043 A 
HETATM   34  C   UNL     1      27.696  45.107  54.862  1.00  0.00     0.014 A 
HETATM   35  C   UNL     1      30.202  45.234  56.150  1.00  0.00     0.030 A 
HETATM   36  N   UNL     1      30.684  43.189  54.761  1.00  0.00    -0.364 N 
HETATM   37  C   UNL     1      29.215  46.186  56.420  1.00  0.00     0.002 A 
HETATM   38  C   UNL     1      27.982  46.133  55.776  1.00  0.00     0.001 A 
HETATM   39  H   UNL     1      31.644  43.033  55.038  1.00  0.00     0.165 HD
HETATM   40  C   UNL     1      29.984  42.420  53.868  1.00  0.00     0.102 A 
ENDBRANCH  30  31
ENDBRANCH   3  29
TORSDOF 5
ENDMDL
MODEL 5
REMARK VINA RESULT:     -10.6      1.912      8.226
REMARK  5 active torsions:
REMARK  status: ('A' for Active; 'I' for Inactive)
REMARK    1  A    between atoms: C_6  and  N_7 
REMARK       I    between atoms: N_7  and  C_8 
REMARK    2  A    between atoms: C_8  and  C_9 
REMARK    3  A    between atoms: C_10  and  N_11 
REMARK    4  A    between atoms: N_12  and  N_13 
REMARK    5  A    between atoms: C_14  and  C_15 
ROOT
HETATM    1  C   UNL     1      25.377  43.711  49.736  1.00  0.00     0.099 C 
HETATM    2  C   UNL     1      24.939  43.146  50.973  1.00  0.00     0.101 C 
HETATM    3  N   UNL     1      26.070  42.498  51.329  1.00  0.00    -0.107 NA
HETATM    4  C   UNL     1      26.144  41.901  50.088  1.00  0.00     0.162 C 
HETATM    5  C   UNL     1      26.586  42.930  49.213  1.00  0.00     0.118 C 
HETATM    6  N   UNL     1      27.691  42.190  48.754  1.00  0.00    -0.242 NA
HETATM    7  C   UNL     1      27.466  40.777  48.507  1.00  0.00     0.086 C 
HETATM    8  C   UNL     1      26.144  40.449  48.463  1.00  0.00     0.087 C 
HETATM    9  N   UNL     1      25.435  40.886  49.502  1.00  0.00    -0.230 NA
HETATM   10  C   UNL     1      28.215  39.548  48.568  1.00  0.00     0.034 C 
HETATM   11  C   UNL     1      27.652  38.296  48.191  1.00  0.00     0.002 C 
HETATM   12  C   UNL     1      26.411  38.283  47.573  1.00  0.00     0.002 C 
HETATM   13  C   UNL     1      25.661  39.433  47.659  1.00  0.00     0.034 C 
ENDROOT
BRANCH   1  14
HETATM   14  C   UNL     1      24.385  44.683  49.186  1.00  0.00     0.261 C 
HETATM   15  N   UNL     1      23.746  45.698  49.906  1.00  0.00    -0.323 N 
HETATM   16  H   UNL     1      23.526  45.541  50.878  1.00  0.00     0.169 HD
HETATM   17  O   UNL     1      24.128  44.568  47.979  1.00  0.00    -0.267 OA
BRANCH  15  18
HETATM   18  C   UNL     1      23.112  46.800  49.203  1.00  0.00     0.035 C 
HETATM   19  C   UNL     1      23.691  48.079  49.214  1.00  0.00     0.037 C 
HETATM   20  C   UNL     1      23.239  49.143  48.423  1.00  0.00    -0.054 C 
HETATM   21  C   UNL     1      21.948  49.079  47.911  1.00  0.00    -0.056 C 
HETATM   22  C   UNL     1      24.267  50.148  47.970  1.00  0.00     0.049 C 
HETATM   23  C   UNL     1      21.211  50.338  47.533  1.00  0.00     0.049 C 
HETATM   24  C   UNL     1      21.308  47.824  47.915  1.00  0.00     0.009 C 
HETATM   25  C   UNL     1      21.919  46.674  48.487  1.00  0.00     0.030 C 
ENDBRANCH  15  18
ENDBRANCH   1  14
BRANCH   2  26
HETATM   26  N   UNL     1      23.806  43.066  51.721  1.00  0.00    -0.291 NA
HETATM   27  H   UNL     1      23.594  43.927  52.234  1.00  0.00     0.125 HD
HETATM   28  H   UNL     1      22.979  42.804  51.175  1.00  0.00     0.125 HD
ENDBRANCH   2  26
BRANCH   3  29
HETATM   29  N   UNL     1      27.092  43.113  52.081  1.00  0.00    -0.198 NA
HETATM   30  C   UNL     1      26.641  43.658  53.177  1.00  0.00     0.147 C 
BRANCH  30  31
HETATM   31  C   UNL     1      27.436  44.538  54.022  1.00  0.00     0.010 A 
HETATM   32  C   UNL     1      28.685  44.212  54.672  1.00  0.00     0.004 A 
HETATM   33  C   UNL     1      29.109  45.348  55.364  1.00  0.00     0.043 A 
HETATM   34  C   UNL     1      29.505  43.059  54.737  1.00  0.00     0.014 A 
HETATM   35  C   UNL     1      30.318  45.405  56.075  1.00  0.00     0.030 A 
HETATM   36  N   UNL     1      28.135  46.305  55.197  1.00  0.00    -0.364 N 
HETATM   37  C   UNL     1      31.116  44.259  56.102  1.00  0.00     0.002 A 
HETATM   38  C   UNL     1      30.711  43.096  55.453  1.00  0.00     0.001 A 
HETATM   39  H   UNL     1      28.167  47.227  55.610  1.00  0.00     0.165 HD
HETATM   40  C   UNL     1      27.121  45.826  54.409  1.00  0.00     0.102 A 
ENDBRANCH  30  31
ENDBRANCH   3  29
TORSDOF 5
ENDMDL
MODEL 6
REMARK VINA RESULT:     -10.5      1.638      2.326
REMARK  5 active torsions:
REMARK  status: ('A' for Active; 'I' for Inactive)
REMARK    1  A    between atoms: C_6  and  N_7 
REMARK       I    between atoms: N_7  and  C_8 
REMARK    2  A    between atoms: C_8  and  C_9 
REMARK    3  A    between atoms: C_10  and  N_11 
REMARK    4  A    between atoms: N_12  and  N_13 
REMARK    5  A    between atoms: C_14  and  C_15 
ROOT
HETATM    1  C   UNL     1      26.684  43.044  51.634  1.00  0.00     0.099 C 
HETATM    2  C   UNL     1      26.866  44.124  50.719  1.00  0.00     0.101 C 
HETATM    3  N   UNL     1      25.964  43.768  49.778  1.00  0.00    -0.107 NA
HETATM    4  C   UNL     1      26.492  42.495  49.723  1.00  0.00     0.162 C 
HETATM    5  C   UNL     1      26.037  41.859  50.909  1.00  0.00     0.118 C 
HETATM    6  N   UNL     1      25.448  40.786  50.217  1.00  0.00    -0.242 NA
HETATM    7  C   UNL     1      26.196  40.254  49.092  1.00  0.00     0.086 C 
HETATM    8  C   UNL     1      27.493  40.673  49.069  1.00  0.00     0.087 C 
HETATM    9  N   UNL     1      27.646  41.991  49.184  1.00  0.00    -0.230 NA
HETATM   10  C   UNL     1      25.920  39.633  47.821  1.00  0.00     0.034 C 
HETATM   11  C   UNL     1      26.956  39.179  46.956  1.00  0.00     0.002 C 
HETATM   12  C   UNL     1      28.259  39.162  47.430  1.00  0.00     0.002 C 
HETATM   13  C   UNL     1      28.515  39.887  48.572  1.00  0.00     0.034 C 
ENDROOT
BRANCH   1  14
HETATM   14  C   UNL     1      27.416  43.269  52.916  1.00  0.00     0.261 C 
HETATM   15  N   UNL     1      28.722  43.756  53.039  1.00  0.00    -0.323 N 
HETATM   16  H   UNL     1      29.398  43.522  52.327  1.00  0.00     0.169 HD
HETATM   17  O   UNL     1      26.789  43.005  53.952  1.00  0.00    -0.267 OA
BRANCH  15  18
HETATM   18  C   UNL     1      29.183  44.289  54.309  1.00  0.00     0.035 C 
HETATM   19  C   UNL     1      30.017  43.525  55.142  1.00  0.00     0.037 C 
HETATM   20  C   UNL     1      30.641  44.030  56.289  1.00  0.00    -0.054 C 
HETATM   21  C   UNL     1      30.124  45.185  56.865  1.00  0.00    -0.056 C 
HETATM   22  C   UNL     1      31.976  43.438  56.662  1.00  0.00     0.049 C 
HETATM   23  C   UNL     1      30.359  45.486  58.323  1.00  0.00     0.049 C 
HETATM   24  C   UNL     1      29.250  45.965  56.083  1.00  0.00     0.009 C 
HETATM   25  C   UNL     1      28.843  45.559  54.782  1.00  0.00     0.030 C 
ENDBRANCH  15  18
ENDBRANCH   1  14
BRANCH   2  26
HETATM   26  N   UNL     1      27.660  45.218  50.567  1.00  0.00    -0.291 NA
HETATM   27  H   UNL     1      28.228  45.194  49.714  1.00  0.00     0.125 HD
HETATM   28  H   UNL     1      27.139  46.101  50.582  1.00  0.00     0.125 HD
ENDBRANCH   2  26
BRANCH   3  29
HETATM   29  N   UNL     1      24.613  44.168  49.833  1.00  0.00    -0.198 NA
HETATM   30  C   UNL     1      24.291  44.962  48.851  1.00  0.00     0.147 C 
BRANCH  30  31
HETATM   31  C   UNL     1      23.032  45.691  48.786  1.00  0.00     0.010 A 
HETATM   32  C   UNL     1      22.859  47.123  48.885  1.00  0.00     0.004 A 
HETATM   33  C   UNL     1      21.495  47.392  48.754  1.00  0.00     0.043 A 
HETATM   34  C   UNL     1      23.731  48.223  49.068  1.00  0.00     0.014 A 
HETATM   35  C   UNL     1      20.968  48.693  48.754  1.00  0.00     0.030 A 
HETATM   36  N   UNL     1      20.856  46.179  48.644  1.00  0.00    -0.364 N 
HETATM   37  C   UNL     1      21.857  49.760  48.914  1.00  0.00     0.002 A 
HETATM   38  C   UNL     1      23.220  49.530  49.081  1.00  0.00     0.001 A 
HETATM   39  H   UNL     1      19.855  46.070  48.560  1.00  0.00     0.165 HD
HETATM   40  C   UNL     1      21.764  45.153  48.678  1.00  0.00     0.102 A 
ENDBRANCH  30  31
ENDBRANCH   3  29
TORSDOF 5
ENDMDL
MODEL 7
REMARK VINA RESULT:     -10.1      2.400      8.749
REMARK  5 active torsions:
REMARK  status: ('A' for Active; 'I' for Inactive)
REMARK    1  A    between atoms: C_6  and  N_7 
REMARK       I    between atoms: N_7  and  C_8 
REMARK    2  A    between atoms: C_8  and  C_9 
REMARK    3  A    between atoms: C_10  and  N_11 
REMARK    4  A    between atoms: N_12  and  N_13 
REMARK    5  A    between atoms: C_14  and  C_15 
ROOT
HETATM    1  C   UNL     1      25.081  43.207  49.338  1.00  0.00     0.099 C 
HETATM    2  C   UNL     1      24.795  42.785  50.672  1.00  0.00     0.101 C 
HETATM    3  N   UNL     1      26.044  42.459  51.070  1.00  0.00    -0.107 NA
HETATM    4  C   UNL     1      26.225  41.685  49.943  1.00  0.00     0.162 C 
HETATM    5  C   UNL     1      26.421  42.617  48.887  1.00  0.00     0.118 C 
HETATM    6  N   UNL     1      27.651  42.057  48.499  1.00  0.00    -0.242 NA
HETATM    7  C   UNL     1      27.731  40.607  48.500  1.00  0.00     0.086 C 
HETATM    8  C   UNL     1      26.510  40.007  48.581  1.00  0.00     0.087 C 
HETATM    9  N   UNL     1      25.741  40.459  49.570  1.00  0.00    -0.230 NA
HETATM   10  C   UNL     1      28.728  39.591  48.724  1.00  0.00     0.034 C 
HETATM   11  C   UNL     1      28.440  38.203  48.590  1.00  0.00     0.002 C 
HETATM   12  C   UNL     1      27.222  37.824  48.048  1.00  0.00     0.002 C 
HETATM   13  C   UNL     1      26.243  38.790  47.982  1.00  0.00     0.034 C 
ENDROOT
BRANCH   1  14
HETATM   14  C   UNL     1      23.895  43.840  48.688  1.00  0.00     0.261 C 
HETATM   15  N   UNL     1      22.882  44.550  49.343  1.00  0.00    -0.323 N 
HETATM   16  H   UNL     1      22.618  44.271  50.276  1.00  0.00     0.169 HD
HETATM   17  O   UNL     1      23.827  43.724  47.456  1.00  0.00    -0.267 OA
BRANCH  15  18
HETATM   18  C   UNL     1      22.006  45.430  48.590  1.00  0.00     0.035 C 
HETATM   19  C   UNL     1      20.715  45.013  48.229  1.00  0.00     0.037 C 
HETATM   20  C   UNL     1      19.756  45.860  47.661  1.00  0.00    -0.054 C 
HETATM   21  C   UNL     1      20.190  47.035  47.057  1.00  0.00    -0.056 C 
HETATM   22  C   UNL     1      18.310  45.569  47.974  1.00  0.00     0.049 C 
HETATM   23  C   UNL     1      19.356  47.705  45.997  1.00  0.00     0.049 C 
HETATM   24  C   UNL     1      21.495  47.474  47.356  1.00  0.00     0.009 C 
HETATM   25  C   UNL     1      22.371  46.715  48.180  1.00  0.00     0.030 C 
ENDBRANCH  15  18
ENDBRANCH   1  14
BRANCH   2  26
HETATM   26  N   UNL     1      23.719  42.600  51.482  1.00  0.00    -0.291 NA
HETATM   27  H   UNL     1      23.951  42.617  52.480  1.00  0.00     0.125 HD
HETATM   28  H   UNL     1      22.966  43.276  51.316  1.00  0.00     0.125 HD
ENDBRANCH   2  26
BRANCH   3  29
HETATM   29  N   UNL     1      26.923  43.394  51.655  1.00  0.00    -0.198 NA
HETATM   30  C   UNL     1      26.928  43.321  52.957  1.00  0.00     0.147 C 
BRANCH  30  31
HETATM   31  C   UNL     1      27.573  44.306  53.814  1.00  0.00     0.010 A 
HETATM   32  C   UNL     1      28.776  44.115  54.592  1.00  0.00     0.004 A 
HETATM   33  C   UNL     1      29.048  45.317  55.249  1.00  0.00     0.043 A 
HETATM   34  C   UNL     1      29.668  43.036  54.802  1.00  0.00     0.014 A 
HETATM   35  C   UNL     1      30.177  45.508  56.061  1.00  0.00     0.030 A 
HETATM   36  N   UNL     1      28.027  46.184  54.936  1.00  0.00    -0.364 N 
HETATM   37  C   UNL     1      31.051  44.431  56.230  1.00  0.00     0.002 A 
HETATM   38  C   UNL     1      30.796  43.206  55.620  1.00  0.00     0.001 A 
HETATM   39  H   UNL     1      27.952  47.127  55.293  1.00  0.00     0.165 HD
HETATM   40  C   UNL     1      27.129  45.584  54.091  1.00  0.00     0.102 A 
ENDBRANCH  30  31
ENDBRANCH   3  29
TORSDOF 5
ENDMDL
MODEL 8
REMARK VINA RESULT:      -9.8      3.404      9.161
REMARK  5 active torsions:
REMARK  status: ('A' for Active; 'I' for Inactive)
REMARK    1  A    between atoms: C_6  and  N_7 
REMARK       I    between atoms: N_7  and  C_8 
REMARK    2  A    between atoms: C_8  and  C_9 
REMARK    3  A    between atoms: C_10  and  N_11 
REMARK    4  A    between atoms: N_12  and  N_13 
REMARK    5  A    between atoms: C_14  and  C_15 
ROOT
HETATM    1  C   UNL     1      24.600  43.782  49.077  1.00  0.00     0.099 C 
HETATM    2  C   UNL     1      23.910  43.439  50.280  1.00  0.00     0.101 C 
HETATM    3  N   UNL     1      24.972  43.215  51.084  1.00  0.00    -0.107 NA
HETATM    4  C   UNL     1      25.534  42.375  50.145  1.00  0.00     0.162 C 
HETATM    5  C   UNL     1      26.031  43.239  49.133  1.00  0.00     0.118 C 
HETATM    6  N   UNL     1      27.338  42.725  49.209  1.00  0.00    -0.242 NA
HETATM    7  C   UNL     1      27.460  41.286  49.361  1.00  0.00     0.086 C 
HETATM    8  C   UNL     1      26.297  40.624  49.096  1.00  0.00     0.087 C 
HETATM    9  N   UNL     1      25.235  41.100  49.743  1.00  0.00    -0.230 NA
HETATM   10  C   UNL     1      28.361  40.348  49.978  1.00  0.00     0.034 C 
HETATM   11  C   UNL     1      28.177  38.939  49.879  1.00  0.00     0.002 C 
HETATM   12  C   UNL     1      27.213  38.453  49.010  1.00  0.00     0.002 C 
HETATM   13  C   UNL     1      26.278  39.354  48.551  1.00  0.00     0.034 C 
ENDROOT
BRANCH   1  14
HETATM   14  C   UNL     1      23.669  44.297  48.029  1.00  0.00     0.261 C 
HETATM   15  N   UNL     1      23.557  43.813  46.721  1.00  0.00    -0.323 N 
HETATM   16  H   UNL     1      24.383  43.458  46.262  1.00  0.00     0.169 HD
HETATM   17  O   UNL     1      22.931  45.232  48.374  1.00  0.00    -0.267 OA
BRANCH  15  18
HETATM   18  C   UNL     1      22.380  44.123  45.928  1.00  0.00     0.035 C 
HETATM   19  C   UNL     1      22.436  45.104  44.924  1.00  0.00     0.037 C 
HETATM   20  C   UNL     1      21.403  45.335  44.007  1.00  0.00    -0.054 C 
HETATM   21  C   UNL     1      20.128  44.882  44.325  1.00  0.00    -0.056 C 
HETATM   22  C   UNL     1      21.797  45.821  42.636  1.00  0.00     0.049 C 
HETATM   23  C   UNL     1      18.911  45.521  43.707  1.00  0.00     0.049 C 
HETATM   24  C   UNL     1      20.016  43.927  45.355  1.00  0.00     0.009 C 
HETATM   25  C   UNL     1      21.147  43.492  46.100  1.00  0.00     0.030 C 
ENDBRANCH  15  18
ENDBRANCH   1  14
BRANCH   2  26
HETATM   26  N   UNL     1      22.635  43.250  50.714  1.00  0.00    -0.291 NA
HETATM   27  H   UNL     1      21.998  44.009  50.451  1.00  0.00     0.125 HD
HETATM   28  H   UNL     1      22.227  42.364  50.400  1.00  0.00     0.125 HD
ENDBRANCH   2  26
BRANCH   3  29
HETATM   29  N   UNL     1      25.583  44.238  51.838  1.00  0.00    -0.198 NA
HETATM   30  C   UNL     1      26.565  43.795  52.571  1.00  0.00     0.147 C 
BRANCH  30  31
HETATM   31  C   UNL     1      27.221  44.589  53.601  1.00  0.00     0.010 A 
HETATM   32  C   UNL     1      28.449  44.262  54.288  1.00  0.00     0.004 A 
HETATM   33  C   UNL     1      28.724  45.303  55.178  1.00  0.00     0.043 A 
HETATM   34  C   UNL     1      29.363  43.181  54.240  1.00  0.00     0.014 A 
HETATM   35  C   UNL     1      29.874  45.340  55.982  1.00  0.00     0.030 A 
HETATM   36  N   UNL     1      27.682  46.195  55.084  1.00  0.00    -0.364 N 
HETATM   37  C   UNL     1      30.768  44.269  55.895  1.00  0.00     0.002 A 
HETATM   38  C   UNL     1      30.513  43.197  55.046  1.00  0.00     0.001 A 
HETATM   39  H   UNL     1      27.604  47.039  55.635  1.00  0.00     0.165 HD
HETATM   40  C   UNL     1      26.768  45.770  54.155  1.00  0.00     0.102 A 
ENDBRANCH  30  31
ENDBRANCH   3  29
TORSDOF 5
ENDMDL
MODEL 9
REMARK VINA RESULT:      -9.8      2.435      8.450
REMARK  5 active torsions:
REMARK  status: ('A' for Active; 'I' for Inactive)
REMARK    1  A    between atoms: C_6  and  N_7 
REMARK       I    between atoms: N_7  and  C_8 
REMARK    2  A    between atoms: C_8  and  C_9 
REMARK    3  A    between atoms: C_10  and  N_11 
REMARK    4  A    between atoms: N_12  and  N_13 
REMARK    5  A    between atoms: C_14  and  C_15 
ROOT
HETATM    1  C   UNL     1      23.121  43.936  48.275  1.00  0.00     0.099 C 
HETATM    2  C   UNL     1      22.961  43.496  49.624  1.00  0.00     0.101 C 
HETATM    3  N   UNL     1      23.853  42.481  49.630  1.00  0.00    -0.107 NA
HETATM    4  C   UNL     1      23.297  41.957  48.482  1.00  0.00     0.162 C 
HETATM    5  C   UNL     1      23.740  42.812  47.437  1.00  0.00     0.118 C 
HETATM    6  N   UNL     1      24.304  41.761  46.692  1.00  0.00    -0.242 NA
HETATM    7  C   UNL     1      23.542  40.526  46.637  1.00  0.00     0.086 C 
HETATM    8  C   UNL     1      22.254  40.676  47.060  1.00  0.00     0.087 C 
HETATM    9  N   UNL     1      22.131  41.279  48.241  1.00  0.00    -0.230 NA
HETATM   10  C   UNL     1      23.802  39.113  46.535  1.00  0.00     0.034 C 
HETATM   11  C   UNL     1      22.754  38.151  46.460  1.00  0.00     0.002 C 
HETATM   12  C   UNL     1      21.452  38.597  46.292  1.00  0.00     0.002 C 
HETATM   13  C   UNL     1      21.214  39.930  46.539  1.00  0.00     0.034 C 
ENDROOT
BRANCH   1  14
HETATM   14  C   UNL     1      22.396  45.215  48.017  1.00  0.00     0.261 C 
HETATM   15  N   UNL     1      21.727  45.987  48.974  1.00  0.00    -0.323 N 
HETATM   16  H   UNL     1      21.277  45.519  49.747  1.00  0.00     0.169 HD
HETATM   17  O   UNL     1      22.408  45.617  46.845  1.00  0.00    -0.267 OA
BRANCH  15  18
HETATM   18  C   UNL     1      21.397  47.373  48.691  1.00  0.00     0.035 C 
HETATM   19  C   UNL     1      22.364  48.380  48.843  1.00  0.00     0.037 C 
HETATM   20  C   UNL     1      22.177  49.704  48.426  1.00  0.00    -0.054 C 
HETATM   21  C   UNL     1      20.877  50.153  48.225  1.00  0.00    -0.056 C 
HETATM   22  C   UNL     1      23.400  50.461  47.974  1.00  0.00     0.049 C 
HETATM   23  C   UNL     1      20.552  51.622  48.306  1.00  0.00     0.049 C 
HETATM   24  C   UNL     1      19.864  49.180  48.106  1.00  0.00     0.009 C 
HETATM   25  C   UNL     1      20.137  47.793  48.260  1.00  0.00     0.030 C 
ENDBRANCH  15  18
ENDBRANCH   1  14
BRANCH   2  26
HETATM   26  N   UNL     1      22.192  43.774  50.711  1.00  0.00    -0.291 NA
HETATM   27  H   UNL     1      22.592  43.437  51.592  1.00  0.00     0.125 HD
HETATM   28  H   UNL     1      21.982  44.772  50.813  1.00  0.00     0.125 HD
ENDBRANCH   2  26
BRANCH   3  29
HETATM   29  N   UNL     1      25.213  42.668  49.953  1.00  0.00    -0.198 NA
HETATM   30  C   UNL     1      25.738  41.617  50.516  1.00  0.00     0.147 C 
BRANCH  30  31
HETATM   31  C   UNL     1      27.053  41.613  51.143  1.00  0.00     0.010 A 
HETATM   32  C   UNL     1      27.549  42.566  52.109  1.00  0.00     0.004 A 
HETATM   33  C   UNL     1      28.844  42.177  52.458  1.00  0.00     0.043 A 
HETATM   34  C   UNL     1      27.022  43.724  52.730  1.00  0.00     0.014 A 
HETATM   35  C   UNL     1      29.616  42.853  53.415  1.00  0.00     0.030 A 
HETATM   36  N   UNL     1      29.149  41.074  51.695  1.00  0.00    -0.364 N 
HETATM   37  C   UNL     1      29.060  43.979  54.027  1.00  0.00     0.002 A 
HETATM   38  C   UNL     1      27.785  44.418  53.682  1.00  0.00     0.001 A 
HETATM   39  H   UNL     1      30.038  40.592  51.721  1.00  0.00     0.165 HD
HETATM   40  C   UNL     1      28.091  40.737  50.892  1.00  0.00     0.102 A 
ENDBRANCH  30  31
ENDBRANCH   3  29
TORSDOF 5
ENDMDL
MODEL 10
REMARK VINA RESULT:      -9.7      4.900      9.556
REMARK  5 active torsions:
REMARK  status: ('A' for Active; 'I' for Inactive)
REMARK    1  A    between atoms: C_6  and  N_7 
REMARK       I    between atoms: N_7  and  C_8 
REMARK    2  A    between atoms: C_8  and  C_9 
REMARK    3  A    between atoms: C_10  and  N_11 
REMARK    4  A    between atoms: N_12  and  N_13 
REMARK    5  A    between atoms: C_14  and  C_15 
ROOT
HETATM    1  C   UNL     1      19.634  49.420  48.815  1.00  0.00     0.099 C 
HETATM    2  C   UNL     1      18.946  48.562  49.726  1.00  0.00     0.101 C 
HETATM    3  N   UNL     1      17.737  48.531  49.125  1.00  0.00    -0.107 NA
HETATM    4  C   UNL     1      17.712  49.908  49.054  1.00  0.00     0.162 C 
HETATM    5  C   UNL     1      18.619  50.237  48.011  1.00  0.00     0.118 C 
HETATM    6  N   UNL     1      17.664  50.978  47.291  1.00  0.00    -0.242 NA
HETATM    7  C   UNL     1      16.780  51.825  48.072  1.00  0.00     0.086 C 
HETATM    8  C   UNL     1      17.213  52.009  49.352  1.00  0.00     0.087 C 
HETATM    9  N   UNL     1      17.512  50.883  49.997  1.00  0.00    -0.230 NA
HETATM   10  C   UNL     1      15.428  52.317  47.998  1.00  0.00     0.034 C 
HETATM   11  C   UNL     1      14.889  53.208  48.969  1.00  0.00     0.002 C 
HETATM   12  C   UNL     1      15.744  53.767  49.906  1.00  0.00     0.002 C 
HETATM   13  C   UNL     1      16.980  53.179  50.050  1.00  0.00     0.034 C 
ENDROOT
BRANCH   1  14
HETATM   14  C   UNL     1      21.098  49.481  49.106  1.00  0.00     0.261 C 
HETATM   15  N   UNL     1      21.956  48.383  49.233  1.00  0.00    -0.323 N 
HETATM   16  H   UNL     1      21.593  47.525  49.621  1.00  0.00     0.169 HD
HETATM   17  O   UNL     1      21.577  50.618  49.233  1.00  0.00    -0.267 OA
BRANCH  15  18
HETATM   18  C   UNL     1      23.393  48.567  49.133  1.00  0.00     0.035 C 
HETATM   19  C   UNL     1      24.266  47.788  49.909  1.00  0.00     0.037 C 
HETATM   20  C   UNL     1      25.657  47.783  49.744  1.00  0.00    -0.054 C 
HETATM   21  C   UNL     1      26.245  48.857  49.085  1.00  0.00    -0.056 C 
HETATM   22  C   UNL     1      26.381  46.498  50.055  1.00  0.00     0.049 C 
HETATM   23  C   UNL     1      27.692  49.202  49.323  1.00  0.00     0.049 C 
HETATM   24  C   UNL     1      25.403  49.693  48.325  1.00  0.00     0.009 C 
HETATM   25  C   UNL     1      23.994  49.502  48.287  1.00  0.00     0.030 C 
ENDBRANCH  15  18
ENDBRANCH   1  14
BRANCH   2  26
HETATM   26  N   UNL     1      19.171  47.925  50.906  1.00  0.00    -0.291 NA
HETATM   27  H   UNL     1      20.145  47.632  51.033  1.00  0.00     0.125 HD
HETATM   28  H   UNL     1      18.893  48.478  51.724  1.00  0.00     0.125 HD
ENDBRANCH   2  26
BRANCH   3  29
HETATM   29  N   UNL     1      17.406  47.585  48.132  1.00  0.00    -0.198 NA
HETATM   30  C   UNL     1      18.159  46.523  48.190  1.00  0.00     0.147 C 
BRANCH  30  31
HETATM   31  C   UNL     1      18.179  45.495  47.159  1.00  0.00     0.010 A 
HETATM   32  C   UNL     1      19.295  44.645  46.811  1.00  0.00     0.004 A 
HETATM   33  C   UNL     1      18.874  43.796  45.786  1.00  0.00     0.043 A 
HETATM   34  C   UNL     1      20.627  44.509  47.271  1.00  0.00     0.014 A 
HETATM   35  C   UNL     1      19.693  42.799  45.232  1.00  0.00     0.030 A 
HETATM   36  N   UNL     1      17.582  44.150  45.478  1.00  0.00    -0.364 N 
HETATM   37  C   UNL     1      20.996  42.675  45.723  1.00  0.00     0.002 A 
HETATM   38  C   UNL     1      21.463  43.525  46.721  1.00  0.00     0.001 A 
HETATM   39  H   UNL     1      17.031  43.715  44.750  1.00  0.00     0.165 HD
HETATM   40  C   UNL     1      17.160  45.177  46.282  1.00  0.00     0.102 A 
ENDBRANCH  30  31
ENDBRANCH   3  29
TORSDOF 5
ENDMDL
