MODEL 1
REMARK VINA RESULT:      -9.8      0.000      0.000
REMARK  8 active torsions:
REMARK  status: ('A' for Active; 'I' for Inactive)
REMARK    1  A    between atoms: O_2  and  C_3 
REMARK    2  A    between atoms: C_5  and  O_6 
REMARK    3  A    between atoms: C_9  and  N_10 
REMARK       I    between atoms: N_10  and  C_11 
REMARK       I    between atoms: C_11  and  N_12 
REMARK    4  A    between atoms: N_12  and  C_13 
REMARK    5  A    between atoms: C_16  and  N_17 
REMARK    6  A    between atoms: N_20  and  C_22 
REMARK    7  A    between atoms: C_22  and  C_23 
REMARK    8  A    between atoms: C_25  and  C_26 
ROOT
HETATM    1  C   UNL     1      22.777  48.282  48.803  1.00  0.00     0.054 A 
HETATM    2  C   UNL     1      23.873  48.253  49.654  1.00  0.00     0.148 A 
HETATM    3  N   UNL     1      24.549  47.120  50.002  1.00  0.00    -0.241 NA
HETATM    4  C   UNL     1      24.135  45.937  49.503  1.00  0.00     0.125 A 
HETATM    5  C   UNL     1      23.077  45.895  48.597  1.00  0.00     0.052 A 
HETATM    6  C   UNL     1      22.399  47.067  48.244  1.00  0.00     0.035 A 
ENDROOT
BRANCH   4   7
HETATM    7  N   UNL     1      24.732  44.776  49.984  1.00  0.00    -0.364 N 
HETATM    8  C   UNL     1      24.307  44.352  51.323  1.00  0.00     0.152 C 
HETATM    9  C   UNL     1      25.403  44.486  52.397  1.00  0.00     0.255 C 
HETATM   10  N   UNL     1      26.507  43.463  52.121  1.00  0.00    -0.066 N 
HETATM   11  H   UNL     1      26.060  42.739  51.547  1.00  0.00     0.280 HD
HETATM   12  C   UNL     1      27.636  43.998  51.284  1.00  0.00     0.237 C 
HETATM   13  C   UNL     1      27.190  44.778  50.050  1.00  0.00     0.047 C 
HETATM   14  C   UNL     1      25.939  44.245  49.358  1.00  0.00     0.126 C 
BRANCH  10  15
HETATM   15  C   UNL     1      26.955  42.686  53.342  1.00  0.00     0.273 C 
BRANCH  15  16
HETATM   16  C   UNL     1      28.182  43.186  54.056  1.00  0.00    -0.032 A 
HETATM   17  C   UNL     1      28.116  44.336  54.864  1.00  0.00     0.025 A 
HETATM   18  C   UNL     1      29.256  44.833  55.520  1.00  0.00     0.048 A 
HETATM   19  C   UNL     1      30.475  44.164  55.354  1.00  0.00     0.016 A 
HETATM   20  C   UNL     1      30.555  43.027  54.552  1.00  0.00     0.001 A 
HETATM   21  C   UNL     1      29.417  42.541  53.906  1.00  0.00     0.009 A 
BRANCH  18  22
HETATM   22  C   UNL     1      29.189  46.076  56.380  1.00  0.00     0.417 C 
HETATM   23  F   UNL     1      28.353  45.930  57.446  1.00  0.00    -0.166 F 
HETATM   24  F   UNL     1      30.399  46.414  56.897  1.00  0.00    -0.166 F 
HETATM   25  F   UNL     1      28.741  47.161  55.695  1.00  0.00    -0.166 F 
ENDBRANCH  18  22
ENDBRANCH  15  16
ENDBRANCH  10  15
ENDBRANCH   4   7
BRANCH   1  26
HETATM   26  N   UNL     1      22.007  49.421  48.484  1.00  0.00    -0.307 N 
HETATM   27  C   UNL     1      20.678  49.642  48.817  1.00  0.00     0.325 C 
HETATM   28  N   UNL     1      20.237  50.846  48.290  1.00  0.00    -0.309 N 
HETATM   29  O   UNL     1      19.997  48.859  49.467  1.00  0.00    -0.247 OA
HETATM   30  H   UNL     1      20.944  51.463  47.915  1.00  0.00     0.170 HD
HETATM   31  H   UNL     1      22.416  50.068  47.827  1.00  0.00     0.170 HD
BRANCH  28  32
HETATM   32  C   UNL     1      18.925  51.374  48.304  1.00  0.00     0.041 A 
HETATM   33  C   UNL     1      18.315  51.928  49.436  1.00  0.00     0.066 A 
HETATM   34  C   UNL     1      17.012  52.439  49.369  1.00  0.00     0.073 A 
HETATM   35  C   UNL     1      16.307  52.374  48.168  1.00  0.00     0.073 A 
HETATM   36  C   UNL     1      16.899  51.796  47.050  1.00  0.00     0.073 A 
HETATM   37  C   UNL     1      18.206  51.316  47.104  1.00  0.00     0.066 A 
BRANCH  34  38
HETATM   38  O   UNL     1      16.321  53.017  50.401  1.00  0.00    -0.356 OA
HETATM   39  C   UNL     1      14.911  53.126  50.249  1.00  0.00     0.210 C 
ENDBRANCH  34  38
BRANCH  36  40
HETATM   40  O   UNL     1      16.224  51.770  45.859  1.00  0.00    -0.356 OA
HETATM   41  C   UNL     1      14.908  52.302  46.028  1.00  0.00     0.210 C 
ENDBRANCH  36  40
ENDBRANCH  28  32
ENDBRANCH   1  26
TORSDOF 8
ENDMDL
MODEL 2
REMARK VINA RESULT:      -9.4      2.153      2.988
REMARK  8 active torsions:
REMARK  status: ('A' for Active; 'I' for Inactive)
REMARK    1  A    between atoms: O_2  and  C_3 
REMARK    2  A    between atoms: C_5  and  O_6 
REMARK    3  A    between atoms: C_9  and  N_10 
REMARK       I    between atoms: N_10  and  C_11 
REMARK       I    between atoms: C_11  and  N_12 
REMARK    4  A    between atoms: N_12  and  C_13 
REMARK    5  A    between atoms: C_16  and  N_17 
REMARK    6  A    between atoms: N_20  and  C_22 
REMARK    7  A    between atoms: C_22  and  C_23 
REMARK    8  A    between atoms: C_25  and  C_26 
ROOT
HETATM    1  C   UNL     1      22.280  46.311  48.557  1.00  0.00     0.054 A 
HETATM    2  C   UNL     1      23.378  46.916  49.152  1.00  0.00     0.148 A 
HETATM    3  N   UNL     1      24.257  46.278  49.978  1.00  0.00    -0.241 NA
HETATM    4  C   UNL     1      24.058  44.973  50.255  1.00  0.00     0.125 A 
HETATM    5  C   UNL     1      23.008  44.284  49.650  1.00  0.00     0.052 A 
HETATM    6  C   UNL     1      22.121  44.952  48.798  1.00  0.00     0.035 A 
ENDROOT
BRANCH   4   7
HETATM    7  N   UNL     1      24.867  44.374  51.217  1.00  0.00    -0.364 N 
HETATM    8  C   UNL     1      25.991  45.187  51.695  1.00  0.00     0.152 C 
HETATM    9  C   UNL     1      27.371  44.659  51.262  1.00  0.00     0.255 C 
HETATM   10  N   UNL     1      27.656  43.340  51.985  1.00  0.00    -0.066 N 
HETATM   11  H   UNL     1      27.051  43.357  52.813  1.00  0.00     0.280 HD
HETATM   12  C   UNL     1      27.243  42.120  51.209  1.00  0.00     0.237 C 
HETATM   13  C   UNL     1      25.846  42.205  50.600  1.00  0.00     0.047 C 
HETATM   14  C   UNL     1      24.808  42.934  51.448  1.00  0.00     0.126 C 
BRANCH  10  15
HETATM   15  C   UNL     1      29.042  43.250  52.591  1.00  0.00     0.273 C 
BRANCH  15  16
HETATM   16  C   UNL     1      29.256  43.945  53.908  1.00  0.00    -0.032 A 
HETATM   17  C   UNL     1      30.202  43.453  54.826  1.00  0.00     0.025 A 
HETATM   18  C   UNL     1      30.401  44.074  56.073  1.00  0.00     0.048 A 
HETATM   19  C   UNL     1      29.633  45.199  56.397  1.00  0.00     0.016 A 
HETATM   20  C   UNL     1      28.688  45.693  55.498  1.00  0.00     0.001 A 
HETATM   21  C   UNL     1      28.500  45.070  54.263  1.00  0.00     0.009 A 
BRANCH  18  22
HETATM   22  C   UNL     1      31.410  43.539  57.065  1.00  0.00     0.417 C 
HETATM   23  F   UNL     1      31.452  44.270  58.215  1.00  0.00    -0.166 F 
HETATM   24  F   UNL     1      31.137  42.262  57.444  1.00  0.00    -0.166 F 
HETATM   25  F   UNL     1      32.676  43.536  56.572  1.00  0.00    -0.166 F 
ENDBRANCH  18  22
ENDBRANCH  15  16
ENDBRANCH  10  15
ENDBRANCH   4   7
BRANCH   1  26
HETATM   26  N   UNL     1      21.308  46.957  47.763  1.00  0.00    -0.307 N 
HETATM   27  C   UNL     1      20.190  47.642  48.217  1.00  0.00     0.325 C 
HETATM   28  N   UNL     1      19.433  48.099  47.149  1.00  0.00    -0.309 N 
HETATM   29  O   UNL     1      19.914  47.794  49.400  1.00  0.00    -0.247 OA
HETATM   30  H   UNL     1      19.858  48.045  46.235  1.00  0.00     0.170 HD
HETATM   31  H   UNL     1      21.350  46.777  46.771  1.00  0.00     0.170 HD
BRANCH  28  32
HETATM   32  C   UNL     1      18.170  48.734  47.187  1.00  0.00     0.041 A 
HETATM   33  C   UNL     1      16.950  48.064  47.031  1.00  0.00     0.066 A 
HETATM   34  C   UNL     1      15.737  48.763  47.089  1.00  0.00     0.073 A 
HETATM   35  C   UNL     1      15.745  50.144  47.280  1.00  0.00     0.073 A 
HETATM   36  C   UNL     1      16.956  50.817  47.403  1.00  0.00     0.073 A 
HETATM   37  C   UNL     1      18.163  50.121  47.378  1.00  0.00     0.066 A 
BRANCH  34  38
HETATM   38  O   UNL     1      14.488  48.215  46.968  1.00  0.00    -0.356 OA
HETATM   39  C   UNL     1      13.949  48.127  45.654  1.00  0.00     0.210 C 
ENDBRANCH  34  38
BRANCH  36  40
HETATM   40  O   UNL     1      16.964  52.166  47.634  1.00  0.00    -0.356 OA
HETATM   41  C   UNL     1      16.319  52.457  48.875  1.00  0.00     0.210 C 
ENDBRANCH  36  40
ENDBRANCH  28  32
ENDBRANCH   1  26
TORSDOF 8
ENDMDL
MODEL 3
REMARK VINA RESULT:      -9.3      1.832      2.712
REMARK  8 active torsions:
REMARK  status: ('A' for Active; 'I' for Inactive)
REMARK    1  A    between atoms: O_2  and  C_3 
REMARK    2  A    between atoms: C_5  and  O_6 
REMARK    3  A    between atoms: C_9  and  N_10 
REMARK       I    between atoms: N_10  and  C_11 
REMARK       I    between atoms: C_11  and  N_12 
REMARK    4  A    between atoms: N_12  and  C_13 
REMARK    5  A    between atoms: C_16  and  N_17 
REMARK    6  A    between atoms: N_20  and  C_22 
REMARK    7  A    between atoms: C_22  and  C_23 
REMARK    8  A    between atoms: C_25  and  C_26 
ROOT
HETATM    1  C   UNL     1      22.771  48.402  48.410  1.00  0.00     0.054 A 
HETATM    2  C   UNL     1      23.798  49.133  48.989  1.00  0.00     0.148 A 
HETATM    3  N   UNL     1      24.826  48.588  49.702  1.00  0.00    -0.241 NA
HETATM    4  C   UNL     1      24.860  47.250  49.874  1.00  0.00     0.125 A 
HETATM    5  C   UNL     1      23.893  46.446  49.275  1.00  0.00     0.052 A 
HETATM    6  C   UNL     1      22.850  47.020  48.540  1.00  0.00     0.035 A 
ENDROOT
BRANCH   4   7
HETATM    7  N   UNL     1      25.823  46.722  50.730  1.00  0.00    -0.364 N 
HETATM    8  C   UNL     1      26.069  45.282  50.595  1.00  0.00     0.152 C 
HETATM    9  C   UNL     1      25.596  44.453  51.803  1.00  0.00     0.255 C 
HETATM   10  N   UNL     1      26.479  44.772  53.011  1.00  0.00    -0.066 N 
HETATM   11  H   UNL     1      27.347  45.147  52.613  1.00  0.00     0.280 HD
HETATM   12  C   UNL     1      25.935  45.865  53.889  1.00  0.00     0.237 C 
HETATM   13  C   UNL     1      25.450  47.099  53.131  1.00  0.00     0.047 C 
HETATM   14  C   UNL     1      26.271  47.472  51.900  1.00  0.00     0.126 C 
BRANCH  10  15
HETATM   15  C   UNL     1      26.963  43.553  53.769  1.00  0.00     0.273 C 
BRANCH  15  16
HETATM   16  C   UNL     1      28.313  43.650  54.426  1.00  0.00    -0.032 A 
HETATM   17  C   UNL     1      28.514  44.521  55.513  1.00  0.00     0.025 A 
HETATM   18  C   UNL     1      29.774  44.645  56.126  1.00  0.00     0.048 A 
HETATM   19  C   UNL     1      30.842  43.884  55.633  1.00  0.00     0.016 A 
HETATM   20  C   UNL     1      30.657  43.022  54.553  1.00  0.00     0.001 A 
HETATM   21  C   UNL     1      29.402  42.906  53.953  1.00  0.00     0.009 A 
BRANCH  18  22
HETATM   22  C   UNL     1      29.993  45.589  57.287  1.00  0.00     0.417 C 
HETATM   23  F   UNL     1      28.876  46.306  57.597  1.00  0.00    -0.166 F 
HETATM   24  F   UNL     1      30.346  44.936  58.426  1.00  0.00    -0.166 F 
HETATM   25  F   UNL     1      30.972  46.499  57.042  1.00  0.00    -0.166 F 
ENDBRANCH  18  22
ENDBRANCH  15  16
ENDBRANCH  10  15
ENDBRANCH   4   7
BRANCH   1  26
HETATM   26  N   UNL     1      21.652  48.937  47.735  1.00  0.00    -0.307 N 
HETATM   27  C   UNL     1      20.326  48.850  48.133  1.00  0.00     0.325 C 
HETATM   28  N   UNL     1      19.496  49.445  47.195  1.00  0.00    -0.309 N 
HETATM   29  O   UNL     1      19.955  48.300  49.162  1.00  0.00    -0.247 OA
HETATM   30  H   UNL     1      19.944  49.998  46.479  1.00  0.00     0.170 HD
HETATM   31  H   UNL     1      21.818  49.285  46.803  1.00  0.00     0.170 HD
BRANCH  28  32
HETATM   32  C   UNL     1      18.082  49.464  47.171  1.00  0.00     0.041 A 
HETATM   33  C   UNL     1      17.302  48.685  46.308  1.00  0.00     0.066 A 
HETATM   34  C   UNL     1      15.903  48.754  46.349  1.00  0.00     0.073 A 
HETATM   35  C   UNL     1      15.282  49.624  47.244  1.00  0.00     0.073 A 
HETATM   36  C   UNL     1      16.055  50.422  48.081  1.00  0.00     0.073 A 
HETATM   37  C   UNL     1      17.445  50.333  48.065  1.00  0.00     0.066 A 
BRANCH  34  38
HETATM   38  O   UNL     1      15.040  48.031  45.570  1.00  0.00    -0.356 OA
HETATM   39  C   UNL     1      13.649  48.243  45.784  1.00  0.00     0.210 C 
ENDBRANCH  34  38
BRANCH  36  40
HETATM   40  O   UNL     1      15.446  51.245  48.989  1.00  0.00    -0.356 OA
HETATM   41  C   UNL     1      16.412  52.099  49.605  1.00  0.00     0.210 C 
ENDBRANCH  36  40
ENDBRANCH  28  32
ENDBRANCH   1  26
TORSDOF 8
ENDMDL
MODEL 4
REMARK VINA RESULT:      -9.3      1.780      2.520
REMARK  8 active torsions:
REMARK  status: ('A' for Active; 'I' for Inactive)
REMARK    1  A    between atoms: O_2  and  C_3 
REMARK    2  A    between atoms: C_5  and  O_6 
REMARK    3  A    between atoms: C_9  and  N_10 
REMARK       I    between atoms: N_10  and  C_11 
REMARK       I    between atoms: C_11  and  N_12 
REMARK    4  A    between atoms: N_12  and  C_13 
REMARK    5  A    between atoms: C_16  and  N_17 
REMARK    6  A    between atoms: N_20  and  C_22 
REMARK    7  A    between atoms: C_22  and  C_23 
REMARK    8  A    between atoms: C_25  and  C_26 
ROOT
HETATM    1  C   UNL     1      22.385  46.801  48.275  1.00  0.00     0.054 A 
HETATM    2  C   UNL     1      23.356  47.387  49.075  1.00  0.00     0.148 A 
HETATM    3  N   UNL     1      24.191  46.695  49.904  1.00  0.00    -0.241 NA
HETATM    4  C   UNL     1      24.075  45.353  49.972  1.00  0.00     0.125 A 
HETATM    5  C   UNL     1      23.160  44.691  49.157  1.00  0.00     0.052 A 
HETATM    6  C   UNL     1      22.317  45.414  48.306  1.00  0.00     0.035 A 
ENDROOT
BRANCH   4   7
HETATM    7  N   UNL     1      24.823  44.677  50.932  1.00  0.00    -0.364 N 
HETATM    8  C   UNL     1      26.155  45.229  51.202  1.00  0.00     0.152 C 
HETATM    9  C   UNL     1      27.311  44.330  50.727  1.00  0.00     0.255 C 
HETATM   10  N   UNL     1      27.355  43.066  51.589  1.00  0.00    -0.066 N 
HETATM   11  H   UNL     1      26.870  43.321  52.457  1.00  0.00     0.280 HD
HETATM   12  C   UNL     1      26.578  41.913  51.017  1.00  0.00     0.237 C 
HETATM   13  C   UNL     1      25.180  42.279  50.523  1.00  0.00     0.047 C 
HETATM   14  C   UNL     1      24.450  43.330  51.353  1.00  0.00     0.126 C 
BRANCH  10  15
HETATM   15  C   UNL     1      28.739  42.697  52.082  1.00  0.00     0.273 C 
BRANCH  15  16
HETATM   16  C   UNL     1      29.195  43.329  53.370  1.00  0.00    -0.032 A 
HETATM   17  C   UNL     1      28.531  44.459  53.882  1.00  0.00     0.025 A 
HETATM   18  C   UNL     1      28.956  45.079  55.070  1.00  0.00     0.048 A 
HETATM   19  C   UNL     1      30.064  44.554  55.746  1.00  0.00     0.016 A 
HETATM   20  C   UNL     1      30.735  43.439  55.246  1.00  0.00     0.001 A 
HETATM   21  C   UNL     1      30.304  42.831  54.066  1.00  0.00     0.009 A 
BRANCH  18  22
HETATM   22  C   UNL     1      28.249  46.300  55.615  1.00  0.00     0.417 C 
HETATM   23  F   UNL     1      28.755  47.464  55.118  1.00  0.00    -0.166 F 
HETATM   24  F   UNL     1      26.924  46.310  55.312  1.00  0.00    -0.166 F 
HETATM   25  F   UNL     1      28.339  46.396  56.968  1.00  0.00    -0.166 F 
ENDBRANCH  18  22
ENDBRANCH  15  16
ENDBRANCH  10  15
ENDBRANCH   4   7
BRANCH   1  26
HETATM   26  N   UNL     1      21.453  47.489  47.467  1.00  0.00    -0.307 N 
HETATM   27  C   UNL     1      20.228  48.002  47.870  1.00  0.00     0.325 C 
HETATM   28  N   UNL     1      19.559  48.564  46.793  1.00  0.00    -0.309 N 
HETATM   29  O   UNL     1      19.803  47.939  49.016  1.00  0.00    -0.247 OA
HETATM   30  H   UNL     1      20.091  48.692  45.945  1.00  0.00     0.170 HD
HETATM   31  H   UNL     1      21.628  47.475  46.474  1.00  0.00     0.170 HD
BRANCH  28  32
HETATM   32  C   UNL     1      18.244  49.084  46.762  1.00  0.00     0.041 A 
HETATM   33  C   UNL     1      17.088  48.302  46.878  1.00  0.00     0.066 A 
HETATM   34  C   UNL     1      15.818  48.892  46.845  1.00  0.00     0.073 A 
HETATM   35  C   UNL     1      15.703  50.271  46.671  1.00  0.00     0.073 A 
HETATM   36  C   UNL     1      16.848  51.046  46.524  1.00  0.00     0.073 A 
HETATM   37  C   UNL     1      18.113  50.467  46.588  1.00  0.00     0.066 A 
BRANCH  34  38
HETATM   38  O   UNL     1      14.623  48.234  46.965  1.00  0.00    -0.356 OA
HETATM   39  C   UNL     1      13.759  48.259  45.835  1.00  0.00     0.210 C 
ENDBRANCH  34  38
BRANCH  36  40
HETATM   40  O   UNL     1      16.738  52.405  46.396  1.00  0.00    -0.356 OA
HETATM   41  C   UNL     1      15.433  52.750  45.926  1.00  0.00     0.210 C 
ENDBRANCH  36  40
ENDBRANCH  28  32
ENDBRANCH   1  26
TORSDOF 8
ENDMDL
MODEL 5
REMARK VINA RESULT:      -9.1      6.090     13.338
REMARK  8 active torsions:
REMARK  status: ('A' for Active; 'I' for Inactive)
REMARK    1  A    between atoms: O_2  and  C_3 
REMARK    2  A    between atoms: C_5  and  O_6 
REMARK    3  A    between atoms: C_9  and  N_10 
REMARK       I    between atoms: N_10  and  C_11 
REMARK       I    between atoms: C_11  and  N_12 
REMARK    4  A    between atoms: N_12  and  C_13 
REMARK    5  A    between atoms: C_16  and  N_17 
REMARK    6  A    between atoms: N_20  and  C_22 
REMARK    7  A    between atoms: C_22  and  C_23 
REMARK    8  A    between atoms: C_25  and  C_26 
ROOT
HETATM    1  C   UNL     1      24.307  46.466  49.360  1.00  0.00     0.054 A 
HETATM    2  C   UNL     1      23.113  45.991  48.837  1.00  0.00     0.148 A 
HETATM    3  N   UNL     1      22.045  46.777  48.516  1.00  0.00    -0.241 NA
HETATM    4  C   UNL     1      22.132  48.107  48.722  1.00  0.00     0.125 A 
HETATM    5  C   UNL     1      23.319  48.663  49.192  1.00  0.00     0.052 A 
HETATM    6  C   UNL     1      24.409  47.844  49.508  1.00  0.00     0.035 A 
ENDROOT
BRANCH   4   7
HETATM    7  N   UNL     1      20.986  48.876  48.538  1.00  0.00    -0.364 N 
HETATM    8  C   UNL     1      21.180  50.329  48.609  1.00  0.00     0.152 C 
HETATM    9  C   UNL     1      20.536  50.985  49.843  1.00  0.00     0.255 C 
HETATM   10  N   UNL     1      19.012  50.916  49.714  1.00  0.00    -0.066 N 
HETATM   11  H   UNL     1      18.837  50.801  48.710  1.00  0.00     0.280 HD
HETATM   12  C   UNL     1      18.401  49.708  50.369  1.00  0.00     0.237 C 
HETATM   13  C   UNL     1      19.112  48.394  50.054  1.00  0.00     0.047 C 
HETATM   14  C   UNL     1      19.661  48.273  48.635  1.00  0.00     0.126 C 
BRANCH  10  15
HETATM   15  C   UNL     1      18.301  52.216  50.026  1.00  0.00     0.273 C 
BRANCH  15  16
HETATM   16  C   UNL     1      17.075  52.535  49.213  1.00  0.00    -0.032 A 
HETATM   17  C   UNL     1      16.020  53.276  49.778  1.00  0.00     0.025 A 
HETATM   18  C   UNL     1      14.856  53.563  49.044  1.00  0.00     0.048 A 
HETATM   19  C   UNL     1      14.755  53.096  47.727  1.00  0.00     0.016 A 
HETATM   20  C   UNL     1      15.792  52.357  47.158  1.00  0.00     0.001 A 
HETATM   21  C   UNL     1      16.943  52.078  47.896  1.00  0.00     0.009 A 
BRANCH  18  22
HETATM   22  C   UNL     1      13.716  54.349  49.654  1.00  0.00     0.417 C 
HETATM   23  F   UNL     1      12.831  53.556  50.321  1.00  0.00    -0.166 F 
HETATM   24  F   UNL     1      14.147  55.270  50.556  1.00  0.00    -0.166 F 
HETATM   25  F   UNL     1      12.992  55.025  48.725  1.00  0.00    -0.166 F 
ENDBRANCH  18  22
ENDBRANCH  15  16
ENDBRANCH  10  15
ENDBRANCH   4   7
BRANCH   1  26
HETATM   26  N   UNL     1      25.401  45.677  49.776  1.00  0.00    -0.307 N 
HETATM   27  C   UNL     1      25.659  45.232  51.065  1.00  0.00     0.325 C 
HETATM   28  N   UNL     1      26.852  44.527  51.108  1.00  0.00    -0.309 N 
HETATM   29  O   UNL     1      24.933  45.460  52.025  1.00  0.00    -0.247 OA
HETATM   30  H   UNL     1      27.263  44.278  50.221  1.00  0.00     0.170 HD
HETATM   31  H   UNL     1      26.142  45.549  49.103  1.00  0.00     0.170 HD
BRANCH  28  32
HETATM   32  C   UNL     1      27.520  44.016  52.245  1.00  0.00     0.041 A 
HETATM   33  C   UNL     1      27.873  44.787  53.360  1.00  0.00     0.066 A 
HETATM   34  C   UNL     1      28.529  44.205  54.453  1.00  0.00     0.073 A 
HETATM   35  C   UNL     1      28.854  42.850  54.421  1.00  0.00     0.073 A 
HETATM   36  C   UNL     1      28.532  42.089  53.302  1.00  0.00     0.073 A 
HETATM   37  C   UNL     1      27.852  42.656  52.227  1.00  0.00     0.066 A 
BRANCH  34  38
HETATM   38  O   UNL     1      28.906  44.852  55.600  1.00  0.00    -0.356 OA
HETATM   39  C   UNL     1      29.093  46.260  55.512  1.00  0.00     0.210 C 
ENDBRANCH  34  38
BRANCH  36  40
HETATM   40  O   UNL     1      28.813  40.749  53.287  1.00  0.00    -0.356 OA
HETATM   41  C   UNL     1      28.897  40.279  51.940  1.00  0.00     0.210 C 
ENDBRANCH  36  40
ENDBRANCH  28  32
ENDBRANCH   1  26
TORSDOF 8
ENDMDL
MODEL 6
REMARK VINA RESULT:      -8.8      5.617     13.345
REMARK  8 active torsions:
REMARK  status: ('A' for Active; 'I' for Inactive)
REMARK    1  A    between atoms: O_2  and  C_3 
REMARK    2  A    between atoms: C_5  and  O_6 
REMARK    3  A    between atoms: C_9  and  N_10 
REMARK       I    between atoms: N_10  and  C_11 
REMARK       I    between atoms: C_11  and  N_12 
REMARK    4  A    between atoms: N_12  and  C_13 
REMARK    5  A    between atoms: C_16  and  N_17 
REMARK    6  A    between atoms: N_20  and  C_22 
REMARK    7  A    between atoms: C_22  and  C_23 
REMARK    8  A    between atoms: C_25  and  C_26 
ROOT
HETATM    1  C   UNL     1      23.611  47.145  49.233  1.00  0.00     0.054 A 
HETATM    2  C   UNL     1      22.431  46.609  48.738  1.00  0.00     0.148 A 
HETATM    3  N   UNL     1      21.260  47.300  48.621  1.00  0.00    -0.241 NA
HETATM    4  C   UNL     1      21.224  48.589  49.016  1.00  0.00     0.125 A 
HETATM    5  C   UNL     1      22.384  49.211  49.472  1.00  0.00     0.052 A 
HETATM    6  C   UNL     1      23.579  48.491  49.578  1.00  0.00     0.035 A 
ENDROOT
BRANCH   4   7
HETATM    7  N   UNL     1      19.991  49.235  49.038  1.00  0.00    -0.364 N 
HETATM    8  C   UNL     1      18.921  48.585  48.272  1.00  0.00     0.152 C 
HETATM    9  C   UNL     1      18.485  49.367  47.020  1.00  0.00     0.255 C 
HETATM   10  N   UNL     1      17.775  50.653  47.450  1.00  0.00    -0.066 N 
HETATM   11  H   UNL     1      17.455  50.471  48.408  1.00  0.00     0.280 HD
HETATM   12  C   UNL     1      18.686  51.845  47.551  1.00  0.00     0.237 C 
HETATM   13  C   UNL     1      19.992  51.578  48.295  1.00  0.00     0.047 C 
HETATM   14  C   UNL     1      19.885  50.622  49.479  1.00  0.00     0.126 C 
BRANCH  10  15
HETATM   15  C   UNL     1      16.479  50.924  46.715  1.00  0.00     0.273 C 
BRANCH  15  16
HETATM   16  C   UNL     1      15.656  52.090  47.191  1.00  0.00    -0.032 A 
HETATM   17  C   UNL     1      15.431  52.288  48.566  1.00  0.00     0.025 A 
HETATM   18  C   UNL     1      14.645  53.357  49.031  1.00  0.00     0.048 A 
HETATM   19  C   UNL     1      14.078  54.233  48.098  1.00  0.00     0.016 A 
HETATM   20  C   UNL     1      14.288  54.045  46.732  1.00  0.00     0.001 A 
HETATM   21  C   UNL     1      15.071  52.981  46.282  1.00  0.00     0.009 A 
BRANCH  18  22
HETATM   22  C   UNL     1      14.394  53.564  50.509  1.00  0.00     0.417 C 
HETATM   23  F   UNL     1      13.471  54.537  50.752  1.00  0.00    -0.166 F 
HETATM   24  F   UNL     1      13.923  52.443  51.115  1.00  0.00    -0.166 F 
HETATM   25  F   UNL     1      15.516  53.929  51.183  1.00  0.00    -0.166 F 
ENDBRANCH  18  22
ENDBRANCH  15  16
ENDBRANCH  10  15
ENDBRANCH   4   7
BRANCH   1  26
HETATM   26  N   UNL     1      24.817  46.441  49.442  1.00  0.00    -0.307 N 
HETATM   27  C   UNL     1      25.072  45.513  50.442  1.00  0.00     0.325 C 
HETATM   28  N   UNL     1      26.382  45.066  50.370  1.00  0.00    -0.309 N 
HETATM   29  O   UNL     1      24.247  45.164  51.278  1.00  0.00    -0.247 OA
HETATM   30  H   UNL     1      26.900  45.313  49.539  1.00  0.00     0.170 HD
HETATM   31  H   UNL     1      25.614  46.750  48.906  1.00  0.00     0.170 HD
BRANCH  28  32
HETATM   32  C   UNL     1      27.062  44.214  51.271  1.00  0.00     0.041 A 
HETATM   33  C   UNL     1      27.506  44.608  52.540  1.00  0.00     0.066 A 
HETATM   34  C   UNL     1      28.167  43.702  53.380  1.00  0.00     0.073 A 
HETATM   35  C   UNL     1      28.407  42.401  52.938  1.00  0.00     0.073 A 
HETATM   36  C   UNL     1      27.996  42.017  51.666  1.00  0.00     0.073 A 
HETATM   37  C   UNL     1      27.310  42.905  50.841  1.00  0.00     0.066 A 
BRANCH  34  38
HETATM   38  O   UNL     1      28.628  43.966  54.641  1.00  0.00    -0.356 OA
HETATM   39  C   UNL     1      28.292  45.233  55.197  1.00  0.00     0.210 C 
ENDBRANCH  34  38
BRANCH  36  40
HETATM   40  O   UNL     1      28.193  40.729  51.248  1.00  0.00    -0.356 OA
HETATM   41  C   UNL     1      27.127  40.323  50.387  1.00  0.00     0.210 C 
ENDBRANCH  36  40
ENDBRANCH  28  32
ENDBRANCH   1  26
TORSDOF 8
ENDMDL
MODEL 7
REMARK VINA RESULT:      -8.7      6.491     13.861
REMARK  8 active torsions:
REMARK  status: ('A' for Active; 'I' for Inactive)
REMARK    1  A    between atoms: O_2  and  C_3 
REMARK    2  A    between atoms: C_5  and  O_6 
REMARK    3  A    between atoms: C_9  and  N_10 
REMARK       I    between atoms: N_10  and  C_11 
REMARK       I    between atoms: C_11  and  N_12 
REMARK    4  A    between atoms: N_12  and  C_13 
REMARK    5  A    between atoms: C_16  and  N_17 
REMARK    6  A    between atoms: N_20  and  C_22 
REMARK    7  A    between atoms: C_22  and  C_23 
REMARK    8  A    between atoms: C_25  and  C_26 
ROOT
HETATM    1  C   UNL     1      23.483  47.029  48.944  1.00  0.00     0.054 A 
HETATM    2  C   UNL     1      22.218  46.640  48.527  1.00  0.00     0.148 A 
HETATM    3  N   UNL     1      21.103  47.422  48.615  1.00  0.00    -0.241 NA
HETATM    4  C   UNL     1      21.215  48.656  49.148  1.00  0.00     0.125 A 
HETATM    5  C   UNL     1      22.464  49.136  49.538  1.00  0.00     0.052 A 
HETATM    6  C   UNL     1      23.599  48.325  49.433  1.00  0.00     0.035 A 
ENDROOT
BRANCH   4   7
HETATM    7  N   UNL     1      20.049  49.383  49.375  1.00  0.00    -0.364 N 
HETATM    8  C   UNL     1      18.813  48.768  48.879  1.00  0.00     0.152 C 
HETATM    9  C   UNL     1      18.176  49.514  47.693  1.00  0.00     0.255 C 
HETATM   10  N   UNL     1      17.640  50.864  48.175  1.00  0.00    -0.066 N 
HETATM   11  H   UNL     1      17.510  50.751  49.187  1.00  0.00     0.280 HD
HETATM   12  C   UNL     1      18.615  51.997  48.019  1.00  0.00     0.237 C 
HETATM   13  C   UNL     1      20.029  51.681  48.503  1.00  0.00     0.047 C 
HETATM   14  C   UNL     1      20.111  50.794  49.741  1.00  0.00     0.126 C 
BRANCH  10  15
HETATM   15  C   UNL     1      16.238  51.183  47.698  1.00  0.00     0.273 C 
BRANCH  15  16
HETATM   16  C   UNL     1      15.483  52.241  48.457  1.00  0.00    -0.032 A 
HETATM   17  C   UNL     1      14.925  53.341  47.780  1.00  0.00     0.025 A 
HETATM   18  C   UNL     1      14.237  54.353  48.473  1.00  0.00     0.048 A 
HETATM   19  C   UNL     1      14.116  54.254  49.865  1.00  0.00     0.016 A 
HETATM   20  C   UNL     1      14.669  53.172  50.548  1.00  0.00     0.001 A 
HETATM   21  C   UNL     1      15.348  52.173  49.850  1.00  0.00     0.009 A 
BRANCH  18  22
HETATM   22  C   UNL     1      13.647  55.541  47.747  1.00  0.00     0.417 C 
HETATM   23  F   UNL     1      14.001  56.730  48.313  1.00  0.00    -0.166 F 
HETATM   24  F   UNL     1      14.051  55.609  46.451  1.00  0.00    -0.166 F 
HETATM   25  F   UNL     1      12.289  55.520  47.729  1.00  0.00    -0.166 F 
ENDBRANCH  18  22
ENDBRANCH  15  16
ENDBRANCH  10  15
ENDBRANCH   4   7
BRANCH   1  26
HETATM   26  N   UNL     1      24.640  46.220  48.942  1.00  0.00    -0.307 N 
HETATM   27  C   UNL     1      24.968  45.241  49.868  1.00  0.00     0.325 C 
HETATM   28  N   UNL     1      26.207  44.690  49.577  1.00  0.00    -0.309 N 
HETATM   29  O   UNL     1      24.260  44.934  50.819  1.00  0.00    -0.247 OA
HETATM   30  H   UNL     1      26.605  44.920  48.679  1.00  0.00     0.170 HD
HETATM   31  H   UNL     1      25.366  46.480  48.290  1.00  0.00     0.170 HD
BRANCH  28  32
HETATM   32  C   UNL     1      26.944  43.754  50.339  1.00  0.00     0.041 A 
HETATM   33  C   UNL     1      26.961  42.377  50.087  1.00  0.00     0.066 A 
HETATM   34  C   UNL     1      27.724  41.513  50.883  1.00  0.00     0.073 A 
HETATM   35  C   UNL     1      28.455  42.027  51.954  1.00  0.00     0.073 A 
HETATM   36  C   UNL     1      28.415  43.390  52.226  1.00  0.00     0.073 A 
HETATM   37  C   UNL     1      27.683  44.256  51.417  1.00  0.00     0.066 A 
BRANCH  34  38
HETATM   38  O   UNL     1      27.831  40.157  50.722  1.00  0.00    -0.356 OA
HETATM   39  C   UNL     1      28.301  39.694  49.461  1.00  0.00     0.210 C 
ENDBRANCH  34  38
BRANCH  36  40
HETATM   40  O   UNL     1      29.166  43.901  53.250  1.00  0.00    -0.356 OA
HETATM   41  C   UNL     1      28.861  43.223  54.470  1.00  0.00     0.210 C 
ENDBRANCH  36  40
ENDBRANCH  28  32
ENDBRANCH   1  26
TORSDOF 8
ENDMDL
MODEL 8
REMARK VINA RESULT:      -8.7      6.198     13.610
REMARK  8 active torsions:
REMARK  status: ('A' for Active; 'I' for Inactive)
REMARK    1  A    between atoms: O_2  and  C_3 
REMARK    2  A    between atoms: C_5  and  O_6 
REMARK    3  A    between atoms: C_9  and  N_10 
REMARK       I    between atoms: N_10  and  C_11 
REMARK       I    between atoms: C_11  and  N_12 
REMARK    4  A    between atoms: N_12  and  C_13 
REMARK    5  A    between atoms: C_16  and  N_17 
REMARK    6  A    between atoms: N_20  and  C_22 
REMARK    7  A    between atoms: C_22  and  C_23 
REMARK    8  A    between atoms: C_25  and  C_26 
ROOT
HETATM    1  C   UNL     1      24.008  45.828  48.919  1.00  0.00     0.054 A 
HETATM    2  C   UNL     1      24.011  47.159  49.310  1.00  0.00     0.148 A 
HETATM    3  N   UNL     1      22.922  47.981  49.257  1.00  0.00    -0.241 NA
HETATM    4  C   UNL     1      21.758  47.487  48.787  1.00  0.00     0.125 A 
HETATM    5  C   UNL     1      21.665  46.144  48.427  1.00  0.00     0.052 A 
HETATM    6  C   UNL     1      22.788  45.313  48.496  1.00  0.00     0.035 A 
ENDROOT
BRANCH   4   7
HETATM    7  N   UNL     1      20.701  48.372  48.592  1.00  0.00    -0.364 N 
HETATM    8  C   UNL     1      21.062  49.794  48.555  1.00  0.00     0.152 C 
HETATM    9  C   UNL     1      20.552  50.599  49.764  1.00  0.00     0.255 C 
HETATM   10  N   UNL     1      19.026  50.699  49.696  1.00  0.00    -0.066 N 
HETATM   11  H   UNL     1      18.794  50.541  48.708  1.00  0.00     0.280 HD
HETATM   12  C   UNL     1      18.311  49.615  50.454  1.00  0.00     0.237 C 
HETATM   13  C   UNL     1      18.853  48.210  50.205  1.00  0.00     0.047 C 
HETATM   14  C   UNL     1      19.321  47.935  48.780  1.00  0.00     0.126 C 
BRANCH  10  15
HETATM   15  C   UNL     1      18.482  52.091  49.943  1.00  0.00     0.273 C 
BRANCH  15  16
HETATM   16  C   UNL     1      17.224  52.472  49.209  1.00  0.00    -0.032 A 
HETATM   17  C   UNL     1      16.211  53.197  49.863  1.00  0.00     0.025 A 
HETATM   18  C   UNL     1      15.018  53.542  49.203  1.00  0.00     0.048 A 
HETATM   19  C   UNL     1      14.845  53.146  47.871  1.00  0.00     0.016 A 
HETATM   20  C   UNL     1      15.839  52.422  47.214  1.00  0.00     0.001 A 
HETATM   21  C   UNL     1      17.019  52.087  47.878  1.00  0.00     0.009 A 
BRANCH  18  22
HETATM   22  C   UNL     1      13.924  54.312  49.910  1.00  0.00     0.417 C 
HETATM   23  F   UNL     1      12.986  53.495  50.468  1.00  0.00    -0.166 F 
HETATM   24  F   UNL     1      14.403  55.079  50.924  1.00  0.00    -0.166 F 
HETATM   25  F   UNL     1      13.250  55.146  49.075  1.00  0.00    -0.166 F 
ENDBRANCH  18  22
ENDBRANCH  15  16
ENDBRANCH  10  15
ENDBRANCH   4   7
BRANCH   1  26
HETATM   26  N   UNL     1      25.131  44.972  48.886  1.00  0.00    -0.307 N 
HETATM   27  C   UNL     1      25.412  43.941  49.771  1.00  0.00     0.325 C 
HETATM   28  N   UNL     1      26.628  43.352  49.460  1.00  0.00    -0.309 N 
HETATM   29  O   UNL     1      24.687  43.624  50.705  1.00  0.00    -0.247 OA
HETATM   30  H   UNL     1      27.041  43.603  48.574  1.00  0.00     0.170 HD
HETATM   31  H   UNL     1      25.869  45.229  48.249  1.00  0.00     0.170 HD
BRANCH  28  32
HETATM   32  C   UNL     1      27.322  42.354  50.184  1.00  0.00     0.041 A 
HETATM   33  C   UNL     1      27.549  41.056  49.709  1.00  0.00     0.066 A 
HETATM   34  C   UNL     1      28.253  40.124  50.483  1.00  0.00     0.073 A 
HETATM   35  C   UNL     1      28.711  40.485  51.750  1.00  0.00     0.073 A 
HETATM   36  C   UNL     1      28.459  41.763  52.237  1.00  0.00     0.073 A 
HETATM   37  C   UNL     1      27.788  42.703  51.457  1.00  0.00     0.066 A 
BRANCH  34  38
HETATM   38  O   UNL     1      28.549  38.838  50.119  1.00  0.00    -0.356 OA
HETATM   39  C   UNL     1      29.601  38.194  50.829  1.00  0.00     0.210 C 
ENDBRANCH  34  38
BRANCH  36  40
HETATM   40  O   UNL     1      28.946  42.133  53.462  1.00  0.00    -0.356 OA
HETATM   41  C   UNL     1      30.209  42.784  53.313  1.00  0.00     0.210 C 
ENDBRANCH  36  40
ENDBRANCH  28  32
ENDBRANCH   1  26
TORSDOF 8
ENDMDL
MODEL 9
REMARK VINA RESULT:      -8.6      2.852      5.130
REMARK  8 active torsions:
REMARK  status: ('A' for Active; 'I' for Inactive)
REMARK    1  A    between atoms: O_2  and  C_3 
REMARK    2  A    between atoms: C_5  and  O_6 
REMARK    3  A    between atoms: C_9  and  N_10 
REMARK       I    between atoms: N_10  and  C_11 
REMARK       I    between atoms: C_11  and  N_12 
REMARK    4  A    between atoms: N_12  and  C_13 
REMARK    5  A    between atoms: C_16  and  N_17 
REMARK    6  A    between atoms: N_20  and  C_22 
REMARK    7  A    between atoms: C_22  and  C_23 
REMARK    8  A    between atoms: C_25  and  C_26 
ROOT
HETATM    1  C   UNL     1      18.552  50.429  49.076  1.00  0.00     0.054 A 
HETATM    2  C   UNL     1      19.129  49.363  49.751  1.00  0.00     0.148 A 
HETATM    3  N   UNL     1      20.395  48.905  49.532  1.00  0.00    -0.241 NA
HETATM    4  C   UNL     1      21.151  49.510  48.593  1.00  0.00     0.125 A 
HETATM    5  C   UNL     1      20.660  50.623  47.913  1.00  0.00     0.052 A 
HETATM    6  C   UNL     1      19.362  51.085  48.156  1.00  0.00     0.035 A 
ENDROOT
BRANCH   4   7
HETATM    7  N   UNL     1      22.379  48.940  48.270  1.00  0.00    -0.364 N 
HETATM    8  C   UNL     1      22.739  47.737  49.030  1.00  0.00     0.152 C 
HETATM    9  C   UNL     1      23.917  47.942  50.000  1.00  0.00     0.255 C 
HETATM   10  N   UNL     1      25.201  48.156  49.196  1.00  0.00    -0.066 N 
HETATM   11  H   UNL     1      25.010  47.743  48.277  1.00  0.00     0.280 HD
HETATM   12  C   UNL     1      25.518  49.601  48.930  1.00  0.00     0.237 C 
HETATM   13  C   UNL     1      24.331  50.424  48.435  1.00  0.00     0.047 C 
HETATM   14  C   UNL     1      23.371  49.690  47.505  1.00  0.00     0.126 C 
BRANCH  10  15
HETATM   15  C   UNL     1      26.383  47.342  49.684  1.00  0.00     0.273 C 
BRANCH  15  16
HETATM   16  C   UNL     1      26.075  46.112  50.495  1.00  0.00    -0.032 A 
HETATM   17  C   UNL     1      26.046  46.176  51.901  1.00  0.00     0.025 A 
HETATM   18  C   UNL     1      25.784  45.034  52.678  1.00  0.00     0.048 A 
HETATM   19  C   UNL     1      25.553  43.815  52.030  1.00  0.00     0.016 A 
HETATM   20  C   UNL     1      25.585  43.737  50.638  1.00  0.00     0.001 A 
HETATM   21  C   UNL     1      25.844  44.877  49.876  1.00  0.00     0.009 A 
BRANCH  18  22
HETATM   22  C   UNL     1      25.765  45.100  54.190  1.00  0.00     0.417 C 
HETATM   23  F   UNL     1      26.854  44.505  54.754  1.00  0.00    -0.166 F 
HETATM   24  F   UNL     1      25.755  46.378  54.652  1.00  0.00    -0.166 F 
HETATM   25  F   UNL     1      24.678  44.485  54.725  1.00  0.00    -0.166 F 
ENDBRANCH  18  22
ENDBRANCH  15  16
ENDBRANCH  10  15
ENDBRANCH   4   7
BRANCH   1  26
HETATM   26  N   UNL     1      17.222  50.879  49.220  1.00  0.00    -0.307 N 
HETATM   27  C   UNL     1      16.809  52.184  49.453  1.00  0.00     0.325 C 
HETATM   28  N   UNL     1      15.431  52.241  49.592  1.00  0.00    -0.309 N 
HETATM   29  O   UNL     1      17.573  53.137  49.543  1.00  0.00    -0.247 OA
HETATM   30  H   UNL     1      14.915  51.412  49.335  1.00  0.00     0.170 HD
HETATM   31  H   UNL     1      16.516  50.164  49.309  1.00  0.00     0.170 HD
BRANCH  28  32
HETATM   32  C   UNL     1      14.638  53.355  49.951  1.00  0.00     0.041 A 
HETATM   33  C   UNL     1      14.428  53.775  51.271  1.00  0.00     0.066 A 
HETATM   34  C   UNL     1      13.633  54.896  51.547  1.00  0.00     0.073 A 
HETATM   35  C   UNL     1      13.027  55.587  50.498  1.00  0.00     0.073 A 
HETATM   36  C   UNL     1      13.209  55.153  49.189  1.00  0.00     0.073 A 
HETATM   37  C   UNL     1      14.023  54.058  48.909  1.00  0.00     0.066 A 
BRANCH  34  38
HETATM   38  O   UNL     1      13.371  55.409  52.789  1.00  0.00    -0.356 OA
HETATM   39  C   UNL     1      12.136  56.095  52.954  1.00  0.00     0.210 C 
ENDBRANCH  34  38
BRANCH  36  40
HETATM   40  O   UNL     1      12.649  55.856  48.156  1.00  0.00    -0.356 OA
HETATM   41  C   UNL     1      13.604  56.033  47.108  1.00  0.00     0.210 C 
ENDBRANCH  36  40
ENDBRANCH  28  32
ENDBRANCH   1  26
TORSDOF 8
ENDMDL
MODEL 10
REMARK VINA RESULT:      -8.6      5.251     12.431
REMARK  8 active torsions:
REMARK  status: ('A' for Active; 'I' for Inactive)
REMARK    1  A    between atoms: O_2  and  C_3 
REMARK    2  A    between atoms: C_5  and  O_6 
REMARK    3  A    between atoms: C_9  and  N_10 
REMARK       I    between atoms: N_10  and  C_11 
REMARK       I    between atoms: C_11  and  N_12 
REMARK    4  A    between atoms: N_12  and  C_13 
REMARK    5  A    between atoms: C_16  and  N_17 
REMARK    6  A    between atoms: N_20  and  C_22 
REMARK    7  A    between atoms: C_22  and  C_23 
REMARK    8  A    between atoms: C_25  and  C_26 
ROOT
HETATM    1  C   UNL     1      23.890  44.569  49.953  1.00  0.00     0.054 A 
HETATM    2  C   UNL     1      22.655  43.961  49.777  1.00  0.00     0.148 A 
HETATM    3  N   UNL     1      21.621  44.507  49.075  1.00  0.00    -0.241 NA
HETATM    4  C   UNL     1      21.786  45.722  48.514  1.00  0.00     0.125 A 
HETATM    5  C   UNL     1      23.017  46.369  48.601  1.00  0.00     0.052 A 
HETATM    6  C   UNL     1      24.071  45.791  49.317  1.00  0.00     0.035 A 
ENDROOT
BRANCH   4   7
HETATM    7  N   UNL     1      20.678  46.334  47.934  1.00  0.00    -0.364 N 
HETATM    8  C   UNL     1      20.077  47.425  48.711  1.00  0.00     0.152 C 
HETATM    9  C   UNL     1      18.683  47.096  49.275  1.00  0.00     0.255 C 
HETATM   10  N   UNL     1      17.683  46.995  48.121  1.00  0.00    -0.066 N 
HETATM   11  H   UNL     1      18.109  47.527  47.354  1.00  0.00     0.280 HD
HETATM   12  C   UNL     1      17.504  45.599  47.592  1.00  0.00     0.237 C 
HETATM   13  C   UNL     1      18.810  44.846  47.349  1.00  0.00     0.047 C 
HETATM   14  C   UNL     1      19.966  45.696  46.831  1.00  0.00     0.126 C 
BRANCH  10  15
HETATM   15  C   UNL     1      16.385  47.739  48.356  1.00  0.00     0.273 C 
BRANCH  15  16
HETATM   16  C   UNL     1      16.370  49.206  48.020  1.00  0.00    -0.032 A 
HETATM   17  C   UNL     1      17.249  50.094  48.667  1.00  0.00     0.025 A 
HETATM   18  C   UNL     1      17.234  51.471  48.385  1.00  0.00     0.048 A 
HETATM   19  C   UNL     1      16.320  51.957  47.442  1.00  0.00     0.016 A 
HETATM   20  C   UNL     1      15.440  51.089  46.797  1.00  0.00     0.001 A 
HETATM   21  C   UNL     1      15.464  49.724  47.084  1.00  0.00     0.009 A 
BRANCH  18  22
HETATM   22  C   UNL     1      18.172  52.428  49.089  1.00  0.00     0.417 C 
HETATM   23  F   UNL     1      19.006  51.795  49.962  1.00  0.00    -0.166 F 
HETATM   24  F   UNL     1      18.977  53.096  48.221  1.00  0.00    -0.166 F 
HETATM   25  F   UNL     1      17.511  53.370  49.811  1.00  0.00    -0.166 F 
ENDBRANCH  18  22
ENDBRANCH  15  16
ENDBRANCH  10  15
ENDBRANCH   4   7
BRANCH   1  26
HETATM   26  N   UNL     1      24.954  44.071  50.737  1.00  0.00    -0.307 N 
HETATM   27  C   UNL     1      25.516  44.678  51.852  1.00  0.00     0.325 C 
HETATM   28  N   UNL     1      26.576  43.926  52.333  1.00  0.00    -0.309 N 
HETATM   29  O   UNL     1      25.130  45.743  52.318  1.00  0.00    -0.247 OA
HETATM   30  H   UNL     1      26.681  42.996  51.954  1.00  0.00     0.170 HD
HETATM   31  H   UNL     1      25.448  43.274  50.366  1.00  0.00     0.170 HD
BRANCH  28  32
HETATM   32  C   UNL     1      27.476  44.256  53.373  1.00  0.00     0.041 A 
HETATM   33  C   UNL     1      28.569  43.464  53.745  1.00  0.00     0.066 A 
HETATM   34  C   UNL     1      29.422  43.863  54.783  1.00  0.00     0.073 A 
HETATM   35  C   UNL     1      29.166  45.050  55.468  1.00  0.00     0.073 A 
HETATM   36  C   UNL     1      28.063  45.823  55.121  1.00  0.00     0.073 A 
HETATM   37  C   UNL     1      27.231  45.446  54.069  1.00  0.00     0.066 A 
BRANCH  34  38
HETATM   38  O   UNL     1      30.526  43.183  55.221  1.00  0.00    -0.356 OA
HETATM   39  C   UNL     1      31.224  43.737  56.331  1.00  0.00     0.210 C 
ENDBRANCH  34  38
BRANCH  36  40
HETATM   40  O   UNL     1      27.835  47.010  55.764  1.00  0.00    -0.356 OA
HETATM   41  C   UNL     1      26.737  47.695  55.158  1.00  0.00     0.210 C 
ENDBRANCH  36  40
ENDBRANCH  28  32
ENDBRANCH   1  26
TORSDOF 8
ENDMDL
