MODEL 1
REMARK VINA RESULT:      -9.9      0.000      0.000
REMARK  11 active torsions:
REMARK  status: ('A' for Active; 'I' for Inactive)
REMARK    1  A    between atoms: C_2  and  N_3 
REMARK    2  A    between atoms: N_3  and  C_5 
REMARK    3  A    between atoms: N_3  and  C_12 
REMARK    4  A    between atoms: C_5  and  C_6 
REMARK    5  A    between atoms: C_12  and  C_13 
REMARK    6  A    between atoms: C_13  and  N_14 
REMARK       I    between atoms: N_14  and  C_15 
REMARK    7  A    between atoms: C_15  and  C_16 
REMARK    8  A    between atoms: C_24  and  N_25 
REMARK    9  A    between atoms: N_25  and  C_26 
REMARK   10  A    between atoms: C_27  and  O_28 
REMARK   11  A    between atoms: C_31  and  O_32 
ROOT
HETATM    1  C   UNL     1      24.538  46.873  49.677  1.00  0.00     0.048 A 
HETATM    2  C   UNL     1      25.474  47.875  49.376  1.00  0.00     0.009 A 
HETATM    3  C   UNL     1      24.963  48.998  48.701  1.00  0.00     0.070 A 
HETATM    4  C   UNL     1      25.835  50.021  48.358  1.00  0.00     0.032 A 
HETATM    5  C   UNL     1      27.198  49.962  48.661  1.00  0.00     0.002 A 
HETATM    6  C   UNL     1      27.709  48.859  49.330  1.00  0.00     0.001 A 
HETATM    7  C   UNL     1      26.855  47.819  49.691  1.00  0.00     0.015 A 
HETATM    8  N   UNL     1      23.665  49.121  48.375  1.00  0.00    -0.231 NA
HETATM    9  C   UNL     1      22.791  48.140  48.670  1.00  0.00     0.129 A 
HETATM   10  C   UNL     1      23.198  46.990  49.317  1.00  0.00     0.068 A 
ENDROOT
BRANCH   1  11
HETATM   11  C   UNL     1      24.904  45.674  50.446  1.00  0.00     0.252 C 
HETATM   12  N   UNL     1      24.609  45.716  51.784  1.00  0.00    -0.355 N 
HETATM   13  H   UNL     1      24.165  46.566  52.125  1.00  0.00     0.162 HD
HETATM   14  O   UNL     1      25.480  44.744  49.894  1.00  0.00    -0.268 OA
BRANCH  12  15
HETATM   15  C   UNL     1      25.127  44.807  52.803  1.00  0.00     0.150 C 
BRANCH  15  16
HETATM   16  C   UNL     1      26.028  45.387  53.918  1.00  0.00     0.255 C 
BRANCH  16  17
HETATM   17  N   UNL     1      27.320  44.622  54.174  1.00  0.00    -0.062 N 
HETATM   18  H   UNL     1      27.161  44.202  55.114  1.00  0.00     0.280 HD
BRANCH  17  19
HETATM   19  C   UNL     1      27.581  43.424  53.273  1.00  0.00     0.180 C 
HETATM   20  C   UNL     1      27.810  42.158  54.100  1.00  0.00     0.039 C 
HETATM   21  C   UNL     1      28.729  43.687  52.308  1.00  0.00     0.039 C 
ENDBRANCH  17  19
BRANCH  17  22
HETATM   22  C   UNL     1      28.502  45.554  54.358  1.00  0.00     0.273 C 
BRANCH  22  23
HETATM   23  C   UNL     1      29.289  45.315  55.620  1.00  0.00    -0.033 A 
HETATM   24  C   UNL     1      28.985  46.022  56.794  1.00  0.00     0.009 A 
HETATM   25  C   UNL     1      29.718  45.803  57.961  1.00  0.00     0.001 A 
HETATM   26  C   UNL     1      30.759  44.877  57.969  1.00  0.00     0.000 A 
HETATM   27  C   UNL     1      31.067  44.167  56.811  1.00  0.00     0.001 A 
HETATM   28  C   UNL     1      30.337  44.381  55.642  1.00  0.00     0.009 A 
ENDBRANCH  22  23
ENDBRANCH  17  22
ENDBRANCH  16  17
ENDBRANCH  15  16
ENDBRANCH  12  15
ENDBRANCH   1  11
BRANCH   9  29
HETATM   29  N   UNL     1      21.428  48.258  48.343  1.00  0.00    -0.339 N 
HETATM   30  H   UNL     1      21.228  47.900  47.413  1.00  0.00     0.167 HD
BRANCH  29  31
HETATM   31  C   UNL     1      20.565  49.338  48.636  1.00  0.00     0.067 A 
HETATM   32  C   UNL     1      19.363  49.099  49.322  1.00  0.00     0.097 A 
HETATM   33  C   UNL     1      18.539  50.143  49.752  1.00  0.00     0.075 A 
HETATM   34  C   UNL     1      18.890  51.458  49.455  1.00  0.00     0.070 A 
HETATM   35  C   UNL     1      20.059  51.707  48.730  1.00  0.00     0.039 A 
HETATM   36  C   UNL     1      20.893  50.658  48.328  1.00  0.00     0.035 A 
BRANCH  32  37
HETATM   37  O   UNL     1      19.004  47.801  49.613  1.00  0.00    -0.354 OA
HETATM   38  C   UNL     1      17.817  47.466  48.886  1.00  0.00     0.210 C 
ENDBRANCH  32  37
BRANCH  34  39
HETATM   39  O   UNL     1      18.188  52.576  49.808  1.00  0.00    -0.356 OA
HETATM   40  C   UNL     1      16.778  52.434  49.941  1.00  0.00     0.210 C 
ENDBRANCH  34  39
ENDBRANCH  29  31
ENDBRANCH   9  29
TORSDOF 11
ENDMDL
MODEL 2
REMARK VINA RESULT:      -9.6      1.357      2.086
REMARK  11 active torsions:
REMARK  status: ('A' for Active; 'I' for Inactive)
REMARK    1  A    between atoms: C_2  and  N_3 
REMARK    2  A    between atoms: N_3  and  C_5 
REMARK    3  A    between atoms: N_3  and  C_12 
REMARK    4  A    between atoms: C_5  and  C_6 
REMARK    5  A    between atoms: C_12  and  C_13 
REMARK    6  A    between atoms: C_13  and  N_14 
REMARK       I    between atoms: N_14  and  C_15 
REMARK    7  A    between atoms: C_15  and  C_16 
REMARK    8  A    between atoms: C_24  and  N_25 
REMARK    9  A    between atoms: N_25  and  C_26 
REMARK   10  A    between atoms: C_27  and  O_28 
REMARK   11  A    between atoms: C_31  and  O_32 
ROOT
HETATM    1  C   UNL     1      24.683  47.014  49.713  1.00  0.00     0.048 A 
HETATM    2  C   UNL     1      25.621  48.004  49.382  1.00  0.00     0.009 A 
HETATM    3  C   UNL     1      25.119  49.093  48.648  1.00  0.00     0.070 A 
HETATM    4  C   UNL     1      25.995  50.102  48.273  1.00  0.00     0.032 A 
HETATM    5  C   UNL     1      27.352  50.062  48.602  1.00  0.00     0.002 A 
HETATM    6  C   UNL     1      27.854  48.993  49.331  1.00  0.00     0.001 A 
HETATM    7  C   UNL     1      26.996  47.968  49.725  1.00  0.00     0.015 A 
HETATM    8  N   UNL     1      23.827  49.196  48.293  1.00  0.00    -0.231 NA
HETATM    9  C   UNL     1      22.950  48.227  48.618  1.00  0.00     0.129 A 
HETATM   10  C   UNL     1      23.349  47.110  49.324  1.00  0.00     0.068 A 
ENDROOT
BRANCH   1  11
HETATM   11  C   UNL     1      25.039  45.853  50.543  1.00  0.00     0.252 C 
HETATM   12  N   UNL     1      26.282  45.322  50.316  1.00  0.00    -0.355 N 
HETATM   13  H   UNL     1      26.845  45.774  49.599  1.00  0.00     0.162 HD
HETATM   14  O   UNL     1      24.226  45.395  51.336  1.00  0.00    -0.268 OA
BRANCH  12  15
HETATM   15  C   UNL     1      26.752  44.019  50.777  1.00  0.00     0.150 C 
BRANCH  15  16
HETATM   16  C   UNL     1      27.842  43.974  51.873  1.00  0.00     0.255 C 
BRANCH  16  17
HETATM   17  N   UNL     1      27.626  42.932  52.964  1.00  0.00    -0.062 N 
HETATM   18  H   UNL     1      26.924  42.291  52.538  1.00  0.00     0.280 HD
BRANCH  17  19
HETATM   19  C   UNL     1      28.811  42.030  53.276  1.00  0.00     0.180 C 
HETATM   20  C   UNL     1      30.130  42.787  53.116  1.00  0.00     0.039 C 
HETATM   21  C   UNL     1      28.781  40.757  52.441  1.00  0.00     0.039 C 
ENDBRANCH  17  19
BRANCH  17  22
HETATM   22  C   UNL     1      26.931  43.520  54.177  1.00  0.00     0.273 C 
BRANCH  22  23
HETATM   23  C   UNL     1      27.217  44.981  54.407  1.00  0.00    -0.033 A 
HETATM   24  C   UNL     1      28.409  45.384  55.030  1.00  0.00     0.009 A 
HETATM   25  C   UNL     1      28.671  46.738  55.246  1.00  0.00     0.001 A 
HETATM   26  C   UNL     1      27.748  47.701  54.843  1.00  0.00     0.000 A 
HETATM   27  C   UNL     1      26.564  47.313  54.222  1.00  0.00     0.001 A 
HETATM   28  C   UNL     1      26.297  45.961  54.002  1.00  0.00     0.009 A 
ENDBRANCH  22  23
ENDBRANCH  17  22
ENDBRANCH  16  17
ENDBRANCH  15  16
ENDBRANCH  12  15
ENDBRANCH   1  11
BRANCH   9  29
HETATM   29  N   UNL     1      21.593  48.325  48.262  1.00  0.00    -0.339 N 
HETATM   30  H   UNL     1      21.431  48.033  47.302  1.00  0.00     0.167 HD
BRANCH  29  31
HETATM   31  C   UNL     1      20.687  49.351  48.611  1.00  0.00     0.067 A 
HETATM   32  C   UNL     1      19.524  49.033  49.333  1.00  0.00     0.097 A 
HETATM   33  C   UNL     1      18.662  50.021  49.815  1.00  0.00     0.075 A 
HETATM   34  C   UNL     1      18.933  51.360  49.539  1.00  0.00     0.070 A 
HETATM   35  C   UNL     1      20.060  51.687  48.779  1.00  0.00     0.039 A 
HETATM   36  C   UNL     1      20.933  50.693  48.323  1.00  0.00     0.035 A 
BRANCH  32  37
HETATM   37  O   UNL     1      19.244  47.711  49.604  1.00  0.00    -0.354 OA
HETATM   38  C   UNL     1      18.068  47.321  48.888  1.00  0.00     0.210 C 
ENDBRANCH  32  37
BRANCH  34  39
HETATM   39  O   UNL     1      18.186  52.431  49.943  1.00  0.00    -0.356 OA
HETATM   40  C   UNL     1      16.772  52.295  49.862  1.00  0.00     0.210 C 
ENDBRANCH  34  39
ENDBRANCH  29  31
ENDBRANCH   9  29
TORSDOF 11
ENDMDL
MODEL 3
REMARK VINA RESULT:      -9.5      1.713      2.381
REMARK  11 active torsions:
REMARK  status: ('A' for Active; 'I' for Inactive)
REMARK    1  A    between atoms: C_2  and  N_3 
REMARK    2  A    between atoms: N_3  and  C_5 
REMARK    3  A    between atoms: N_3  and  C_12 
REMARK    4  A    between atoms: C_5  and  C_6 
REMARK    5  A    between atoms: C_12  and  C_13 
REMARK    6  A    between atoms: C_13  and  N_14 
REMARK       I    between atoms: N_14  and  C_15 
REMARK    7  A    between atoms: C_15  and  C_16 
REMARK    8  A    between atoms: C_24  and  N_25 
REMARK    9  A    between atoms: N_25  and  C_26 
REMARK   10  A    between atoms: C_27  and  O_28 
REMARK   11  A    between atoms: C_31  and  O_32 
ROOT
HETATM    1  C   UNL     1      24.449  47.295  49.774  1.00  0.00     0.048 A 
HETATM    2  C   UNL     1      25.448  48.205  49.392  1.00  0.00     0.009 A 
HETATM    3  C   UNL     1      25.042  49.206  48.492  1.00  0.00     0.070 A 
HETATM    4  C   UNL     1      25.982  50.131  48.059  1.00  0.00     0.032 A 
HETATM    5  C   UNL     1      27.310  50.091  48.490  1.00  0.00     0.002 A 
HETATM    6  C   UNL     1      27.717  49.109  49.382  1.00  0.00     0.001 A 
HETATM    7  C   UNL     1      26.793  48.171  49.837  1.00  0.00     0.015 A 
HETATM    8  N   UNL     1      23.783  49.303  48.032  1.00  0.00    -0.231 NA
HETATM    9  C   UNL     1      22.847  48.412  48.410  1.00  0.00     0.129 A 
HETATM   10  C   UNL     1      23.151  47.382  49.279  1.00  0.00     0.068 A 
ENDROOT
BRANCH   1  11
HETATM   11  C   UNL     1      24.700  46.240  50.768  1.00  0.00     0.252 C 
HETATM   12  N   UNL     1      24.566  44.954  50.312  1.00  0.00    -0.355 N 
HETATM   13  H   UNL     1      24.307  44.843  49.334  1.00  0.00     0.162 HD
HETATM   14  O   UNL     1      24.958  46.539  51.927  1.00  0.00    -0.268 OA
BRANCH  12  15
HETATM   15  C   UNL     1      24.464  43.758  51.144  1.00  0.00     0.150 C 
BRANCH  15  16
HETATM   16  C   UNL     1      25.140  42.458  50.651  1.00  0.00     0.255 C 
BRANCH  16  17
HETATM   17  N   UNL     1      26.501  42.158  51.268  1.00  0.00    -0.062 N 
HETATM   18  H   UNL     1      26.268  41.968  52.265  1.00  0.00     0.280 HD
BRANCH  17  19
HETATM   19  C   UNL     1      27.186  40.883  50.797  1.00  0.00     0.180 C 
HETATM   20  C   UNL     1      28.002  41.137  49.530  1.00  0.00     0.039 C 
HETATM   21  C   UNL     1      26.189  39.747  50.613  1.00  0.00     0.039 C 
ENDBRANCH  17  19
BRANCH  17  22
HETATM   22  C   UNL     1      27.389  43.387  51.301  1.00  0.00     0.273 C 
BRANCH  22  23
HETATM   23  C   UNL     1      28.241  43.502  52.538  1.00  0.00    -0.033 A 
HETATM   24  C   UNL     1      27.818  44.283  53.625  1.00  0.00     0.009 A 
HETATM   25  C   UNL     1      28.610  44.392  54.768  1.00  0.00     0.001 A 
HETATM   26  C   UNL     1      29.831  43.723  54.839  1.00  0.00     0.000 A 
HETATM   27  C   UNL     1      30.260  42.943  53.768  1.00  0.00     0.001 A 
HETATM   28  C   UNL     1      29.471  42.829  52.623  1.00  0.00     0.009 A 
ENDBRANCH  22  23
ENDBRANCH  17  22
ENDBRANCH  16  17
ENDBRANCH  15  16
ENDBRANCH  12  15
ENDBRANCH   1  11
BRANCH   9  29
HETATM   29  N   UNL     1      21.524  48.505  47.945  1.00  0.00    -0.339 N 
HETATM   30  H   UNL     1      21.478  48.517  46.930  1.00  0.00     0.167 HD
BRANCH  29  31
HETATM   31  C   UNL     1      20.480  49.292  48.481  1.00  0.00     0.067 A 
HETATM   32  C   UNL     1      19.422  48.669  49.164  1.00  0.00     0.097 A 
HETATM   33  C   UNL     1      18.434  49.406  49.824  1.00  0.00     0.075 A 
HETATM   34  C   UNL     1      18.469  50.798  49.770  1.00  0.00     0.070 A 
HETATM   35  C   UNL     1      19.489  51.430  49.052  1.00  0.00     0.039 A 
HETATM   36  C   UNL     1      20.489  50.686  48.417  1.00  0.00     0.035 A 
BRANCH  32  37
HETATM   37  O   UNL     1      19.375  47.293  49.215  1.00  0.00    -0.354 OA
HETATM   38  C   UNL     1      18.332  46.824  48.355  1.00  0.00     0.210 C 
ENDBRANCH  32  37
BRANCH  34  39
HETATM   39  O   UNL     1      17.578  51.647  50.364  1.00  0.00    -0.356 OA
HETATM   40  C   UNL     1      17.189  52.795  49.619  1.00  0.00     0.210 C 
ENDBRANCH  34  39
ENDBRANCH  29  31
ENDBRANCH   9  29
TORSDOF 11
ENDMDL
MODEL 4
REMARK VINA RESULT:      -9.5      2.484     10.385
REMARK  11 active torsions:
REMARK  status: ('A' for Active; 'I' for Inactive)
REMARK    1  A    between atoms: C_2  and  N_3 
REMARK    2  A    between atoms: N_3  and  C_5 
REMARK    3  A    between atoms: N_3  and  C_12 
REMARK    4  A    between atoms: C_5  and  C_6 
REMARK    5  A    between atoms: C_12  and  C_13 
REMARK    6  A    between atoms: C_13  and  N_14 
REMARK       I    between atoms: N_14  and  C_15 
REMARK    7  A    between atoms: C_15  and  C_16 
REMARK    8  A    between atoms: C_24  and  N_25 
REMARK    9  A    between atoms: N_25  and  C_26 
REMARK   10  A    between atoms: C_27  and  O_28 
REMARK   11  A    between atoms: C_31  and  O_32 
ROOT
HETATM    1  C   UNL     1      24.678  46.208  50.589  1.00  0.00     0.048 A 
HETATM    2  C   UNL     1      24.165  45.077  49.933  1.00  0.00     0.009 A 
HETATM    3  C   UNL     1      24.133  43.897  50.697  1.00  0.00     0.070 A 
HETATM    4  C   UNL     1      23.653  42.737  50.107  1.00  0.00     0.032 A 
HETATM    5  C   UNL     1      23.207  42.712  48.783  1.00  0.00     0.002 A 
HETATM    6  C   UNL     1      23.231  43.873  48.025  1.00  0.00     0.001 A 
HETATM    7  C   UNL     1      23.703  45.054  48.593  1.00  0.00     0.015 A 
HETATM    8  N   UNL     1      24.549  43.846  51.974  1.00  0.00    -0.231 NA
HETATM    9  C   UNL     1      25.044  44.945  52.575  1.00  0.00     0.129 A 
HETATM   10  C   UNL     1      25.132  46.149  51.904  1.00  0.00     0.068 A 
ENDROOT
BRANCH   1  11
HETATM   11  C   UNL     1      24.705  47.531  49.948  1.00  0.00     0.252 C 
HETATM   12  N   UNL     1      23.520  48.223  49.968  1.00  0.00    -0.355 N 
HETATM   13  H   UNL     1      22.733  47.762  50.420  1.00  0.00     0.162 HD
HETATM   14  O   UNL     1      25.727  47.927  49.402  1.00  0.00    -0.268 OA
BRANCH  12  15
HETATM   15  C   UNL     1      23.202  49.396  49.159  1.00  0.00     0.150 C 
BRANCH  15  16
HETATM   16  C   UNL     1      22.432  49.191  47.834  1.00  0.00     0.255 C 
BRANCH  16  17
HETATM   17  N   UNL     1      20.982  48.747  47.987  1.00  0.00    -0.062 N 
HETATM   18  H   UNL     1      20.485  49.326  47.278  1.00  0.00     0.280 HD
BRANCH  17  19
HETATM   19  C   UNL     1      20.672  47.315  47.579  1.00  0.00     0.180 C 
HETATM   20  C   UNL     1      19.812  47.281  46.314  1.00  0.00     0.039 C 
HETATM   21  C   UNL     1      20.036  46.531  48.719  1.00  0.00     0.039 C 
ENDBRANCH  17  19
BRANCH  17  22
HETATM   22  C   UNL     1      20.398  49.174  49.320  1.00  0.00     0.273 C 
BRANCH  22  23
HETATM   23  C   UNL     1      19.486  50.369  49.242  1.00  0.00    -0.033 A 
HETATM   24  C   UNL     1      19.865  51.510  48.516  1.00  0.00     0.009 A 
HETATM   25  C   UNL     1      19.020  52.618  48.447  1.00  0.00     0.001 A 
HETATM   26  C   UNL     1      17.790  52.600  49.102  1.00  0.00     0.000 A 
HETATM   27  C   UNL     1      17.401  51.474  49.822  1.00  0.00     0.001 A 
HETATM   28  C   UNL     1      18.241  50.362  49.893  1.00  0.00     0.009 A 
ENDBRANCH  22  23
ENDBRANCH  17  22
ENDBRANCH  16  17
ENDBRANCH  15  16
ENDBRANCH  12  15
ENDBRANCH   1  11
BRANCH   9  29
HETATM   29  N   UNL     1      25.475  44.910  53.913  1.00  0.00    -0.339 N 
HETATM   30  H   UNL     1      24.771  45.276  54.549  1.00  0.00     0.167 HD
BRANCH  29  31
HETATM   31  C   UNL     1      26.765  45.206  54.407  1.00  0.00     0.067 A 
HETATM   32  C   UNL     1      27.011  46.455  55.000  1.00  0.00     0.097 A 
HETATM   33  C   UNL     1      28.229  46.750  55.621  1.00  0.00     0.075 A 
HETATM   34  C   UNL     1      29.247  45.799  55.616  1.00  0.00     0.070 A 
HETATM   35  C   UNL     1      29.032  44.569  54.987  1.00  0.00     0.039 A 
HETATM   36  C   UNL     1      27.801  44.272  54.391  1.00  0.00     0.035 A 
BRANCH  32  37
HETATM   37  O   UNL     1      26.013  47.404  55.003  1.00  0.00    -0.354 OA
HETATM   38  C   UNL     1      26.429  48.525  55.789  1.00  0.00     0.210 C 
ENDBRANCH  32  37
BRANCH  34  39
HETATM   39  O   UNL     1      30.483  45.943  56.181  1.00  0.00    -0.356 OA
HETATM   40  C   UNL     1      30.663  45.398  57.483  1.00  0.00     0.210 C 
ENDBRANCH  34  39
ENDBRANCH  29  31
ENDBRANCH   9  29
TORSDOF 11
ENDMDL
MODEL 5
REMARK VINA RESULT:      -9.5      1.838      3.407
REMARK  11 active torsions:
REMARK  status: ('A' for Active; 'I' for Inactive)
REMARK    1  A    between atoms: C_2  and  N_3 
REMARK    2  A    between atoms: N_3  and  C_5 
REMARK    3  A    between atoms: N_3  and  C_12 
REMARK    4  A    between atoms: C_5  and  C_6 
REMARK    5  A    between atoms: C_12  and  C_13 
REMARK    6  A    between atoms: C_13  and  N_14 
REMARK       I    between atoms: N_14  and  C_15 
REMARK    7  A    between atoms: C_15  and  C_16 
REMARK    8  A    between atoms: C_24  and  N_25 
REMARK    9  A    between atoms: N_25  and  C_26 
REMARK   10  A    between atoms: C_27  and  O_28 
REMARK   11  A    between atoms: C_31  and  O_32 
ROOT
HETATM    1  C   UNL     1      24.643  46.442  50.346  1.00  0.00     0.048 A 
HETATM    2  C   UNL     1      24.483  45.048  50.307  1.00  0.00     0.009 A 
HETATM    3  C   UNL     1      23.491  44.577  49.429  1.00  0.00     0.070 A 
HETATM    4  C   UNL     1      23.268  43.209  49.350  1.00  0.00     0.032 A 
HETATM    5  C   UNL     1      23.996  42.297  50.119  1.00  0.00     0.002 A 
HETATM    6  C   UNL     1      24.980  42.755  50.984  1.00  0.00     0.001 A 
HETATM    7  C   UNL     1      25.229  44.122  51.079  1.00  0.00     0.015 A 
HETATM    8  N   UNL     1      22.750  45.395  48.663  1.00  0.00    -0.231 NA
HETATM    9  C   UNL     1      22.920  46.730  48.726  1.00  0.00     0.129 A 
HETATM   10  C   UNL     1      23.858  47.291  49.570  1.00  0.00     0.068 A 
ENDROOT
BRANCH   1  11
HETATM   11  C   UNL     1      25.690  47.081  51.157  1.00  0.00     0.252 C 
HETATM   12  N   UNL     1      25.771  46.658  52.459  1.00  0.00    -0.355 N 
HETATM   13  H   UNL     1      25.104  45.945  52.748  1.00  0.00     0.162 HD
HETATM   14  O   UNL     1      26.386  47.964  50.673  1.00  0.00    -0.268 OA
BRANCH  12  15
HETATM   15  C   UNL     1      26.501  47.328  53.532  1.00  0.00     0.150 C 
BRANCH  15  16
HETATM   16  C   UNL     1      26.516  46.674  54.933  1.00  0.00     0.255 C 
BRANCH  16  17
HETATM   17  N   UNL     1      27.267  45.351  55.025  1.00  0.00    -0.062 N 
HETATM   18  H   UNL     1      27.199  45.115  56.037  1.00  0.00     0.280 HD
BRANCH  17  19
HETATM   19  C   UNL     1      26.623  44.164  54.324  1.00  0.00     0.180 C 
HETATM   20  C   UNL     1      25.371  43.702  55.070  1.00  0.00     0.039 C 
HETATM   21  C   UNL     1      27.615  43.027  54.120  1.00  0.00     0.039 C 
ENDBRANCH  17  19
BRANCH  17  22
HETATM   22  C   UNL     1      28.750  45.523  54.762  1.00  0.00     0.273 C 
BRANCH  22  23
HETATM   23  C   UNL     1      29.629  45.212  55.944  1.00  0.00    -0.033 A 
HETATM   24  C   UNL     1      30.593  44.194  55.867  1.00  0.00     0.009 A 
HETATM   25  C   UNL     1      31.404  43.903  56.965  1.00  0.00     0.001 A 
HETATM   26  C   UNL     1      31.263  44.625  58.148  1.00  0.00     0.000 A 
HETATM   27  C   UNL     1      30.313  45.640  58.235  1.00  0.00     0.001 A 
HETATM   28  C   UNL     1      29.500  45.935  57.141  1.00  0.00     0.009 A 
ENDBRANCH  22  23
ENDBRANCH  17  22
ENDBRANCH  16  17
ENDBRANCH  15  16
ENDBRANCH  12  15
ENDBRANCH   1  11
BRANCH   9  29
HETATM   29  N   UNL     1      22.159  47.599  47.925  1.00  0.00    -0.339 N 
HETATM   30  H   UNL     1      22.584  47.746  47.014  1.00  0.00     0.167 HD
BRANCH  29  31
HETATM   31  C   UNL     1      21.482  48.770  48.332  1.00  0.00     0.067 A 
HETATM   32  C   UNL     1      21.978  50.027  47.947  1.00  0.00     0.097 A 
HETATM   33  C   UNL     1      21.279  51.208  48.210  1.00  0.00     0.075 A 
HETATM   34  C   UNL     1      20.077  51.149  48.913  1.00  0.00     0.070 A 
HETATM   35  C   UNL     1      19.597  49.909  49.345  1.00  0.00     0.039 A 
HETATM   36  C   UNL     1      20.289  48.729  49.054  1.00  0.00     0.035 A 
BRANCH  32  37
HETATM   37  O   UNL     1      23.170  50.095  47.258  1.00  0.00    -0.354 OA
HETATM   38  C   UNL     1      24.191  50.588  48.131  1.00  0.00     0.210 C 
ENDBRANCH  32  37
BRANCH  34  39
HETATM   39  O   UNL     1      19.286  52.215  49.241  1.00  0.00    -0.356 OA
HETATM   40  C   UNL     1      18.071  51.927  49.923  1.00  0.00     0.210 C 
ENDBRANCH  34  39
ENDBRANCH  29  31
ENDBRANCH   9  29
TORSDOF 11
ENDMDL
MODEL 6
REMARK VINA RESULT:      -9.4      1.742      2.380
REMARK  11 active torsions:
REMARK  status: ('A' for Active; 'I' for Inactive)
REMARK    1  A    between atoms: C_2  and  N_3 
REMARK    2  A    between atoms: N_3  and  C_5 
REMARK    3  A    between atoms: N_3  and  C_12 
REMARK    4  A    between atoms: C_5  and  C_6 
REMARK    5  A    between atoms: C_12  and  C_13 
REMARK    6  A    between atoms: C_13  and  N_14 
REMARK       I    between atoms: N_14  and  C_15 
REMARK    7  A    between atoms: C_15  and  C_16 
REMARK    8  A    between atoms: C_24  and  N_25 
REMARK    9  A    between atoms: N_25  and  C_26 
REMARK   10  A    between atoms: C_27  and  O_28 
REMARK   11  A    between atoms: C_31  and  O_32 
ROOT
HETATM    1  C   UNL     1      25.265  46.857  49.966  1.00  0.00     0.048 A 
HETATM    2  C   UNL     1      25.753  48.050  49.408  1.00  0.00     0.009 A 
HETATM    3  C   UNL     1      24.803  48.835  48.732  1.00  0.00     0.070 A 
HETATM    4  C   UNL     1      25.219  50.020  48.142  1.00  0.00     0.032 A 
HETATM    5  C   UNL     1      26.548  50.447  48.200  1.00  0.00     0.002 A 
HETATM    6  C   UNL     1      27.490  49.680  48.870  1.00  0.00     0.001 A 
HETATM    7  C   UNL     1      27.099  48.488  49.476  1.00  0.00     0.015 A 
HETATM    8  N   UNL     1      23.509  48.485  48.633  1.00  0.00    -0.231 NA
HETATM    9  C   UNL     1      23.070  47.332  49.171  1.00  0.00     0.129 A 
HETATM   10  C   UNL     1      23.929  46.484  49.842  1.00  0.00     0.068 A 
ENDROOT
BRANCH   1  11
HETATM   11  C   UNL     1      26.119  45.969  50.769  1.00  0.00     0.252 C 
HETATM   12  N   UNL     1      25.942  46.046  52.127  1.00  0.00    -0.355 N 
HETATM   13  H   UNL     1      25.241  46.706  52.457  1.00  0.00     0.162 HD
HETATM   14  O   UNL     1      26.954  45.261  50.219  1.00  0.00    -0.268 OA
BRANCH  12  15
HETATM   15  C   UNL     1      26.848  45.508  53.138  1.00  0.00     0.150 C 
BRANCH  15  16
HETATM   16  C   UNL     1      26.523  44.131  53.761  1.00  0.00     0.255 C 
BRANCH  16  17
HETATM   17  N   UNL     1      27.699  43.167  53.860  1.00  0.00    -0.062 N 
HETATM   18  H   UNL     1      27.663  42.855  54.853  1.00  0.00     0.280 HD
BRANCH  17  19
HETATM   19  C   UNL     1      27.579  41.878  53.061  1.00  0.00     0.180 C 
HETATM   20  C   UNL     1      28.752  40.942  53.355  1.00  0.00     0.039 C 
HETATM   21  C   UNL     1      27.430  42.152  51.571  1.00  0.00     0.039 C 
ENDBRANCH  17  19
BRANCH  17  22
HETATM   22  C   UNL     1      29.029  43.883  53.724  1.00  0.00     0.273 C 
BRANCH  22  23
HETATM   23  C   UNL     1      29.747  44.109  55.028  1.00  0.00    -0.033 A 
HETATM   24  C   UNL     1      30.680  43.172  55.499  1.00  0.00     0.009 A 
HETATM   25  C   UNL     1      31.342  43.380  56.710  1.00  0.00     0.001 A 
HETATM   26  C   UNL     1      31.081  44.525  57.461  1.00  0.00     0.000 A 
HETATM   27  C   UNL     1      30.161  45.463  57.001  1.00  0.00     0.001 A 
HETATM   28  C   UNL     1      29.497  45.261  55.791  1.00  0.00     0.009 A 
ENDBRANCH  22  23
ENDBRANCH  17  22
ENDBRANCH  16  17
ENDBRANCH  15  16
ENDBRANCH  12  15
ENDBRANCH   1  11
BRANCH   9  29
HETATM   29  N   UNL     1      21.718  46.956  49.083  1.00  0.00    -0.339 N 
HETATM   30  H   UNL     1      21.589  45.959  49.238  1.00  0.00     0.167 HD
BRANCH  29  31
HETATM   31  C   UNL     1      20.755  47.425  48.162  1.00  0.00     0.067 A 
HETATM   32  C   UNL     1      19.910  48.487  48.522  1.00  0.00     0.097 A 
HETATM   33  C   UNL     1      19.032  49.075  47.607  1.00  0.00     0.075 A 
HETATM   34  C   UNL     1      18.956  48.569  46.311  1.00  0.00     0.070 A 
HETATM   35  C   UNL     1      19.756  47.479  45.953  1.00  0.00     0.039 A 
HETATM   36  C   UNL     1      20.652  46.915  46.868  1.00  0.00     0.035 A 
BRANCH  32  37
HETATM   37  O   UNL     1      19.973  48.989  49.804  1.00  0.00    -0.354 OA
HETATM   38  C   UNL     1      18.759  49.689  50.097  1.00  0.00     0.210 C 
ENDBRANCH  32  37
BRANCH  34  39
HETATM   39  O   UNL     1      18.150  49.038  45.311  1.00  0.00    -0.356 OA
HETATM   40  C   UNL     1      18.263  50.419  44.989  1.00  0.00     0.210 C 
ENDBRANCH  34  39
ENDBRANCH  29  31
ENDBRANCH   9  29
TORSDOF 11
ENDMDL
MODEL 7
REMARK VINA RESULT:      -9.1      2.646     10.444
REMARK  11 active torsions:
REMARK  status: ('A' for Active; 'I' for Inactive)
REMARK    1  A    between atoms: C_2  and  N_3 
REMARK    2  A    between atoms: N_3  and  C_5 
REMARK    3  A    between atoms: N_3  and  C_12 
REMARK    4  A    between atoms: C_5  and  C_6 
REMARK    5  A    between atoms: C_12  and  C_13 
REMARK    6  A    between atoms: C_13  and  N_14 
REMARK       I    between atoms: N_14  and  C_15 
REMARK    7  A    between atoms: C_15  and  C_16 
REMARK    8  A    between atoms: C_24  and  N_25 
REMARK    9  A    between atoms: N_25  and  C_26 
REMARK   10  A    between atoms: C_27  and  O_28 
REMARK   11  A    between atoms: C_31  and  O_32 
ROOT
HETATM    1  C   UNL     1      24.715  45.857  50.797  1.00  0.00     0.048 A 
HETATM    2  C   UNL     1      24.160  44.905  49.926  1.00  0.00     0.009 A 
HETATM    3  C   UNL     1      24.104  43.591  50.422  1.00  0.00     0.070 A 
HETATM    4  C   UNL     1      23.581  42.595  49.609  1.00  0.00     0.032 A 
HETATM    5  C   UNL     1      23.117  42.864  48.319  1.00  0.00     0.002 A 
HETATM    6  C   UNL     1      23.166  44.159  47.824  1.00  0.00     0.001 A 
HETATM    7  C   UNL     1      23.680  45.179  48.621  1.00  0.00     0.015 A 
HETATM    8  N   UNL     1      24.535  43.259  51.651  1.00  0.00    -0.231 NA
HETATM    9  C   UNL     1      25.069  44.192  52.463  1.00  0.00     0.129 A 
HETATM   10  C   UNL     1      25.184  45.508  52.060  1.00  0.00     0.068 A 
ENDROOT
BRANCH   1  11
HETATM   11  C   UNL     1      24.773  47.285  50.451  1.00  0.00     0.252 C 
HETATM   12  N   UNL     1      23.595  47.837  50.018  1.00  0.00    -0.355 N 
HETATM   13  H   UNL     1      22.790  47.215  49.974  1.00  0.00     0.162 HD
HETATM   14  O   UNL     1      25.837  47.888  50.513  1.00  0.00    -0.268 OA
BRANCH  12  15
HETATM   15  C   UNL     1      23.451  49.124  49.342  1.00  0.00     0.150 C 
BRANCH  15  16
HETATM   16  C   UNL     1      22.150  49.930  49.561  1.00  0.00     0.255 C 
BRANCH  16  17
HETATM   17  N   UNL     1      20.873  49.246  49.085  1.00  0.00    -0.062 N 
HETATM   18  H   UNL     1      20.827  48.396  49.685  1.00  0.00     0.280 HD
BRANCH  17  19
HETATM   19  C   UNL     1      19.571  49.977  49.377  1.00  0.00     0.180 C 
HETATM   20  C   UNL     1      19.792  51.489  49.420  1.00  0.00     0.039 C 
HETATM   21  C   UNL     1      18.912  49.462  50.649  1.00  0.00     0.039 C 
ENDBRANCH  17  19
BRANCH  17  22
HETATM   22  C   UNL     1      21.009  48.718  47.670  1.00  0.00     0.273 C 
BRANCH  22  23
HETATM   23  C   UNL     1      20.529  47.303  47.487  1.00  0.00    -0.033 A 
HETATM   24  C   UNL     1      20.122  46.540  48.594  1.00  0.00     0.009 A 
HETATM   25  C   UNL     1      19.682  45.227  48.424  1.00  0.00     0.001 A 
HETATM   26  C   UNL     1      19.642  44.663  47.151  1.00  0.00     0.000 A 
HETATM   27  C   UNL     1      20.040  45.410  46.045  1.00  0.00     0.001 A 
HETATM   28  C   UNL     1      20.480  46.724  46.209  1.00  0.00     0.009 A 
ENDBRANCH  22  23
ENDBRANCH  17  22
ENDBRANCH  16  17
ENDBRANCH  15  16
ENDBRANCH  12  15
ENDBRANCH   1  11
BRANCH   9  29
HETATM   29  N   UNL     1      25.517  43.862  53.754  1.00  0.00    -0.339 N 
HETATM   30  H   UNL     1      24.858  44.156  54.471  1.00  0.00     0.167 HD
BRANCH  29  31
HETATM   31  C   UNL     1      26.836  43.945  54.253  1.00  0.00     0.067 A 
HETATM   32  C   UNL     1      27.761  42.935  53.940  1.00  0.00     0.097 A 
HETATM   33  C   UNL     1      29.109  43.033  54.296  1.00  0.00     0.075 A 
HETATM   34  C   UNL     1      29.546  44.140  55.021  1.00  0.00     0.070 A 
HETATM   35  C   UNL     1      28.625  45.129  55.381  1.00  0.00     0.039 A 
HETATM   36  C   UNL     1      27.283  45.037  54.997  1.00  0.00     0.035 A 
BRANCH  32  37
HETATM   37  O   UNL     1      27.336  41.833  53.230  1.00  0.00    -0.354 OA
HETATM   38  C   UNL     1      28.000  41.803  51.963  1.00  0.00     0.210 C 
ENDBRANCH  32  37
BRANCH  34  39
HETATM   39  O   UNL     1      30.827  44.373  55.437  1.00  0.00    -0.356 OA
HETATM   40  C   UNL     1      31.320  43.553  56.490  1.00  0.00     0.210 C 
ENDBRANCH  34  39
ENDBRANCH  29  31
ENDBRANCH   9  29
TORSDOF 11
ENDMDL
MODEL 8
REMARK VINA RESULT:      -9.1      2.040     10.297
REMARK  11 active torsions:
REMARK  status: ('A' for Active; 'I' for Inactive)
REMARK    1  A    between atoms: C_2  and  N_3 
REMARK    2  A    between atoms: N_3  and  C_5 
REMARK    3  A    between atoms: N_3  and  C_12 
REMARK    4  A    between atoms: C_5  and  C_6 
REMARK    5  A    between atoms: C_12  and  C_13 
REMARK    6  A    between atoms: C_13  and  N_14 
REMARK       I    between atoms: N_14  and  C_15 
REMARK    7  A    between atoms: C_15  and  C_16 
REMARK    8  A    between atoms: C_24  and  N_25 
REMARK    9  A    between atoms: N_25  and  C_26 
REMARK   10  A    between atoms: C_27  and  O_28 
REMARK   11  A    between atoms: C_31  and  O_32 
ROOT
HETATM    1  C   UNL     1      24.281  47.365  49.743  1.00  0.00     0.048 A 
HETATM    2  C   UNL     1      25.339  48.194  49.337  1.00  0.00     0.009 A 
HETATM    3  C   UNL     1      26.618  47.795  49.762  1.00  0.00     0.070 A 
HETATM    4  C   UNL     1      27.709  48.577  49.410  1.00  0.00     0.032 A 
HETATM    5  C   UNL     1      27.568  49.743  48.652  1.00  0.00     0.002 A 
HETATM    6  C   UNL     1      26.309  50.140  48.225  1.00  0.00     0.001 A 
HETATM    7  C   UNL     1      25.197  49.371  48.560  1.00  0.00     0.015 A 
HETATM    8  N   UNL     1      26.828  46.689  50.496  1.00  0.00    -0.231 NA
HETATM    9  C   UNL     1      25.794  45.916  50.878  1.00  0.00     0.129 A 
HETATM   10  C   UNL     1      24.497  46.232  50.524  1.00  0.00     0.068 A 
ENDROOT
BRANCH   1  11
HETATM   11  C   UNL     1      22.896  47.607  49.314  1.00  0.00     0.252 C 
HETATM   12  N   UNL     1      22.270  46.548  48.706  1.00  0.00    -0.355 N 
HETATM   13  H   UNL     1      22.816  45.695  48.606  1.00  0.00     0.162 HD
HETATM   14  O   UNL     1      22.392  48.713  49.465  1.00  0.00    -0.268 OA
BRANCH  12  15
HETATM   15  C   UNL     1      21.032  46.615  47.935  1.00  0.00     0.150 C 
BRANCH  15  16
HETATM   16  C   UNL     1      19.709  46.221  48.630  1.00  0.00     0.255 C 
BRANCH  16  17
HETATM   17  N   UNL     1      18.576  47.230  48.493  1.00  0.00    -0.062 N 
HETATM   18  H   UNL     1      18.866  47.796  47.668  1.00  0.00     0.280 HD
BRANCH  17  19
HETATM   19  C   UNL     1      17.219  46.667  48.096  1.00  0.00     0.180 C 
HETATM   20  C   UNL     1      17.377  45.488  47.135  1.00  0.00     0.039 C 
HETATM   21  C   UNL     1      16.309  47.747  47.525  1.00  0.00     0.039 C 
ENDBRANCH  17  19
BRANCH  17  22
HETATM   22  C   UNL     1      18.549  48.211  49.649  1.00  0.00     0.273 C 
BRANCH  22  23
HETATM   23  C   UNL     1      18.791  49.643  49.253  1.00  0.00    -0.033 A 
HETATM   24  C   UNL     1      18.356  50.693  50.077  1.00  0.00     0.009 A 
HETATM   25  C   UNL     1      18.578  52.021  49.707  1.00  0.00     0.001 A 
HETATM   26  C   UNL     1      19.236  52.313  48.514  1.00  0.00     0.000 A 
HETATM   27  C   UNL     1      19.675  51.279  47.690  1.00  0.00     0.001 A 
HETATM   28  C   UNL     1      19.458  49.950  48.056  1.00  0.00     0.009 A 
ENDBRANCH  22  23
ENDBRANCH  17  22
ENDBRANCH  16  17
ENDBRANCH  15  16
ENDBRANCH  12  15
ENDBRANCH   1  11
BRANCH   9  29
HETATM   29  N   UNL     1      25.998  44.751  51.638  1.00  0.00    -0.339 N 
HETATM   30  H   UNL     1      25.162  44.478  52.148  1.00  0.00     0.167 HD
BRANCH  29  31
HETATM   31  C   UNL     1      27.147  44.403  52.382  1.00  0.00     0.067 A 
HETATM   32  C   UNL     1      27.224  44.747  53.742  1.00  0.00     0.097 A 
HETATM   33  C   UNL     1      28.275  44.314  54.555  1.00  0.00     0.075 A 
HETATM   34  C   UNL     1      29.303  43.556  53.998  1.00  0.00     0.070 A 
HETATM   35  C   UNL     1      29.264  43.247  52.635  1.00  0.00     0.039 A 
HETATM   36  C   UNL     1      28.194  43.662  51.834  1.00  0.00     0.035 A 
BRANCH  32  37
HETATM   37  O   UNL     1      26.216  45.503  54.299  1.00  0.00    -0.354 OA
HETATM   38  C   UNL     1      26.691  46.835  54.519  1.00  0.00     0.210 C 
ENDBRANCH  32  37
BRANCH  34  39
HETATM   39  O   UNL     1      30.390  43.064  54.665  1.00  0.00    -0.356 OA
HETATM   40  C   UNL     1      30.861  43.820  55.774  1.00  0.00     0.210 C 
ENDBRANCH  34  39
ENDBRANCH  29  31
ENDBRANCH   9  29
TORSDOF 11
ENDMDL
MODEL 9
REMARK VINA RESULT:      -9.1      2.763      4.463
REMARK  11 active torsions:
REMARK  status: ('A' for Active; 'I' for Inactive)
REMARK    1  A    between atoms: C_2  and  N_3 
REMARK    2  A    between atoms: N_3  and  C_5 
REMARK    3  A    between atoms: N_3  and  C_12 
REMARK    4  A    between atoms: C_5  and  C_6 
REMARK    5  A    between atoms: C_12  and  C_13 
REMARK    6  A    between atoms: C_13  and  N_14 
REMARK       I    between atoms: N_14  and  C_15 
REMARK    7  A    between atoms: C_15  and  C_16 
REMARK    8  A    between atoms: C_24  and  N_25 
REMARK    9  A    between atoms: N_25  and  C_26 
REMARK   10  A    between atoms: C_27  and  O_28 
REMARK   11  A    between atoms: C_31  and  O_32 
ROOT
HETATM    1  C   UNL     1      24.381  45.090  50.758  1.00  0.00     0.048 A 
HETATM    2  C   UNL     1      24.943  45.452  51.993  1.00  0.00     0.009 A 
HETATM    3  C   UNL     1      25.280  46.810  52.129  1.00  0.00     0.070 A 
HETATM    4  C   UNL     1      25.856  47.236  53.318  1.00  0.00     0.032 A 
HETATM    5  C   UNL     1      26.109  46.356  54.372  1.00  0.00     0.002 A 
HETATM    6  C   UNL     1      25.775  45.015  54.247  1.00  0.00     0.001 A 
HETATM    7  C   UNL     1      25.191  44.561  53.066  1.00  0.00     0.015 A 
HETATM    8  N   UNL     1      25.069  47.713  51.156  1.00  0.00    -0.231 NA
HETATM    9  C   UNL     1      24.534  47.336  49.979  1.00  0.00     0.129 A 
HETATM   10  C   UNL     1      24.185  46.021  49.742  1.00  0.00     0.068 A 
ENDROOT
BRANCH   1  11
HETATM   11  C   UNL     1      23.907  43.723  50.492  1.00  0.00     0.252 C 
HETATM   12  N   UNL     1      24.829  42.874  49.936  1.00  0.00    -0.355 N 
HETATM   13  H   UNL     1      25.754  43.262  49.758  1.00  0.00     0.162 HD
HETATM   14  O   UNL     1      22.742  43.424  50.722  1.00  0.00    -0.268 OA
BRANCH  12  15
HETATM   15  C   UNL     1      24.538  41.588  49.310  1.00  0.00     0.150 C 
BRANCH  15  16
HETATM   16  C   UNL     1      25.724  40.703  48.859  1.00  0.00     0.255 C 
BRANCH  16  17
HETATM   17  N   UNL     1      26.845  40.549  49.879  1.00  0.00    -0.062 N 
HETATM   18  H   UNL     1      26.330  40.437  50.778  1.00  0.00     0.280 HD
BRANCH  17  19
HETATM   19  C   UNL     1      27.681  39.282  49.772  1.00  0.00     0.180 C 
HETATM   20  C   UNL     1      28.898  39.505  48.874  1.00  0.00     0.039 C 
HETATM   21  C   UNL     1      26.845  38.096  49.311  1.00  0.00     0.039 C 
ENDBRANCH  17  19
BRANCH  17  22
HETATM   22  C   UNL     1      27.641  41.830  50.042  1.00  0.00     0.273 C 
BRANCH  22  23
HETATM   23  C   UNL     1      28.000  42.159  51.467  1.00  0.00    -0.033 A 
HETATM   24  C   UNL     1      27.785  41.222  52.491  1.00  0.00     0.009 A 
HETATM   25  C   UNL     1      28.115  41.530  53.812  1.00  0.00     0.001 A 
HETATM   26  C   UNL     1      28.661  42.773  54.124  1.00  0.00     0.000 A 
HETATM   27  C   UNL     1      28.882  43.709  53.116  1.00  0.00     0.001 A 
HETATM   28  C   UNL     1      28.556  43.406  51.794  1.00  0.00     0.009 A 
ENDBRANCH  22  23
ENDBRANCH  17  22
ENDBRANCH  16  17
ENDBRANCH  15  16
ENDBRANCH  12  15
ENDBRANCH   1  11
BRANCH   9  29
HETATM   29  N   UNL     1      24.299  48.269  48.954  1.00  0.00    -0.339 N 
HETATM   30  H   UNL     1      25.132  48.807  48.731  1.00  0.00     0.167 HD
BRANCH  29  31
HETATM   31  C   UNL     1      23.150  49.070  48.770  1.00  0.00     0.067 A 
HETATM   32  C   UNL     1      22.116  48.618  47.933  1.00  0.00     0.097 A 
HETATM   33  C   UNL     1      20.905  49.307  47.819  1.00  0.00     0.075 A 
HETATM   34  C   UNL     1      20.727  50.499  48.518  1.00  0.00     0.070 A 
HETATM   35  C   UNL     1      21.767  50.985  49.317  1.00  0.00     0.039 A 
HETATM   36  C   UNL     1      22.966  50.276  49.447  1.00  0.00     0.035 A 
BRANCH  32  37
HETATM   37  O   UNL     1      22.286  47.444  47.232  1.00  0.00    -0.354 OA
HETATM   38  C   UNL     1      21.004  46.874  46.950  1.00  0.00     0.210 C 
ENDBRANCH  32  37
BRANCH  34  39
HETATM   39  O   UNL     1      19.604  51.277  48.506  1.00  0.00    -0.356 OA
HETATM   40  C   UNL     1      19.057  51.637  49.769  1.00  0.00     0.210 C 
ENDBRANCH  34  39
ENDBRANCH  29  31
ENDBRANCH   9  29
TORSDOF 11
ENDMDL
MODEL 10
REMARK VINA RESULT:      -9.1      2.006     10.246
REMARK  11 active torsions:
REMARK  status: ('A' for Active; 'I' for Inactive)
REMARK    1  A    between atoms: C_2  and  N_3 
REMARK    2  A    between atoms: N_3  and  C_5 
REMARK    3  A    between atoms: N_3  and  C_12 
REMARK    4  A    between atoms: C_5  and  C_6 
REMARK    5  A    between atoms: C_12  and  C_13 
REMARK    6  A    between atoms: C_13  and  N_14 
REMARK       I    between atoms: N_14  and  C_15 
REMARK    7  A    between atoms: C_15  and  C_16 
REMARK    8  A    between atoms: C_24  and  N_25 
REMARK    9  A    between atoms: N_25  and  C_26 
REMARK   10  A    between atoms: C_27  and  O_28 
REMARK   11  A    between atoms: C_31  and  O_32 
ROOT
HETATM    1  C   UNL     1      24.279  47.222  49.754  1.00  0.00     0.048 A 
HETATM    2  C   UNL     1      25.293  48.113  49.369  1.00  0.00     0.009 A 
HETATM    3  C   UNL     1      26.573  47.830  49.877  1.00  0.00     0.070 A 
HETATM    4  C   UNL     1      27.621  48.679  49.549  1.00  0.00     0.032 A 
HETATM    5  C   UNL     1      27.436  49.800  48.737  1.00  0.00     0.002 A 
HETATM    6  C   UNL     1      26.177  50.083  48.228  1.00  0.00     0.001 A 
HETATM    7  C   UNL     1      25.108  49.245  48.536  1.00  0.00     0.015 A 
HETATM    8  N   UNL     1      26.823  46.772  50.667  1.00  0.00    -0.231 NA
HETATM    9  C   UNL     1      25.829  45.937  51.026  1.00  0.00     0.129 A 
HETATM   10  C   UNL     1      24.534  46.140  50.592  1.00  0.00     0.068 A 
ENDROOT
BRANCH   1  11
HETATM   11  C   UNL     1      22.905  47.341  49.243  1.00  0.00     0.252 C 
HETATM   12  N   UNL     1      22.352  46.185  48.756  1.00  0.00    -0.355 N 
HETATM   13  H   UNL     1      22.936  45.352  48.791  1.00  0.00     0.162 HD
HETATM   14  O   UNL     1      22.350  48.433  49.227  1.00  0.00    -0.268 OA
BRANCH  12  15
HETATM   15  C   UNL     1      21.148  46.093  47.935  1.00  0.00     0.150 C 
BRANCH  15  16
HETATM   16  C   UNL     1      19.773  46.068  48.644  1.00  0.00     0.255 C 
BRANCH  16  17
HETATM   17  N   UNL     1      18.903  47.299  48.418  1.00  0.00    -0.062 N 
HETATM   18  H   UNL     1      19.407  47.806  47.661  1.00  0.00     0.280 HD
BRANCH  17  19
HETATM   19  C   UNL     1      17.520  47.046  47.837  1.00  0.00     0.180 C 
HETATM   20  C   UNL     1      16.442  47.184  48.913  1.00  0.00     0.039 C 
HETATM   21  C   UNL     1      17.447  45.700  47.129  1.00  0.00     0.039 C 
ENDBRANCH  17  19
BRANCH  17  22
HETATM   22  C   UNL     1      18.937  48.240  49.607  1.00  0.00     0.273 C 
BRANCH  22  23
HETATM   23  C   UNL     1      18.998  49.699  49.241  1.00  0.00    -0.033 A 
HETATM   24  C   UNL     1      19.545  50.103  48.012  1.00  0.00     0.009 A 
HETATM   25  C   UNL     1      19.605  51.456  47.675  1.00  0.00     0.001 A 
HETATM   26  C   UNL     1      19.121  52.418  48.560  1.00  0.00     0.000 A 
HETATM   27  C   UNL     1      18.574  52.029  49.780  1.00  0.00     0.001 A 
HETATM   28  C   UNL     1      18.510  50.678  50.121  1.00  0.00     0.009 A 
ENDBRANCH  22  23
ENDBRANCH  17  22
ENDBRANCH  16  17
ENDBRANCH  15  16
ENDBRANCH  12  15
ENDBRANCH   1  11
BRANCH   9  29
HETATM   29  N   UNL     1      26.077  44.821  51.845  1.00  0.00    -0.339 N 
HETATM   30  H   UNL     1      25.217  44.356  52.123  1.00  0.00     0.167 HD
BRANCH  29  31
HETATM   31  C   UNL     1      27.037  44.709  52.876  1.00  0.00     0.067 A 
HETATM   32  C   UNL     1      28.096  43.796  52.741  1.00  0.00     0.097 A 
HETATM   33  C   UNL     1      29.141  43.737  53.666  1.00  0.00     0.075 A 
HETATM   34  C   UNL     1      29.117  44.574  54.780  1.00  0.00     0.070 A 
HETATM   35  C   UNL     1      28.044  45.453  54.952  1.00  0.00     0.039 A 
HETATM   36  C   UNL     1      27.015  45.525  54.007  1.00  0.00     0.035 A 
BRANCH  32  37
HETATM   37  O   UNL     1      28.124  42.959  51.646  1.00  0.00    -0.354 OA
HETATM   38  C   UNL     1      28.240  41.604  52.092  1.00  0.00     0.210 C 
ENDBRANCH  32  37
BRANCH  34  39
HETATM   39  O   UNL     1      30.065  44.629  55.763  1.00  0.00    -0.356 OA
HETATM   40  C   UNL     1      30.005  45.740  56.651  1.00  0.00     0.210 C 
ENDBRANCH  34  39
ENDBRANCH  29  31
ENDBRANCH   9  29
TORSDOF 11
ENDMDL
