MODEL 1
REMARK VINA RESULT:      -9.8      0.000      0.000
REMARK  3 active torsions:
REMARK  status: ('A' for Active; 'I' for Inactive)
REMARK    1  A    between atoms: C_2  and  C_3 
REMARK    2  A    between atoms: C_3  and  C_4 
REMARK    3  A    between atoms: C_8  and  C_9 
REMARK       I    between atoms: C_9  and  N_10 
ROOT
HETATM    1  C   UNL     1      24.742  49.403  48.566  1.00  0.00     0.271 C 
HETATM    2  N   UNL     1      25.000  48.270  49.350  1.00  0.00    -0.347 N 
HETATM    3  C   UNL     1      23.979  47.377  49.896  1.00  0.00     0.128 C 
HETATM    4  C   UNL     1      24.411  45.916  49.892  1.00  0.00     0.055 C 
HETATM    5  C   UNL     1      25.795  45.700  50.518  1.00  0.00     0.100 C 
HETATM    6  N   UNL     1      25.712  45.968  51.979  1.00  0.00    -0.273 NA
HETATM    7  C   UNL     1      26.756  45.433  52.752  1.00  0.00     0.036 A 
HETATM    8  C   UNL     1      27.463  44.289  52.338  1.00  0.00     0.056 A 
HETATM    9  N   UNL     1      27.168  43.704  51.102  1.00  0.00    -0.324 N 
HETATM   10  C   UNL     1      26.254  44.241  50.230  1.00  0.00     0.245 C 
HETATM   11  O   UNL     1      25.934  43.613  49.219  1.00  0.00    -0.271 OA
HETATM   12  C   UNL     1      27.006  45.942  54.030  1.00  0.00     0.026 A 
HETATM   13  C   UNL     1      27.987  45.371  54.846  1.00  0.00     0.002 A 
HETATM   14  C   UNL     1      28.704  44.258  54.406  1.00  0.00     0.002 A 
HETATM   15  C   UNL     1      28.434  43.708  53.154  1.00  0.00     0.031 A 
HETATM   16  C   UNL     1      26.811  46.643  49.847  1.00  0.00     0.055 C 
HETATM   17  C   UNL     1      26.357  48.096  49.858  1.00  0.00     0.128 C 
HETATM   18  O   UNL     1      25.658  50.012  48.016  1.00  0.00    -0.266 OA
HETATM   19  H   UNL     1      25.515  46.934  52.224  1.00  0.00     0.129 HD
HETATM   20  H   UNL     1      27.548  42.800  50.859  1.00  0.00     0.169 HD
ENDROOT
BRANCH   1  21
HETATM   21  C   UNL     1      23.383  49.852  48.386  1.00  0.00     0.119 A 
HETATM   22  N   UNL     1      22.480  49.119  47.663  1.00  0.00    -0.273 N 
HETATM   23  N   UNL     1      21.247  49.652  47.619  1.00  0.00    -0.179 NA
HETATM   24  H   UNL     1      22.650  48.232  47.198  1.00  0.00     0.189 HD
HETATM   25  C   UNL     1      21.377  50.811  48.272  1.00  0.00     0.057 A 
HETATM   26  C   UNL     1      22.701  51.004  48.725  1.00  0.00     0.065 A 
BRANCH  25  27
HETATM   27  C   UNL     1      20.209  51.725  48.457  1.00  0.00     0.065 C 
BRANCH  27  28
HETATM   28  C   UNL     1      19.584  51.619  49.861  1.00  0.00    -0.017 C 
HETATM   29  C   UNL     1      19.466  50.163  50.322  1.00  0.00     0.010 C 
HETATM   30  C   UNL     1      18.205  52.281  49.874  1.00  0.00     0.010 C 
ENDBRANCH  27  28
ENDBRANCH  25  27
ENDBRANCH   1  21
TORSDOF 3
ENDMDL
MODEL 2
REMARK VINA RESULT:      -9.7      1.406      8.664
REMARK  3 active torsions:
REMARK  status: ('A' for Active; 'I' for Inactive)
REMARK    1  A    between atoms: C_2  and  C_3 
REMARK    2  A    between atoms: C_3  and  C_4 
REMARK    3  A    between atoms: C_8  and  C_9 
REMARK       I    between atoms: C_9  and  N_10 
ROOT
HETATM    1  C   UNL     1      24.539  44.859  49.659  1.00  0.00     0.271 C 
HETATM    2  N   UNL     1      24.144  46.203  49.603  1.00  0.00    -0.347 N 
HETATM    3  C   UNL     1      24.781  47.296  50.336  1.00  0.00     0.128 C 
HETATM    4  C   UNL     1      24.836  48.590  49.535  1.00  0.00     0.055 C 
HETATM    5  C   UNL     1      23.478  48.980  48.935  1.00  0.00     0.100 C 
HETATM    6  N   UNL     1      22.556  49.366  50.037  1.00  0.00    -0.273 NA
HETATM    7  C   UNL     1      21.437  50.125  49.650  1.00  0.00     0.036 A 
HETATM    8  C   UNL     1      21.467  50.943  48.507  1.00  0.00     0.056 A 
HETATM    9  N   UNL     1      22.607  50.960  47.697  1.00  0.00    -0.324 N 
HETATM   10  C   UNL     1      23.691  50.150  47.931  1.00  0.00     0.245 C 
HETATM   11  O   UNL     1      24.719  50.303  47.270  1.00  0.00    -0.271 OA
HETATM   12  C   UNL     1      20.323  50.197  50.491  1.00  0.00     0.026 A 
HETATM   13  C   UNL     1      19.235  51.010  50.164  1.00  0.00     0.002 A 
HETATM   14  C   UNL     1      19.264  51.789  49.007  1.00  0.00     0.002 A 
HETATM   15  C   UNL     1      20.388  51.765  48.181  1.00  0.00     0.031 A 
HETATM   16  C   UNL     1      22.912  47.789  48.140  1.00  0.00     0.055 C 
HETATM   17  C   UNL     1      22.871  46.506  48.958  1.00  0.00     0.128 C 
HETATM   18  O   UNL     1      24.054  44.026  48.894  1.00  0.00    -0.266 OA
HETATM   19  H   UNL     1      22.302  48.609  50.664  1.00  0.00     0.129 HD
HETATM   20  H   UNL     1      22.709  51.652  46.968  1.00  0.00     0.169 HD
ENDROOT
BRANCH   1  21
HETATM   21  C   UNL     1      25.539  44.448  50.613  1.00  0.00     0.119 A 
HETATM   22  N   UNL     1      26.845  44.267  50.244  1.00  0.00    -0.273 N 
HETATM   23  N   UNL     1      27.661  43.921  51.255  1.00  0.00    -0.179 NA
HETATM   24  H   UNL     1      27.237  44.391  49.316  1.00  0.00     0.189 HD
HETATM   25  C   UNL     1      26.837  43.797  52.301  1.00  0.00     0.057 A 
HETATM   26  C   UNL     1      25.498  44.067  51.941  1.00  0.00     0.065 A 
BRANCH  25  27
HETATM   27  C   UNL     1      27.359  43.422  53.650  1.00  0.00     0.065 C 
BRANCH  27  28
HETATM   28  C   UNL     1      28.732  44.053  53.956  1.00  0.00    -0.017 C 
HETATM   29  C   UNL     1      29.769  42.996  54.347  1.00  0.00     0.010 C 
HETATM   30  C   UNL     1      28.597  45.087  55.075  1.00  0.00     0.010 C 
ENDBRANCH  27  28
ENDBRANCH  25  27
ENDBRANCH   1  21
TORSDOF 3
ENDMDL
MODEL 3
REMARK VINA RESULT:      -8.8     20.136     22.986
REMARK  3 active torsions:
REMARK  status: ('A' for Active; 'I' for Inactive)
REMARK    1  A    between atoms: C_2  and  C_3 
REMARK    2  A    between atoms: C_3  and  C_4 
REMARK    3  A    between atoms: C_8  and  C_9 
REMARK       I    between atoms: C_9  and  N_10 
ROOT
HETATM    1  C   UNL     1      39.417  40.763  63.274  1.00  0.00     0.271 C 
HETATM    2  N   UNL     1      39.534  42.042  63.835  1.00  0.00    -0.347 N 
HETATM    3  C   UNL     1      40.225  42.350  65.086  1.00  0.00     0.128 C 
HETATM    4  C   UNL     1      40.965  43.680  65.038  1.00  0.00     0.055 C 
HETATM    5  C   UNL     1      40.087  44.835  64.537  1.00  0.00     0.100 C 
HETATM    6  N   UNL     1      39.043  45.126  65.556  1.00  0.00    -0.273 NA
HETATM    7  C   UNL     1      38.431  46.387  65.451  1.00  0.00     0.036 A 
HETATM    8  C   UNL     1      39.100  47.480  64.872  1.00  0.00     0.056 A 
HETATM    9  N   UNL     1      40.377  47.302  64.330  1.00  0.00    -0.324 N 
HETATM   10  C   UNL     1      40.991  46.075  64.275  1.00  0.00     0.245 C 
HETATM   11  O   UNL     1      42.167  45.998  63.914  1.00  0.00    -0.271 OA
HETATM   12  C   UNL     1      37.196  46.613  66.066  1.00  0.00     0.026 A 
HETATM   13  C   UNL     1      36.610  47.881  66.042  1.00  0.00     0.002 A 
HETATM   14  C   UNL     1      37.270  48.948  65.432  1.00  0.00     0.002 A 
HETATM   15  C   UNL     1      38.524  48.751  64.856  1.00  0.00     0.031 A 
HETATM   16  C   UNL     1      39.445  44.441  63.194  1.00  0.00     0.055 C 
HETATM   17  C   UNL     1      38.716  43.107  63.263  1.00  0.00     0.128 C 
HETATM   18  O   UNL     1      38.958  40.608  62.143  1.00  0.00    -0.266 OA
HETATM   19  H   UNL     1      38.363  44.384  65.692  1.00  0.00     0.129 HD
HETATM   20  H   UNL     1      40.934  48.098  64.056  1.00  0.00     0.169 HD
ENDROOT
BRANCH   1  21
HETATM   21  C   UNL     1      39.856  39.612  64.024  1.00  0.00     0.119 A 
HETATM   22  N   UNL     1      40.835  38.781  63.547  1.00  0.00    -0.273 N 
HETATM   23  N   UNL     1      41.159  37.776  64.379  1.00  0.00    -0.179 NA
HETATM   24  H   UNL     1      41.333  38.871  62.667  1.00  0.00     0.189 HD
HETATM   25  C   UNL     1      40.303  37.916  65.396  1.00  0.00     0.057 A 
HETATM   26  C   UNL     1      39.438  39.016  65.198  1.00  0.00     0.065 A 
BRANCH  25  27
HETATM   27  C   UNL     1      40.335  36.981  66.562  1.00  0.00     0.065 C 
BRANCH  27  28
HETATM   28  C   UNL     1      39.992  35.530  66.173  1.00  0.00    -0.017 C 
HETATM   29  C   UNL     1      38.893  34.946  67.066  1.00  0.00     0.010 C 
HETATM   30  C   UNL     1      41.244  34.655  66.251  1.00  0.00     0.010 C 
ENDBRANCH  27  28
ENDBRANCH  25  27
ENDBRANCH   1  21
TORSDOF 3
ENDMDL
MODEL 4
REMARK VINA RESULT:      -8.7      3.707      5.846
REMARK  3 active torsions:
REMARK  status: ('A' for Active; 'I' for Inactive)
REMARK    1  A    between atoms: C_2  and  C_3 
REMARK    2  A    between atoms: C_3  and  C_4 
REMARK    3  A    between atoms: C_8  and  C_9 
REMARK       I    between atoms: C_9  and  N_10 
ROOT
HETATM    1  C   UNL     1      23.998  44.258  50.355  1.00  0.00     0.271 C 
HETATM    2  N   UNL     1      25.138  43.465  50.158  1.00  0.00    -0.347 N 
HETATM    3  C   UNL     1      26.485  43.979  49.917  1.00  0.00     0.128 C 
HETATM    4  C   UNL     1      27.564  43.139  50.588  1.00  0.00     0.055 C 
HETATM    5  C   UNL     1      27.429  41.640  50.287  1.00  0.00     0.100 C 
HETATM    6  N   UNL     1      27.739  41.407  48.850  1.00  0.00    -0.273 NA
HETATM    7  C   UNL     1      28.059  40.081  48.509  1.00  0.00     0.036 A 
HETATM    8  C   UNL     1      28.619  39.198  49.449  1.00  0.00     0.056 A 
HETATM    9  N   UNL     1      28.805  39.619  50.770  1.00  0.00    -0.324 N 
HETATM   10  C   UNL     1      28.398  40.852  51.216  1.00  0.00     0.245 C 
HETATM   11  O   UNL     1      28.709  41.223  52.349  1.00  0.00    -0.271 OA
HETATM   12  C   UNL     1      27.970  39.666  47.177  1.00  0.00     0.026 A 
HETATM   13  C   UNL     1      28.360  38.377  46.805  1.00  0.00     0.002 A 
HETATM   14  C   UNL     1      28.881  37.500  47.756  1.00  0.00     0.002 A 
HETATM   15  C   UNL     1      29.022  37.914  49.080  1.00  0.00     0.031 A 
HETATM   16  C   UNL     1      25.998  41.180  50.619  1.00  0.00     0.055 C 
HETATM   17  C   UNL     1      24.937  42.036  49.942  1.00  0.00     0.128 C 
HETATM   18  O   UNL     1      22.932  43.754  50.707  1.00  0.00    -0.266 OA
HETATM   19  H   UNL     1      27.075  41.816  48.200  1.00  0.00     0.129 HD
HETATM   20  H   UNL     1      29.346  39.061  51.415  1.00  0.00     0.169 HD
ENDROOT
BRANCH   1  21
HETATM   21  C   UNL     1      24.079  45.684  50.161  1.00  0.00     0.119 A 
HETATM   22  N   UNL     1      24.572  46.510  51.135  1.00  0.00    -0.273 N 
HETATM   23  N   UNL     1      24.617  47.808  50.788  1.00  0.00    -0.179 NA
HETATM   24  H   UNL     1      24.916  46.233  52.050  1.00  0.00     0.189 HD
HETATM   25  C   UNL     1      24.059  47.832  49.574  1.00  0.00     0.057 A 
HETATM   26  C   UNL     1      23.662  46.541  49.160  1.00  0.00     0.065 A 
BRANCH  25  27
HETATM   27  C   UNL     1      23.920  49.114  48.817  1.00  0.00     0.065 C 
BRANCH  27  28
HETATM   28  C   UNL     1      22.735  49.970  49.305  1.00  0.00    -0.017 C 
HETATM   29  C   UNL     1      21.405  49.220  49.188  1.00  0.00     0.010 C 
HETATM   30  C   UNL     1      22.667  51.275  48.511  1.00  0.00     0.010 C 
ENDBRANCH  27  28
ENDBRANCH  25  27
ENDBRANCH   1  21
TORSDOF 3
ENDMDL
MODEL 5
REMARK VINA RESULT:      -8.7      1.891      2.118
REMARK  3 active torsions:
REMARK  status: ('A' for Active; 'I' for Inactive)
REMARK    1  A    between atoms: C_2  and  C_3 
REMARK    2  A    between atoms: C_3  and  C_4 
REMARK    3  A    between atoms: C_8  and  C_9 
REMARK       I    between atoms: C_9  and  N_10 
ROOT
HETATM    1  C   UNL     1      23.967  48.366  48.924  1.00  0.00     0.271 C 
HETATM    2  N   UNL     1      24.541  47.284  49.604  1.00  0.00    -0.347 N 
HETATM    3  C   UNL     1      23.833  46.063  49.986  1.00  0.00     0.128 C 
HETATM    4  C   UNL     1      24.700  44.817  49.863  1.00  0.00     0.055 C 
HETATM    5  C   UNL     1      26.061  44.964  50.555  1.00  0.00     0.100 C 
HETATM    6  N   UNL     1      25.850  45.019  52.027  1.00  0.00    -0.273 NA
HETATM    7  C   UNL     1      26.984  44.743  52.811  1.00  0.00     0.036 A 
HETATM    8  C   UNL     1      28.026  43.929  52.331  1.00  0.00     0.056 A 
HETATM    9  N   UNL     1      27.969  43.431  51.025  1.00  0.00    -0.324 N 
HETATM   10  C   UNL     1      26.962  43.760  50.152  1.00  0.00     0.245 C 
HETATM   11  O   UNL     1      26.887  43.187  49.064  1.00  0.00    -0.271 OA
HETATM   12  C   UNL     1      27.021  45.151  54.147  1.00  0.00     0.026 A 
HETATM   13  C   UNL     1      28.103  44.816  54.965  1.00  0.00     0.002 A 
HETATM   14  C   UNL     1      29.146  44.037  54.464  1.00  0.00     0.002 A 
HETATM   15  C   UNL     1      29.103  43.581  53.147  1.00  0.00     0.031 A 
HETATM   16  C   UNL     1      26.752  46.244  50.054  1.00  0.00     0.055 C 
HETATM   17  C   UNL     1      25.867  47.476  50.182  1.00  0.00     0.128 C 
HETATM   18  O   UNL     1      24.664  49.288  48.501  1.00  0.00    -0.266 OA
HETATM   19  H   UNL     1      25.353  45.842  52.355  1.00  0.00     0.129 HD
HETATM   20  H   UNL     1      28.620  42.722  50.718  1.00  0.00     0.169 HD
ENDROOT
BRANCH   1  21
HETATM   21  C   UNL     1      22.543  48.395  48.699  1.00  0.00     0.119 A 
HETATM   22  N   UNL     1      21.678  48.848  49.660  1.00  0.00    -0.273 N 
HETATM   23  N   UNL     1      20.388  48.848  49.284  1.00  0.00    -0.179 NA
HETATM   24  H   UNL     1      21.922  49.193  50.583  1.00  0.00     0.189 HD
HETATM   25  C   UNL     1      20.411  48.301  48.065  1.00  0.00     0.057 A 
HETATM   26  C   UNL     1      21.724  47.956  47.676  1.00  0.00     0.065 A 
BRANCH  25  27
HETATM   27  C   UNL     1      19.152  48.121  47.279  1.00  0.00     0.065 C 
BRANCH  27  28
HETATM   28  C   UNL     1      18.612  49.445  46.705  1.00  0.00    -0.017 C 
HETATM   29  C   UNL     1      17.317  49.879  47.397  1.00  0.00     0.010 C 
HETATM   30  C   UNL     1      18.375  49.308  45.200  1.00  0.00     0.010 C 
ENDBRANCH  27  28
ENDBRANCH  25  27
ENDBRANCH   1  21
TORSDOF 3
ENDMDL
MODEL 6
REMARK VINA RESULT:      -8.4      5.530      8.200
REMARK  3 active torsions:
REMARK  status: ('A' for Active; 'I' for Inactive)
REMARK    1  A    between atoms: C_2  and  C_3 
REMARK    2  A    between atoms: C_3  and  C_4 
REMARK    3  A    between atoms: C_8  and  C_9 
REMARK       I    between atoms: C_9  and  N_10 
ROOT
HETATM    1  C   UNL     1      24.745  43.011  51.061  1.00  0.00     0.271 C 
HETATM    2  N   UNL     1      25.684  42.308  50.294  1.00  0.00    -0.347 N 
HETATM    3  C   UNL     1      27.135  42.411  50.443  1.00  0.00     0.128 C 
HETATM    4  C   UNL     1      27.844  41.079  50.234  1.00  0.00     0.055 C 
HETATM    5  C   UNL     1      27.422  40.373  48.939  1.00  0.00     0.100 C 
HETATM    6  N   UNL     1      27.929  41.151  47.777  1.00  0.00    -0.273 NA
HETATM    7  C   UNL     1      27.989  40.450  46.560  1.00  0.00     0.036 A 
HETATM    8  C   UNL     1      28.142  39.052  46.527  1.00  0.00     0.056 A 
HETATM    9  N   UNL     1      28.174  38.331  47.724  1.00  0.00    -0.324 N 
HETATM   10  C   UNL     1      27.991  38.924  48.948  1.00  0.00     0.245 C 
HETATM   11  O   UNL     1      28.164  38.267  49.976  1.00  0.00    -0.271 OA
HETATM   12  C   UNL     1      28.053  41.155  45.355  1.00  0.00     0.026 A 
HETATM   13  C   UNL     1      28.194  40.479  44.140  1.00  0.00     0.002 A 
HETATM   14  C   UNL     1      28.310  39.089  44.120  1.00  0.00     0.002 A 
HETATM   15  C   UNL     1      28.296  38.373  45.317  1.00  0.00     0.031 A 
HETATM   16  C   UNL     1      25.887  40.264  48.895  1.00  0.00     0.055 C 
HETATM   17  C   UNL     1      25.199  41.605  49.111  1.00  0.00     0.128 C 
HETATM   18  O   UNL     1      23.545  42.753  50.982  1.00  0.00    -0.266 OA
HETATM   19  H   UNL     1      27.511  42.070  47.665  1.00  0.00     0.129 HD
HETATM   20  H   UNL     1      28.440  37.357  47.729  1.00  0.00     0.169 HD
ENDROOT
BRANCH   1  21
HETATM   21  C   UNL     1      25.191  44.039  51.969  1.00  0.00     0.119 A 
HETATM   22  N   UNL     1      25.388  43.779  53.299  1.00  0.00    -0.273 N 
HETATM   23  N   UNL     1      25.840  44.829  54.006  1.00  0.00    -0.179 NA
HETATM   24  H   UNL     1      25.250  42.890  53.772  1.00  0.00     0.189 HD
HETATM   25  C   UNL     1      25.862  45.826  53.116  1.00  0.00     0.057 A 
HETATM   26  C   UNL     1      25.419  45.396  51.845  1.00  0.00     0.065 A 
BRANCH  25  27
HETATM   27  C   UNL     1      26.319  47.195  53.505  1.00  0.00     0.065 C 
BRANCH  27  28
HETATM   28  C   UNL     1      26.788  47.273  54.971  1.00  0.00    -0.017 C 
HETATM   29  C   UNL     1      26.355  48.582  55.637  1.00  0.00     0.010 C 
HETATM   30  C   UNL     1      28.309  47.132  55.044  1.00  0.00     0.010 C 
ENDBRANCH  27  28
ENDBRANCH  25  27
ENDBRANCH   1  21
TORSDOF 3
ENDMDL
MODEL 7
REMARK VINA RESULT:      -8.3      4.054     11.054
REMARK  3 active torsions:
REMARK  status: ('A' for Active; 'I' for Inactive)
REMARK    1  A    between atoms: C_2  and  C_3 
REMARK    2  A    between atoms: C_3  and  C_4 
REMARK    3  A    between atoms: C_8  and  C_9 
REMARK       I    between atoms: C_9  and  N_10 
ROOT
HETATM    1  C   UNL     1      19.858  49.414  49.356  1.00  0.00     0.271 C 
HETATM    2  N   UNL     1      18.974  50.478  49.132  1.00  0.00    -0.347 N 
HETATM    3  C   UNL     1      19.355  51.790  48.612  1.00  0.00     0.128 C 
HETATM    4  C   UNL     1      18.308  52.379  47.675  1.00  0.00     0.055 C 
HETATM    5  C   UNL     1      16.893  52.357  48.270  1.00  0.00     0.100 C 
HETATM    6  N   UNL     1      16.832  53.316  49.406  1.00  0.00    -0.273 NA
HETATM    7  C   UNL     1      15.540  53.716  49.789  1.00  0.00     0.036 A 
HETATM    8  C   UNL     1      14.472  53.719  48.874  1.00  0.00     0.056 A 
HETATM    9  N   UNL     1      14.677  53.257  47.570  1.00  0.00    -0.324 N 
HETATM   10  C   UNL     1      15.873  52.727  47.154  1.00  0.00     0.245 C 
HETATM   11  O   UNL     1      16.041  52.461  45.962  1.00  0.00    -0.271 OA
HETATM   12  C   UNL     1      15.332  54.270  51.056  1.00  0.00     0.026 A 
HETATM   13  C   UNL     1      14.072  54.748  51.426  1.00  0.00     0.002 A 
HETATM   14  C   UNL     1      13.013  54.712  50.519  1.00  0.00     0.002 A 
HETATM   15  C   UNL     1      13.216  54.207  49.234  1.00  0.00     0.031 A 
HETATM   16  C   UNL     1      16.561  50.929  48.742  1.00  0.00     0.055 C 
HETATM   17  C   UNL     1      17.623  50.359  49.672  1.00  0.00     0.128 C 
HETATM   18  O   UNL     1      19.438  48.294  49.647  1.00  0.00    -0.266 OA
HETATM   19  H   UNL     1      17.404  53.065  50.207  1.00  0.00     0.129 HD
HETATM   20  H   UNL     1      13.974  53.397  46.859  1.00  0.00     0.169 HD
ENDROOT
BRANCH   1  21
HETATM   21  C   UNL     1      21.278  49.627  49.228  1.00  0.00     0.119 A 
HETATM   22  N   UNL     1      21.944  50.507  50.039  1.00  0.00    -0.273 N 
HETATM   23  N   UNL     1      23.269  50.564  49.821  1.00  0.00    -0.179 NA
HETATM   24  H   UNL     1      21.541  51.077  50.777  1.00  0.00     0.189 HD
HETATM   25  C   UNL     1      23.456  49.750  48.778  1.00  0.00     0.057 A 
HETATM   26  C   UNL     1      22.239  49.180  48.340  1.00  0.00     0.065 A 
BRANCH  25  27
HETATM   27  C   UNL     1      24.821  49.524  48.213  1.00  0.00     0.065 C 
BRANCH  27  28
HETATM   28  C   UNL     1      25.840  49.070  49.277  1.00  0.00    -0.017 C 
HETATM   29  C   UNL     1      27.280  49.185  48.770  1.00  0.00     0.010 C 
HETATM   30  C   UNL     1      25.551  47.628  49.699  1.00  0.00     0.010 C 
ENDBRANCH  27  28
ENDBRANCH  25  27
ENDBRANCH   1  21
TORSDOF 3
ENDMDL
MODEL 8
REMARK VINA RESULT:      -8.2      5.301      8.750
REMARK  3 active torsions:
REMARK  status: ('A' for Active; 'I' for Inactive)
REMARK    1  A    between atoms: C_2  and  C_3 
REMARK    2  A    between atoms: C_3  and  C_4 
REMARK    3  A    between atoms: C_8  and  C_9 
REMARK       I    between atoms: C_9  and  N_10 
ROOT
HETATM    1  C   UNL     1      15.673  52.375  47.836  1.00  0.00     0.271 C 
HETATM    2  N   UNL     1      16.841  51.807  48.364  1.00  0.00    -0.347 N 
HETATM    3  C   UNL     1      17.303  51.967  49.742  1.00  0.00     0.128 C 
HETATM    4  C   UNL     1      17.947  50.703  50.297  1.00  0.00     0.055 C 
HETATM    5  C   UNL     1      19.020  50.121  49.368  1.00  0.00     0.100 C 
HETATM    6  N   UNL     1      20.186  51.045  49.337  1.00  0.00    -0.273 NA
HETATM    7  C   UNL     1      21.390  50.483  48.877  1.00  0.00     0.036 A 
HETATM    8  C   UNL     1      21.651  49.107  49.003  1.00  0.00     0.056 A 
HETATM    9  N   UNL     1      20.672  48.263  49.537  1.00  0.00    -0.324 N 
HETATM   10  C   UNL     1      19.423  48.710  49.888  1.00  0.00     0.245 C 
HETATM   11  O   UNL     1      18.649  47.955  50.479  1.00  0.00    -0.271 OA
HETATM   12  C   UNL     1      22.417  51.317  48.427  1.00  0.00     0.026 A 
HETATM   13  C   UNL     1      23.651  50.784  48.043  1.00  0.00     0.002 A 
HETATM   14  C   UNL     1      23.882  49.412  48.140  1.00  0.00     0.002 A 
HETATM   15  C   UNL     1      22.885  48.571  48.632  1.00  0.00     0.031 A 
HETATM   16  C   UNL     1      18.429  49.940  47.958  1.00  0.00     0.055 C 
HETATM   17  C   UNL     1      17.786  51.213  47.425  1.00  0.00     0.128 C 
HETATM   18  O   UNL     1      15.272  52.066  46.714  1.00  0.00    -0.266 OA
HETATM   19  H   UNL     1      20.001  51.948  48.911  1.00  0.00     0.129 HD
HETATM   20  H   UNL     1      20.896  47.309  49.781  1.00  0.00     0.169 HD
ENDROOT
BRANCH   1  21
HETATM   21  C   UNL     1      14.920  53.320  48.623  1.00  0.00     0.119 A 
HETATM   22  N   UNL     1      14.846  54.641  48.272  1.00  0.00    -0.273 N 
HETATM   23  N   UNL     1      14.075  55.385  49.084  1.00  0.00    -0.179 NA
HETATM   24  H   UNL     1      15.286  55.083  47.470  1.00  0.00     0.189 HD
HETATM   25  C   UNL     1      13.700  54.530  50.040  1.00  0.00     0.057 A 
HETATM   26  C   UNL     1      14.241  53.242  49.824  1.00  0.00     0.065 A 
BRANCH  25  27
HETATM   27  C   UNL     1      12.810  54.967  51.158  1.00  0.00     0.065 C 
BRANCH  27  28
HETATM   28  C   UNL     1      13.459  56.042  52.052  1.00  0.00    -0.017 C 
HETATM   29  C   UNL     1      14.780  55.557  52.656  1.00  0.00     0.010 C 
HETATM   30  C   UNL     1      12.496  56.449  53.168  1.00  0.00     0.010 C 
ENDBRANCH  27  28
ENDBRANCH  25  27
ENDBRANCH   1  21
TORSDOF 3
ENDMDL
MODEL 9
REMARK VINA RESULT:      -8.2      2.436      8.756
REMARK  3 active torsions:
REMARK  status: ('A' for Active; 'I' for Inactive)
REMARK    1  A    between atoms: C_2  and  C_3 
REMARK    2  A    between atoms: C_3  and  C_4 
REMARK    3  A    between atoms: C_8  and  C_9 
REMARK       I    between atoms: C_9  and  N_10 
ROOT
HETATM    1  C   UNL     1      23.016  44.375  47.774  1.00  0.00     0.271 C 
HETATM    2  N   UNL     1      22.766  45.700  48.156  1.00  0.00    -0.347 N 
HETATM    3  C   UNL     1      23.505  46.431  49.184  1.00  0.00     0.128 C 
HETATM    4  C   UNL     1      23.706  47.899  48.833  1.00  0.00     0.055 C 
HETATM    5  C   UNL     1      22.405  48.599  48.417  1.00  0.00     0.100 C 
HETATM    6  N   UNL     1      21.514  48.708  49.604  1.00  0.00    -0.273 NA
HETATM    7  C   UNL     1      20.487  49.662  49.502  1.00  0.00     0.036 A 
HETATM    8  C   UNL     1      20.617  50.794  48.677  1.00  0.00     0.056 A 
HETATM    9  N   UNL     1      21.762  50.948  47.890  1.00  0.00    -0.324 N 
HETATM   10  C   UNL     1      22.752  49.999  47.832  1.00  0.00     0.245 C 
HETATM   11  O   UNL     1      23.799  50.245  47.231  1.00  0.00    -0.271 OA
HETATM   12  C   UNL     1      19.376  49.579  50.347  1.00  0.00     0.026 A 
HETATM   13  C   UNL     1      18.383  50.562  50.317  1.00  0.00     0.002 A 
HETATM   14  C   UNL     1      18.509  51.660  49.467  1.00  0.00     0.002 A 
HETATM   15  C   UNL     1      19.634  51.784  48.653  1.00  0.00     0.031 A 
HETATM   16  C   UNL     1      21.726  47.788  47.298  1.00  0.00     0.055 C 
HETATM   17  C   UNL     1      21.540  46.323  47.668  1.00  0.00     0.128 C 
HETATM   18  O   UNL     1      22.457  43.883  46.795  1.00  0.00    -0.266 OA
HETATM   19  H   UNL     1      21.175  47.822  49.965  1.00  0.00     0.129 HD
HETATM   20  H   UNL     1      21.946  51.821  47.416  1.00  0.00     0.169 HD
ENDROOT
BRANCH   1  21
HETATM   21  C   UNL     1      23.955  43.580  48.527  1.00  0.00     0.119 A 
HETATM   22  N   UNL     1      24.912  42.825  47.903  1.00  0.00    -0.273 N 
HETATM   23  N   UNL     1      25.734  42.172  48.743  1.00  0.00    -0.179 NA
HETATM   24  H   UNL     1      25.062  42.740  46.902  1.00  0.00     0.189 HD
HETATM   25  C   UNL     1      25.242  42.454  49.953  1.00  0.00     0.057 A 
HETATM   26  C   UNL     1      24.104  43.287  49.869  1.00  0.00     0.065 A 
BRANCH  25  27
HETATM   27  C   UNL     1      25.886  41.914  51.190  1.00  0.00     0.065 C 
BRANCH  27  28
HETATM   28  C   UNL     1      27.378  42.283  51.295  1.00  0.00    -0.017 C 
HETATM   29  C   UNL     1      28.085  41.485  52.395  1.00  0.00     0.010 C 
HETATM   30  C   UNL     1      27.532  43.781  51.561  1.00  0.00     0.010 C 
ENDBRANCH  27  28
ENDBRANCH  25  27
ENDBRANCH   1  21
TORSDOF 3
ENDMDL
MODEL 10
REMARK VINA RESULT:      -8.0     12.179     15.146
REMARK  3 active torsions:
REMARK  status: ('A' for Active; 'I' for Inactive)
REMARK    1  A    between atoms: C_2  and  C_3 
REMARK    2  A    between atoms: C_3  and  C_4 
REMARK    3  A    between atoms: C_8  and  C_9 
REMARK       I    between atoms: C_9  and  N_10 
ROOT
HETATM    1  C   UNL     1      36.410  52.225  41.831  1.00  0.00     0.271 C 
HETATM    2  N   UNL     1      35.106  51.712  41.815  1.00  0.00    -0.347 N 
HETATM    3  C   UNL     1      34.386  51.214  42.985  1.00  0.00     0.128 C 
HETATM    4  C   UNL     1      32.901  51.553  42.951  1.00  0.00     0.055 C 
HETATM    5  C   UNL     1      32.230  51.171  41.625  1.00  0.00     0.100 C 
HETATM    6  N   UNL     1      32.186  49.688  41.516  1.00  0.00    -0.273 NA
HETATM    7  C   UNL     1      31.262  49.178  40.588  1.00  0.00     0.036 A 
HETATM    8  C   UNL     1      30.101  49.893  40.241  1.00  0.00     0.056 A 
HETATM    9  N   UNL     1      29.886  51.166  40.779  1.00  0.00    -0.324 N 
HETATM   10  C   UNL     1      30.802  51.790  41.589  1.00  0.00     0.245 C 
HETATM   11  O   UNL     1      30.504  52.849  42.143  1.00  0.00    -0.271 OA
HETATM   12  C   UNL     1      31.406  47.872  40.110  1.00  0.00     0.026 A 
HETATM   13  C   UNL     1      30.454  47.318  39.250  1.00  0.00     0.002 A 
HETATM   14  C   UNL     1      29.326  48.053  38.887  1.00  0.00     0.002 A 
HETATM   15  C   UNL     1      29.141  49.340  39.392  1.00  0.00     0.031 A 
HETATM   16  C   UNL     1      33.026  51.781  40.457  1.00  0.00     0.055 C 
HETATM   17  C   UNL     1      34.507  51.433  40.514  1.00  0.00     0.128 C 
HETATM   18  O   UNL     1      36.888  52.768  40.836  1.00  0.00    -0.266 OA
HETATM   19  H   UNL     1      33.094  49.240  41.433  1.00  0.00     0.129 HD
HETATM   20  H   UNL     1      28.993  51.625  40.669  1.00  0.00     0.169 HD
ENDROOT
BRANCH   1  21
HETATM   21  C   UNL     1      37.199  52.133  43.035  1.00  0.00     0.119 A 
HETATM   22  N   UNL     1      37.684  50.932  43.479  1.00  0.00    -0.273 N 
HETATM   23  N   UNL     1      38.431  51.017  44.593  1.00  0.00    -0.179 NA
HETATM   24  H   UNL     1      37.553  50.024  43.043  1.00  0.00     0.189 HD
HETATM   25  C   UNL     1      38.362  52.310  44.925  1.00  0.00     0.057 A 
HETATM   26  C   UNL     1      37.565  53.037  44.013  1.00  0.00     0.065 A 
BRANCH  25  27
HETATM   27  C   UNL     1      39.078  52.834  46.128  1.00  0.00     0.065 C 
BRANCH  27  28
HETATM   28  C   UNL     1      38.372  54.049  46.761  1.00  0.00    -0.017 C 
HETATM   29  C   UNL     1      39.075  55.363  46.408  1.00  0.00     0.010 C 
HETATM   30  C   UNL     1      38.307  53.887  48.280  1.00  0.00     0.010 C 
ENDBRANCH  27  28
ENDBRANCH  25  27
ENDBRANCH   1  21
TORSDOF 3
ENDMDL
