MODEL 1
REMARK VINA RESULT:      -9.2      0.000      0.000
REMARK  10 active torsions:
REMARK  status: ('A' for Active; 'I' for Inactive)
REMARK    1  A    between atoms: N_7  and  C_8 
REMARK    2  A    between atoms: C_8  and  C_9 
REMARK       I    between atoms: C_9  and  N_10 
REMARK    3  A    between atoms: N_10  and  C_11 
REMARK    4  A    between atoms: C_11  and  C_12 
REMARK    5  A    between atoms: C_12  and  C_13 
REMARK    6  A    between atoms: C_13  and  C_14 
REMARK       I    between atoms: C_14  and  N_15 
REMARK    7  A    between atoms: N_15  and  C_16 
REMARK    8  A    between atoms: C_16  and  C_17 
REMARK    9  A    between atoms: C_17  and  C_18 
REMARK   10  A    between atoms: C_18  and  N_19 
ROOT
HETATM    1  C   UNL     1      25.101  46.108  49.462  1.00  0.00     0.123 C 
ENDROOT
BRANCH   1   2
HETATM    2  N   UNL     1      25.145  44.913  50.278  1.00  0.00    -0.360 N 
HETATM    3  C   UNL     1      26.235  44.065  50.264  1.00  0.00     0.235 C 
HETATM    4  O   UNL     1      27.216  44.259  49.551  1.00  0.00    -0.272 OA
HETATM    5  H   UNL     1      24.325  44.670  50.822  1.00  0.00     0.162 HD
BRANCH   3   6
HETATM    6  C   UNL     1      26.145  42.915  51.266  1.00  0.00     0.235 C 
BRANCH   6   7
HETATM    7  N   UNL     1      27.184  43.040  52.270  1.00  0.00    -0.299 N 
HETATM    8  C   UNL     1      28.175  42.081  52.368  1.00  0.00     0.214 A 
HETATM    9  N   UNL     1      29.163  42.104  53.202  1.00  0.00    -0.235 NA
HETATM   10  C   UNL     1      29.173  43.181  54.025  1.00  0.00     0.115 A 
HETATM   11  C   UNL     1      28.234  44.187  54.083  1.00  0.00     0.075 A 
HETATM   12  S   UNL     1      30.429  43.429  55.144  1.00  0.00    -0.074 SA
HETATM   13  C   UNL     1      28.539  45.185  55.079  1.00  0.00    -0.031 A 
HETATM   14  C   UNL     1      27.114  44.110  53.158  1.00  0.00     0.262 A 
HETATM   15  C   UNL     1      27.683  46.377  55.363  1.00  0.00     0.050 C 
HETATM   16  C   UNL     1      29.745  44.896  55.704  1.00  0.00    -0.012 A 
HETATM   17  C   UNL     1      30.465  45.671  56.760  1.00  0.00     0.057 C 
HETATM   18  O   UNL     1      26.188  44.920  53.158  1.00  0.00    -0.267 OA
ENDBRANCH   6   7
ENDBRANCH   3   6
ENDBRANCH   1   2
BRANCH   1  19
HETATM   19  C   UNL     1      25.574  47.345  50.221  1.00  0.00     0.029 C 
BRANCH  19  20
HETATM   20  C   UNL     1      26.598  48.122  49.401  1.00  0.00     0.104 C 
BRANCH  20  21
HETATM   21  C   UNL     1      25.964  49.263  48.639  1.00  0.00     0.217 C 
HETATM   22  N   UNL     1      24.589  49.311  48.706  1.00  0.00    -0.361 N 
HETATM   23  H   UNL     1      24.112  48.521  49.134  1.00  0.00     0.162 HD
HETATM   24  O   UNL     1      26.625  50.093  48.020  1.00  0.00    -0.274 OA
BRANCH  22  25
HETATM   25  C   UNL     1      23.807  50.189  47.861  1.00  0.00     0.124 C 
BRANCH  25  26
HETATM   26  C   UNL     1      22.732  50.982  48.613  1.00  0.00     0.047 C 
BRANCH  26  27
HETATM   27  C   UNL     1      22.349  50.338  49.944  1.00  0.00     0.236 C 
BRANCH  27  28
HETATM   28  N   UNL     1      20.834  50.288  50.124  1.00  0.00    -0.070 N 
HETATM   29  H   UNL     1      20.655  50.278  51.136  1.00  0.00     0.279 HD
HETATM   30  C   UNL     1      20.131  51.486  49.528  1.00  0.00     0.239 C 
HETATM   31  C   UNL     1      18.629  51.400  49.809  1.00  0.00     0.008 C 
HETATM   32  C   UNL     1      18.044  50.084  49.286  1.00  0.00     0.011 C 
HETATM   33  C   UNL     1      17.907  52.593  49.182  1.00  0.00     0.011 C 
HETATM   34  C   UNL     1      18.796  48.855  49.811  1.00  0.00     0.008 C 
HETATM   35  C   UNL     1      20.299  48.987  49.555  1.00  0.00     0.239 C 
HETATM   36  C   UNL     1      18.484  48.583  51.286  1.00  0.00     0.011 C 
ENDBRANCH  27  28
ENDBRANCH  26  27
ENDBRANCH  25  26
ENDBRANCH  22  25
ENDBRANCH  20  21
ENDBRANCH  19  20
ENDBRANCH   1  19
TORSDOF 10
ENDMDL
MODEL 2
REMARK VINA RESULT:      -8.6      2.463      3.888
REMARK  10 active torsions:
REMARK  status: ('A' for Active; 'I' for Inactive)
REMARK    1  A    between atoms: N_7  and  C_8 
REMARK    2  A    between atoms: C_8  and  C_9 
REMARK       I    between atoms: C_9  and  N_10 
REMARK    3  A    between atoms: N_10  and  C_11 
REMARK    4  A    between atoms: C_11  and  C_12 
REMARK    5  A    between atoms: C_12  and  C_13 
REMARK    6  A    between atoms: C_13  and  C_14 
REMARK       I    between atoms: C_14  and  N_15 
REMARK    7  A    between atoms: N_15  and  C_16 
REMARK    8  A    between atoms: C_16  and  C_17 
REMARK    9  A    between atoms: C_17  and  C_18 
REMARK   10  A    between atoms: C_18  and  N_19 
ROOT
HETATM    1  C   UNL     1      24.434  42.827  50.938  1.00  0.00     0.123 C 
ENDROOT
BRANCH   1   2
HETATM    2  N   UNL     1      25.056  44.113  51.174  1.00  0.00    -0.360 N 
HETATM    3  C   UNL     1      25.093  44.679  52.435  1.00  0.00     0.235 C 
HETATM    4  O   UNL     1      24.588  44.142  53.417  1.00  0.00    -0.272 OA
HETATM    5  H   UNL     1      25.414  44.629  50.380  1.00  0.00     0.162 HD
BRANCH   3   6
HETATM    6  C   UNL     1      25.881  45.986  52.509  1.00  0.00     0.235 C 
BRANCH   6   7
HETATM    7  N   UNL     1      26.882  45.911  53.556  1.00  0.00    -0.299 N 
HETATM    8  C   UNL     1      26.877  46.830  54.588  1.00  0.00     0.214 A 
HETATM    9  N   UNL     1      27.699  46.843  55.587  1.00  0.00    -0.235 NA
HETATM   10  C   UNL     1      28.621  45.849  55.563  1.00  0.00     0.115 A 
HETATM   11  C   UNL     1      28.784  44.895  54.583  1.00  0.00     0.075 A 
HETATM   12  S   UNL     1      29.745  45.654  56.824  1.00  0.00    -0.074 SA
HETATM   13  C   UNL     1      29.867  43.984  54.860  1.00  0.00    -0.031 A 
HETATM   14  C   UNL     1      27.868  44.933  53.453  1.00  0.00     0.262 A 
HETATM   15  C   UNL     1      30.272  42.863  53.958  1.00  0.00     0.050 C 
HETATM   16  C   UNL     1      30.450  44.278  56.085  1.00  0.00    -0.012 A 
HETATM   17  C   UNL     1      31.567  43.575  56.787  1.00  0.00     0.057 C 
HETATM   18  O   UNL     1      27.955  44.169  52.494  1.00  0.00    -0.267 OA
ENDBRANCH   6   7
ENDBRANCH   3   6
ENDBRANCH   1   2
BRANCH   1  19
HETATM   19  C   UNL     1      24.218  42.554  49.451  1.00  0.00     0.029 C 
BRANCH  19  20
HETATM   20  C   UNL     1      22.839  43.030  49.011  1.00  0.00     0.104 C 
BRANCH  20  21
HETATM   21  C   UNL     1      22.883  44.419  48.416  1.00  0.00     0.217 C 
HETATM   22  N   UNL     1      21.810  44.740  47.615  1.00  0.00    -0.361 N 
HETATM   23  H   UNL     1      21.160  43.994  47.380  1.00  0.00     0.162 HD
HETATM   24  O   UNL     1      23.796  45.208  48.643  1.00  0.00    -0.274 OA
BRANCH  22  25
HETATM   25  C   UNL     1      21.793  45.929  46.787  1.00  0.00     0.124 C 
BRANCH  25  26
HETATM   26  C   UNL     1      20.418  46.597  46.683  1.00  0.00     0.047 C 
BRANCH  26  27
HETATM   27  C   UNL     1      20.028  47.341  47.958  1.00  0.00     0.236 C 
BRANCH  27  28
HETATM   28  N   UNL     1      20.638  48.739  47.998  1.00  0.00    -0.070 N 
HETATM   29  H   UNL     1      21.066  48.904  47.079  1.00  0.00     0.279 HD
HETATM   30  C   UNL     1      19.611  49.822  48.244  1.00  0.00     0.239 C 
HETATM   31  C   UNL     1      20.283  51.196  48.201  1.00  0.00     0.008 C 
HETATM   32  C   UNL     1      21.440  51.276  49.202  1.00  0.00     0.011 C 
HETATM   33  C   UNL     1      19.257  52.294  48.480  1.00  0.00     0.011 C 
HETATM   34  C   UNL     1      22.452  50.138  49.026  1.00  0.00     0.008 C 
HETATM   35  C   UNL     1      21.748  48.780  49.031  1.00  0.00     0.239 C 
HETATM   36  C   UNL     1      23.318  50.333  47.778  1.00  0.00     0.011 C 
ENDBRANCH  27  28
ENDBRANCH  26  27
ENDBRANCH  25  26
ENDBRANCH  22  25
ENDBRANCH  20  21
ENDBRANCH  19  20
ENDBRANCH   1  19
TORSDOF 10
ENDMDL
MODEL 3
REMARK VINA RESULT:      -8.6      2.567      3.912
REMARK  10 active torsions:
REMARK  status: ('A' for Active; 'I' for Inactive)
REMARK    1  A    between atoms: N_7  and  C_8 
REMARK    2  A    between atoms: C_8  and  C_9 
REMARK       I    between atoms: C_9  and  N_10 
REMARK    3  A    between atoms: N_10  and  C_11 
REMARK    4  A    between atoms: C_11  and  C_12 
REMARK    5  A    between atoms: C_12  and  C_13 
REMARK    6  A    between atoms: C_13  and  C_14 
REMARK       I    between atoms: C_14  and  N_15 
REMARK    7  A    between atoms: N_15  and  C_16 
REMARK    8  A    between atoms: C_16  and  C_17 
REMARK    9  A    between atoms: C_17  and  C_18 
REMARK   10  A    between atoms: C_18  and  N_19 
ROOT
HETATM    1  C   UNL     1      24.226  48.367  49.378  1.00  0.00     0.123 C 
ENDROOT
BRANCH   1   2
HETATM    2  N   UNL     1      24.214  47.266  50.318  1.00  0.00    -0.360 N 
HETATM    3  C   UNL     1      25.333  46.931  51.056  1.00  0.00     0.235 C 
HETATM    4  O   UNL     1      26.401  47.528  50.947  1.00  0.00    -0.272 OA
HETATM    5  H   UNL     1      23.379  46.696  50.382  1.00  0.00     0.162 HD
BRANCH   3   6
HETATM    6  C   UNL     1      25.101  45.812  52.069  1.00  0.00     0.235 C 
BRANCH   6   7
HETATM    7  N   UNL     1      26.161  45.801  53.059  1.00  0.00    -0.299 N 
HETATM    8  C   UNL     1      26.202  46.769  54.044  1.00  0.00     0.214 A 
HETATM    9  N   UNL     1      27.078  46.841  54.992  1.00  0.00    -0.235 NA
HETATM   10  C   UNL     1      28.012  45.857  54.964  1.00  0.00     0.115 A 
HETATM   11  C   UNL     1      28.132  44.858  54.024  1.00  0.00     0.075 A 
HETATM   12  S   UNL     1      29.208  45.738  56.166  1.00  0.00    -0.074 SA
HETATM   13  C   UNL     1      29.242  43.974  54.282  1.00  0.00    -0.031 A 
HETATM   14  C   UNL     1      27.153  44.830  52.948  1.00  0.00     0.262 A 
HETATM   15  C   UNL     1      29.611  42.815  53.414  1.00  0.00     0.050 C 
HETATM   16  C   UNL     1      29.889  44.335  55.456  1.00  0.00    -0.012 A 
HETATM   17  C   UNL     1      31.054  43.681  56.126  1.00  0.00     0.057 C 
HETATM   18  O   UNL     1      27.196  44.020  52.023  1.00  0.00    -0.267 OA
ENDBRANCH   6   7
ENDBRANCH   3   6
ENDBRANCH   1   2
BRANCH   1  19
HETATM   19  C   UNL     1      22.822  48.748  48.915  1.00  0.00     0.029 C 
BRANCH  19  20
HETATM   20  C   UNL     1      22.569  50.236  49.128  1.00  0.00     0.104 C 
BRANCH  20  21
HETATM   21  C   UNL     1      21.105  50.535  49.355  1.00  0.00     0.217 C 
HETATM   22  N   UNL     1      20.532  49.856  50.407  1.00  0.00    -0.361 N 
HETATM   23  H   UNL     1      21.084  49.125  50.851  1.00  0.00     0.162 HD
HETATM   24  O   UNL     1      20.478  51.334  48.664  1.00  0.00    -0.274 OA
BRANCH  22  25
HETATM   25  C   UNL     1      19.101  49.844  50.629  1.00  0.00     0.124 C 
BRANCH  25  26
HETATM   26  C   UNL     1      18.441  48.485  50.370  1.00  0.00     0.047 C 
BRANCH  26  27
HETATM   27  C   UNL     1      18.256  48.196  48.882  1.00  0.00     0.236 C 
BRANCH  27  28
HETATM   28  N   UNL     1      17.835  49.448  48.118  1.00  0.00    -0.070 N 
HETATM   29  H   UNL     1      18.237  50.251  48.616  1.00  0.00     0.279 HD
HETATM   30  C   UNL     1      18.345  49.468  46.694  1.00  0.00     0.239 C 
HETATM   31  C   UNL     1      17.944  50.780  46.017  1.00  0.00     0.008 C 
HETATM   32  C   UNL     1      16.427  50.991  46.076  1.00  0.00     0.011 C 
HETATM   33  C   UNL     1      18.429  50.794  44.567  1.00  0.00     0.011 C 
HETATM   34  C   UNL     1      15.874  50.891  47.503  1.00  0.00     0.008 C 
HETATM   35  C   UNL     1      16.325  49.590  48.170  1.00  0.00     0.239 C 
HETATM   36  C   UNL     1      16.230  52.122  48.340  1.00  0.00     0.011 C 
ENDBRANCH  27  28
ENDBRANCH  26  27
ENDBRANCH  25  26
ENDBRANCH  22  25
ENDBRANCH  20  21
ENDBRANCH  19  20
ENDBRANCH   1  19
TORSDOF 10
ENDMDL
MODEL 4
REMARK VINA RESULT:      -8.5      2.140      3.249
REMARK  10 active torsions:
REMARK  status: ('A' for Active; 'I' for Inactive)
REMARK    1  A    between atoms: N_7  and  C_8 
REMARK    2  A    between atoms: C_8  and  C_9 
REMARK       I    between atoms: C_9  and  N_10 
REMARK    3  A    between atoms: N_10  and  C_11 
REMARK    4  A    between atoms: C_11  and  C_12 
REMARK    5  A    between atoms: C_12  and  C_13 
REMARK    6  A    between atoms: C_13  and  C_14 
REMARK       I    between atoms: C_14  and  N_15 
REMARK    7  A    between atoms: N_15  and  C_16 
REMARK    8  A    between atoms: C_16  and  C_17 
REMARK    9  A    between atoms: C_17  and  C_18 
REMARK   10  A    between atoms: C_18  and  N_19 
ROOT
HETATM    1  C   UNL     1      24.541  46.219  49.281  1.00  0.00     0.123 C 
ENDROOT
BRANCH   1   2
HETATM    2  N   UNL     1      25.106  45.180  50.115  1.00  0.00    -0.360 N 
HETATM    3  C   UNL     1      24.310  44.248  50.752  1.00  0.00     0.235 C 
HETATM    4  O   UNL     1      23.084  44.255  50.668  1.00  0.00    -0.272 OA
HETATM    5  H   UNL     1      26.107  45.183  50.278  1.00  0.00     0.162 HD
BRANCH   3   6
HETATM    6  C   UNL     1      25.088  43.168  51.501  1.00  0.00     0.235 C 
BRANCH   6   7
HETATM    7  N   UNL     1      25.921  43.767  52.526  1.00  0.00    -0.299 N 
HETATM    8  C   UNL     1      25.404  44.737  53.364  1.00  0.00     0.214 A 
HETATM    9  N   UNL     1      26.041  45.317  54.327  1.00  0.00    -0.235 NA
HETATM   10  C   UNL     1      27.322  44.899  54.479  1.00  0.00     0.115 A 
HETATM   11  C   UNL     1      27.992  43.984  53.697  1.00  0.00     0.075 A 
HETATM   12  S   UNL     1      28.303  45.490  55.735  1.00  0.00    -0.074 SA
HETATM   13  C   UNL     1      29.352  43.767  54.125  1.00  0.00    -0.031 A 
HETATM   14  C   UNL     1      27.257  43.380  52.596  1.00  0.00     0.262 A 
HETATM   15  C   UNL     1      30.307  42.838  53.448  1.00  0.00     0.050 C 
HETATM   16  C   UNL     1      29.630  44.514  55.262  1.00  0.00    -0.012 A 
HETATM   17  C   UNL     1      30.888  44.568  56.067  1.00  0.00     0.057 C 
HETATM   18  O   UNL     1      27.769  42.595  51.800  1.00  0.00    -0.267 OA
ENDBRANCH   6   7
ENDBRANCH   3   6
ENDBRANCH   1   2
BRANCH   1  19
HETATM   19  C   UNL     1      24.199  47.477  50.076  1.00  0.00     0.029 C 
BRANCH  19  20
HETATM   20  C   UNL     1      23.587  48.538  49.169  1.00  0.00     0.104 C 
BRANCH  20  21
HETATM   21  C   UNL     1      22.327  48.048  48.495  1.00  0.00     0.217 C 
HETATM   22  N   UNL     1      21.277  47.789  49.348  1.00  0.00    -0.361 N 
HETATM   23  H   UNL     1      21.467  47.813  50.347  1.00  0.00     0.162 HD
HETATM   24  O   UNL     1      22.239  47.907  47.278  1.00  0.00    -0.274 OA
BRANCH  22  25
HETATM   25  C   UNL     1      20.078  47.104  48.910  1.00  0.00     0.124 C 
BRANCH  25  26
HETATM   26  C   UNL     1      18.810  47.525  49.660  1.00  0.00     0.047 C 
BRANCH  26  27
HETATM   27  C   UNL     1      17.836  48.304  48.778  1.00  0.00     0.236 C 
BRANCH  27  28
HETATM   28  N   UNL     1      18.449  49.616  48.294  1.00  0.00    -0.070 N 
HETATM   29  H   UNL     1      19.327  49.377  47.818  1.00  0.00     0.279 HD
HETATM   30  C   UNL     1      17.562  50.352  47.315  1.00  0.00     0.239 C 
HETATM   31  C   UNL     1      18.269  51.616  46.823  1.00  0.00     0.008 C 
HETATM   32  C   UNL     1      18.681  52.512  47.997  1.00  0.00     0.011 C 
HETATM   33  C   UNL     1      17.367  52.384  45.857  1.00  0.00     0.011 C 
HETATM   34  C   UNL     1      19.512  51.763  49.046  1.00  0.00     0.008 C 
HETATM   35  C   UNL     1      18.800  50.483  49.489  1.00  0.00     0.239 C 
HETATM   36  C   UNL     1      20.937  51.490  48.557  1.00  0.00     0.011 C 
ENDBRANCH  27  28
ENDBRANCH  26  27
ENDBRANCH  25  26
ENDBRANCH  22  25
ENDBRANCH  20  21
ENDBRANCH  19  20
ENDBRANCH   1  19
TORSDOF 10
ENDMDL
MODEL 5
REMARK VINA RESULT:      -8.4      2.585      4.061
REMARK  10 active torsions:
REMARK  status: ('A' for Active; 'I' for Inactive)
REMARK    1  A    between atoms: N_7  and  C_8 
REMARK    2  A    between atoms: C_8  and  C_9 
REMARK       I    between atoms: C_9  and  N_10 
REMARK    3  A    between atoms: N_10  and  C_11 
REMARK    4  A    between atoms: C_11  and  C_12 
REMARK    5  A    between atoms: C_12  and  C_13 
REMARK    6  A    between atoms: C_13  and  C_14 
REMARK       I    between atoms: C_14  and  N_15 
REMARK    7  A    between atoms: N_15  and  C_16 
REMARK    8  A    between atoms: C_16  and  C_17 
REMARK    9  A    between atoms: C_17  and  C_18 
REMARK   10  A    between atoms: C_18  and  N_19 
ROOT
HETATM    1  C   UNL     1      23.527  46.692  49.204  1.00  0.00     0.123 C 
ENDROOT
BRANCH   1   2
HETATM    2  N   UNL     1      23.741  45.609  50.140  1.00  0.00    -0.360 N 
HETATM    3  C   UNL     1      24.973  44.997  50.271  1.00  0.00     0.235 C 
HETATM    4  O   UNL     1      25.947  45.318  49.596  1.00  0.00    -0.272 OA
HETATM    5  H   UNL     1      22.946  45.257  50.661  1.00  0.00     0.162 HD
BRANCH   3   6
HETATM    6  C   UNL     1      25.035  43.947  51.379  1.00  0.00     0.235 C 
BRANCH   6   7
HETATM    7  N   UNL     1      25.962  44.361  52.415  1.00  0.00    -0.299 N 
HETATM    8  C   UNL     1      25.632  45.397  53.269  1.00  0.00     0.214 A 
HETATM    9  N   UNL     1      26.365  45.830  54.242  1.00  0.00    -0.235 NA
HETATM   10  C   UNL     1      27.543  45.176  54.388  1.00  0.00     0.115 A 
HETATM   11  C   UNL     1      28.031  44.164  53.591  1.00  0.00     0.075 A 
HETATM   12  S   UNL     1      28.613  45.551  55.654  1.00  0.00    -0.074 SA
HETATM   13  C   UNL     1      29.325  43.688  54.016  1.00  0.00    -0.031 A 
HETATM   14  C   UNL     1      27.200  43.728  52.479  1.00  0.00     0.262 A 
HETATM   15  C   UNL     1      30.090  42.607  53.323  1.00  0.00     0.050 C 
HETATM   16  C   UNL     1      29.734  44.350  55.166  1.00  0.00    -0.012 A 
HETATM   17  C   UNL     1      30.977  44.152  55.972  1.00  0.00     0.057 C 
HETATM   18  O   UNL     1      27.558  42.874  51.670  1.00  0.00    -0.267 OA
ENDBRANCH   6   7
ENDBRANCH   3   6
ENDBRANCH   1   2
BRANCH   1  19
HETATM   19  C   UNL     1      22.131  46.657  48.588  1.00  0.00     0.029 C 
BRANCH  19  20
HETATM   20  C   UNL     1      21.812  45.263  48.059  1.00  0.00     0.104 C 
BRANCH  20  21
HETATM   21  C   UNL     1      20.329  45.067  47.839  1.00  0.00     0.217 C 
HETATM   22  N   UNL     1      19.566  46.202  48.000  1.00  0.00    -0.361 N 
HETATM   23  H   UNL     1      20.025  47.027  48.377  1.00  0.00     0.162 HD
HETATM   24  O   UNL     1      19.844  43.984  47.525  1.00  0.00    -0.274 OA
BRANCH  22  25
HETATM   25  C   UNL     1      18.119  46.157  48.052  1.00  0.00     0.124 C 
BRANCH  25  26
HETATM   26  C   UNL     1      17.480  47.378  48.721  1.00  0.00     0.047 C 
BRANCH  26  27
HETATM   27  C   UNL     1      17.377  48.577  47.780  1.00  0.00     0.236 C 
BRANCH  27  28
HETATM   28  N   UNL     1      18.045  49.813  48.376  1.00  0.00    -0.070 N 
HETATM   29  H   UNL     1      17.847  49.803  49.384  1.00  0.00     0.279 HD
HETATM   30  C   UNL     1      19.546  49.819  48.187  1.00  0.00     0.239 C 
HETATM   31  C   UNL     1      20.151  51.048  48.868  1.00  0.00     0.008 C 
HETATM   32  C   UNL     1      19.511  52.339  48.347  1.00  0.00     0.011 C 
HETATM   33  C   UNL     1      21.664  51.078  48.655  1.00  0.00     0.011 C 
HETATM   34  C   UNL     1      17.981  52.322  48.451  1.00  0.00     0.008 C 
HETATM   35  C   UNL     1      17.407  51.063  47.799  1.00  0.00     0.239 C 
HETATM   36  C   UNL     1      17.505  52.491  49.897  1.00  0.00     0.011 C 
ENDBRANCH  27  28
ENDBRANCH  26  27
ENDBRANCH  25  26
ENDBRANCH  22  25
ENDBRANCH  20  21
ENDBRANCH  19  20
ENDBRANCH   1  19
TORSDOF 10
ENDMDL
MODEL 6
REMARK VINA RESULT:      -8.4      1.516      2.086
REMARK  10 active torsions:
REMARK  status: ('A' for Active; 'I' for Inactive)
REMARK    1  A    between atoms: N_7  and  C_8 
REMARK    2  A    between atoms: C_8  and  C_9 
REMARK       I    between atoms: C_9  and  N_10 
REMARK    3  A    between atoms: N_10  and  C_11 
REMARK    4  A    between atoms: C_11  and  C_12 
REMARK    5  A    between atoms: C_12  and  C_13 
REMARK    6  A    between atoms: C_13  and  C_14 
REMARK       I    between atoms: C_14  and  N_15 
REMARK    7  A    between atoms: N_15  and  C_16 
REMARK    8  A    between atoms: C_16  and  C_17 
REMARK    9  A    between atoms: C_17  and  C_18 
REMARK   10  A    between atoms: C_18  and  N_19 
ROOT
HETATM    1  C   UNL     1      26.842  47.009  49.587  1.00  0.00     0.123 C 
ENDROOT
BRANCH   1   2
HETATM    2  N   UNL     1      26.312  46.211  50.673  1.00  0.00    -0.360 N 
HETATM    3  C   UNL     1      24.996  45.789  50.686  1.00  0.00     0.235 C 
HETATM    4  O   UNL     1      24.199  46.078  49.798  1.00  0.00    -0.272 OA
HETATM    5  H   UNL     1      26.911  46.017  51.466  1.00  0.00     0.162 HD
BRANCH   3   6
HETATM    6  C   UNL     1      24.646  44.872  51.857  1.00  0.00     0.235 C 
BRANCH   6   7
HETATM    7  N   UNL     1      25.850  44.285  52.414  1.00  0.00    -0.299 N 
HETATM    8  C   UNL     1      26.322  43.079  51.931  1.00  0.00     0.214 A 
HETATM    9  N   UNL     1      27.396  42.479  52.329  1.00  0.00    -0.235 NA
HETATM   10  C   UNL     1      28.071  43.133  53.306  1.00  0.00     0.115 A 
HETATM   11  C   UNL     1      27.703  44.309  53.921  1.00  0.00     0.075 A 
HETATM   12  S   UNL     1      29.544  42.541  53.913  1.00  0.00    -0.074 SA
HETATM   13  C   UNL     1      28.642  44.735  54.928  1.00  0.00    -0.031 A 
HETATM   14  C   UNL     1      26.468  44.938  53.476  1.00  0.00     0.262 A 
HETATM   15  C   UNL     1      28.481  45.968  55.758  1.00  0.00     0.050 C 
HETATM   16  C   UNL     1      29.719  43.861  54.991  1.00  0.00    -0.012 A 
HETATM   17  C   UNL     1      30.939  43.933  55.852  1.00  0.00     0.057 C 
HETATM   18  O   UNL     1      26.012  45.958  53.992  1.00  0.00    -0.267 OA
ENDBRANCH   6   7
ENDBRANCH   3   6
ENDBRANCH   1   2
BRANCH   1  19
HETATM   19  C   UNL     1      26.844  48.501  49.913  1.00  0.00     0.029 C 
BRANCH  19  20
HETATM   20  C   UNL     1      26.886  49.330  48.635  1.00  0.00     0.104 C 
BRANCH  20  21
HETATM   21  C   UNL     1      25.501  49.692  48.150  1.00  0.00     0.217 C 
HETATM   22  N   UNL     1      24.474  49.026  48.781  1.00  0.00    -0.361 N 
HETATM   23  H   UNL     1      24.723  48.265  49.408  1.00  0.00     0.162 HD
HETATM   24  O   UNL     1      25.304  50.529  47.272  1.00  0.00    -0.274 OA
BRANCH  22  25
HETATM   25  C   UNL     1      23.110  49.076  48.297  1.00  0.00     0.124 C 
BRANCH  25  26
HETATM   26  C   UNL     1      22.202  50.026  49.086  1.00  0.00     0.047 C 
BRANCH  26  27
HETATM   27  C   UNL     1      20.903  49.361  49.534  1.00  0.00     0.236 C 
BRANCH  27  28
HETATM   28  N   UNL     1      19.682  50.120  49.020  1.00  0.00    -0.070 N 
HETATM   29  H   UNL     1      20.005  51.057  48.749  1.00  0.00     0.279 HD
HETATM   30  C   UNL     1      19.050  49.468  47.810  1.00  0.00     0.239 C 
HETATM   31  C   UNL     1      17.881  50.319  47.312  1.00  0.00     0.008 C 
HETATM   32  C   UNL     1      16.855  50.555  48.427  1.00  0.00     0.011 C 
HETATM   33  C   UNL     1      17.217  49.650  46.109  1.00  0.00     0.011 C 
HETATM   34  C   UNL     1      17.489  51.139  49.696  1.00  0.00     0.008 C 
HETATM   35  C   UNL     1      18.680  50.292  50.146  1.00  0.00     0.239 C 
HETATM   36  C   UNL     1      17.863  52.613  49.520  1.00  0.00     0.011 C 
ENDBRANCH  27  28
ENDBRANCH  26  27
ENDBRANCH  25  26
ENDBRANCH  22  25
ENDBRANCH  20  21
ENDBRANCH  19  20
ENDBRANCH   1  19
TORSDOF 10
ENDMDL
MODEL 7
REMARK VINA RESULT:      -8.3      1.963      2.473
REMARK  10 active torsions:
REMARK  status: ('A' for Active; 'I' for Inactive)
REMARK    1  A    between atoms: N_7  and  C_8 
REMARK    2  A    between atoms: C_8  and  C_9 
REMARK       I    between atoms: C_9  and  N_10 
REMARK    3  A    between atoms: N_10  and  C_11 
REMARK    4  A    between atoms: C_11  and  C_12 
REMARK    5  A    between atoms: C_12  and  C_13 
REMARK    6  A    between atoms: C_13  and  C_14 
REMARK       I    between atoms: C_14  and  N_15 
REMARK    7  A    between atoms: N_15  and  C_16 
REMARK    8  A    between atoms: C_16  and  C_17 
REMARK    9  A    between atoms: C_17  and  C_18 
REMARK   10  A    between atoms: C_18  and  N_19 
ROOT
HETATM    1  C   UNL     1      23.222  44.731  48.609  1.00  0.00     0.123 C 
ENDROOT
BRANCH   1   2
HETATM    2  N   UNL     1      23.488  44.813  50.030  1.00  0.00    -0.360 N 
HETATM    3  C   UNL     1      24.666  45.345  50.518  1.00  0.00     0.235 C 
HETATM    4  O   UNL     1      25.559  45.759  49.784  1.00  0.00    -0.272 OA
HETATM    5  H   UNL     1      22.814  44.410  50.671  1.00  0.00     0.162 HD
BRANCH   3   6
HETATM    6  C   UNL     1      24.724  45.443  52.041  1.00  0.00     0.235 C 
BRANCH   6   7
HETATM    7  N   UNL     1      25.861  44.702  52.551  1.00  0.00    -0.299 N 
HETATM    8  C   UNL     1      26.145  43.441  52.061  1.00  0.00     0.214 A 
HETATM    9  N   UNL     1      27.145  42.704  52.419  1.00  0.00    -0.235 NA
HETATM   10  C   UNL     1      27.946  43.266  53.357  1.00  0.00     0.115 A 
HETATM   11  C   UNL     1      27.767  44.485  53.974  1.00  0.00     0.075 A 
HETATM   12  S   UNL     1      29.352  42.484  53.906  1.00  0.00    -0.074 SA
HETATM   13  C   UNL     1      28.800  44.785  54.935  1.00  0.00    -0.031 A 
HETATM   14  C   UNL     1      26.610  45.272  53.578  1.00  0.00     0.262 A 
HETATM   15  C   UNL     1      28.844  46.033  55.757  1.00  0.00     0.050 C 
HETATM   16  C   UNL     1      29.751  43.774  54.960  1.00  0.00    -0.012 A 
HETATM   17  C   UNL     1      31.007  43.686  55.766  1.00  0.00     0.057 C 
HETATM   18  O   UNL     1      26.319  46.346  54.101  1.00  0.00    -0.267 OA
ENDBRANCH   6   7
ENDBRANCH   3   6
ENDBRANCH   1   2
BRANCH   1  19
HETATM   19  C   UNL     1      21.731  44.820  48.294  1.00  0.00     0.029 C 
BRANCH  19  20
HETATM   20  C   UNL     1      21.150  46.133  48.805  1.00  0.00     0.104 C 
BRANCH  20  21
HETATM   21  C   UNL     1      21.942  47.328  48.326  1.00  0.00     0.217 C 
HETATM   22  N   UNL     1      22.457  48.121  49.328  1.00  0.00    -0.361 N 
HETATM   23  H   UNL     1      22.158  47.927  50.280  1.00  0.00     0.162 HD
HETATM   24  O   UNL     1      22.128  47.565  47.136  1.00  0.00    -0.274 OA
BRANCH  22  25
HETATM   25  C   UNL     1      23.043  49.418  49.060  1.00  0.00     0.124 C 
BRANCH  25  26
HETATM   26  C   UNL     1      22.303  50.585  49.722  1.00  0.00     0.047 C 
BRANCH  26  27
HETATM   27  C   UNL     1      21.291  51.245  48.788  1.00  0.00     0.236 C 
BRANCH  27  28
HETATM   28  N   UNL     1      19.863  50.824  49.127  1.00  0.00    -0.070 N 
HETATM   29  H   UNL     1      19.910  50.286  50.001  1.00  0.00     0.279 HD
HETATM   30  C   UNL     1      18.939  52.002  49.344  1.00  0.00     0.239 C 
HETATM   31  C   UNL     1      17.549  51.505  49.747  1.00  0.00     0.008 C 
HETATM   32  C   UNL     1      16.988  50.531  48.706  1.00  0.00     0.011 C 
HETATM   33  C   UNL     1      16.601  52.689  49.938  1.00  0.00     0.011 C 
HETATM   34  C   UNL     1      17.946  49.371  48.407  1.00  0.00     0.008 C 
HETATM   35  C   UNL     1      19.337  49.896  48.048  1.00  0.00     0.239 C 
HETATM   36  C   UNL     1      17.990  48.358  49.554  1.00  0.00     0.011 C 
ENDBRANCH  27  28
ENDBRANCH  26  27
ENDBRANCH  25  26
ENDBRANCH  22  25
ENDBRANCH  20  21
ENDBRANCH  19  20
ENDBRANCH   1  19
TORSDOF 10
ENDMDL
MODEL 8
REMARK VINA RESULT:      -8.3      3.383     10.015
REMARK  10 active torsions:
REMARK  status: ('A' for Active; 'I' for Inactive)
REMARK    1  A    between atoms: N_7  and  C_8 
REMARK    2  A    between atoms: C_8  and  C_9 
REMARK       I    between atoms: C_9  and  N_10 
REMARK    3  A    between atoms: N_10  and  C_11 
REMARK    4  A    between atoms: C_11  and  C_12 
REMARK    5  A    between atoms: C_12  and  C_13 
REMARK    6  A    between atoms: C_13  and  C_14 
REMARK       I    between atoms: C_14  and  N_15 
REMARK    7  A    between atoms: N_15  and  C_16 
REMARK    8  A    between atoms: C_16  and  C_17 
REMARK    9  A    between atoms: C_17  and  C_18 
REMARK   10  A    between atoms: C_18  and  N_19 
ROOT
HETATM    1  C   UNL     1      24.678  43.489  49.224  1.00  0.00     0.123 C 
ENDROOT
BRANCH   1   2
HETATM    2  N   UNL     1      24.079  44.409  48.281  1.00  0.00    -0.360 N 
HETATM    3  C   UNL     1      22.765  44.820  48.405  1.00  0.00     0.235 C 
HETATM    4  O   UNL     1      22.027  44.419  49.300  1.00  0.00    -0.272 OA
HETATM    5  H   UNL     1      24.626  44.704  47.481  1.00  0.00     0.162 HD
BRANCH   3   6
HETATM    6  C   UNL     1      22.341  45.871  47.381  1.00  0.00     0.235 C 
BRANCH   6   7
HETATM    7  N   UNL     1      21.948  47.097  48.050  1.00  0.00    -0.299 N 
HETATM    8  C   UNL     1      22.906  47.919  48.612  1.00  0.00     0.214 A 
HETATM    9  N   UNL     1      22.677  49.045  49.205  1.00  0.00    -0.235 NA
HETATM   10  C   UNL     1      21.368  49.395  49.250  1.00  0.00     0.115 A 
HETATM   11  C   UNL     1      20.299  48.662  48.782  1.00  0.00     0.075 A 
HETATM   12  S   UNL     1      20.869  50.873  49.924  1.00  0.00    -0.074 SA
HETATM   13  C   UNL     1      19.033  49.319  48.992  1.00  0.00    -0.031 A 
HETATM   14  C   UNL     1      20.589  47.381  48.156  1.00  0.00     0.262 A 
HETATM   15  C   UNL     1      17.712  48.742  48.594  1.00  0.00     0.050 C 
HETATM   16  C   UNL     1      19.220  50.562  49.580  1.00  0.00    -0.012 A 
HETATM   17  C   UNL     1      18.201  51.596  49.937  1.00  0.00     0.057 C 
HETATM   18  O   UNL     1      19.713  46.618  47.755  1.00  0.00    -0.267 OA
ENDBRANCH   6   7
ENDBRANCH   3   6
ENDBRANCH   1   2
BRANCH   1  19
HETATM   19  C   UNL     1      25.925  44.069  49.887  1.00  0.00     0.029 C 
BRANCH  19  20
HETATM   20  C   UNL     1      25.717  45.541  50.228  1.00  0.00     0.104 C 
BRANCH  20  21
HETATM   21  C   UNL     1      25.388  45.743  51.689  1.00  0.00     0.217 C 
HETATM   22  N   UNL     1      25.833  46.931  52.223  1.00  0.00    -0.361 N 
HETATM   23  H   UNL     1      26.449  47.502  51.650  1.00  0.00     0.162 HD
HETATM   24  O   UNL     1      24.758  44.918  52.345  1.00  0.00    -0.274 OA
BRANCH  22  25
HETATM   25  C   UNL     1      25.809  47.193  53.648  1.00  0.00     0.124 C 
BRANCH  25  26
HETATM   26  C   UNL     1      27.181  47.525  54.244  1.00  0.00     0.047 C 
BRANCH  26  27
HETATM   27  C   UNL     1      27.573  46.581  55.378  1.00  0.00     0.236 C 
BRANCH  27  28
HETATM   28  N   UNL     1      28.474  45.453  54.880  1.00  0.00    -0.070 N 
HETATM   29  H   UNL     1      28.967  45.810  54.052  1.00  0.00     0.279 HD
HETATM   30  C   UNL     1      29.505  45.030  55.901  1.00  0.00     0.239 C 
HETATM   31  C   UNL     1      30.412  43.950  55.307  1.00  0.00     0.008 C 
HETATM   32  C   UNL     1      29.593  42.757  54.803  1.00  0.00     0.011 C 
HETATM   33  C   UNL     1      31.438  43.493  56.345  1.00  0.00     0.011 C 
HETATM   34  C   UNL     1      28.484  43.173  53.828  1.00  0.00     0.008 C 
HETATM   35  C   UNL     1      27.620  44.282  54.431  1.00  0.00     0.239 C 
HETATM   36  C   UNL     1      29.046  43.561  52.458  1.00  0.00     0.011 C 
ENDBRANCH  27  28
ENDBRANCH  26  27
ENDBRANCH  25  26
ENDBRANCH  22  25
ENDBRANCH  20  21
ENDBRANCH  19  20
ENDBRANCH   1  19
TORSDOF 10
ENDMDL
MODEL 9
REMARK VINA RESULT:      -8.1      2.062      2.789
REMARK  10 active torsions:
REMARK  status: ('A' for Active; 'I' for Inactive)
REMARK    1  A    between atoms: N_7  and  C_8 
REMARK    2  A    between atoms: C_8  and  C_9 
REMARK       I    between atoms: C_9  and  N_10 
REMARK    3  A    between atoms: N_10  and  C_11 
REMARK    4  A    between atoms: C_11  and  C_12 
REMARK    5  A    between atoms: C_12  and  C_13 
REMARK    6  A    between atoms: C_13  and  C_14 
REMARK       I    between atoms: C_14  and  N_15 
REMARK    7  A    between atoms: N_15  and  C_16 
REMARK    8  A    between atoms: C_16  and  C_17 
REMARK    9  A    between atoms: C_17  and  C_18 
REMARK   10  A    between atoms: C_18  and  N_19 
ROOT
HETATM    1  C   UNL     1      26.549  47.918  49.794  1.00  0.00     0.123 C 
ENDROOT
BRANCH   1   2
HETATM    2  N   UNL     1      26.147  46.757  50.560  1.00  0.00    -0.360 N 
HETATM    3  C   UNL     1      26.618  45.492  50.262  1.00  0.00     0.235 C 
HETATM    4  O   UNL     1      27.383  45.274  49.327  1.00  0.00    -0.272 OA
HETATM    5  H   UNL     1      25.454  46.877  51.290  1.00  0.00     0.162 HD
BRANCH   3   6
HETATM    6  C   UNL     1      26.166  44.410  51.241  1.00  0.00     0.235 C 
BRANCH   6   7
HETATM    7  N   UNL     1      27.203  44.153  52.222  1.00  0.00    -0.299 N 
HETATM    8  C   UNL     1      28.069  43.089  52.054  1.00  0.00     0.214 A 
HETATM    9  N   UNL     1      29.046  42.783  52.845  1.00  0.00    -0.235 NA
HETATM   10  C   UNL     1      29.181  43.610  53.911  1.00  0.00     0.115 A 
HETATM   11  C   UNL     1      28.370  44.675  54.239  1.00  0.00     0.075 A 
HETATM   12  S   UNL     1      30.448  43.416  55.027  1.00  0.00    -0.074 SA
HETATM   13  C   UNL     1      28.786  45.346  55.446  1.00  0.00    -0.031 A 
HETATM   14  C   UNL     1      27.257  44.968  53.350  1.00  0.00     0.262 A 
HETATM   15  C   UNL     1      28.080  46.523  56.038  1.00  0.00     0.050 C 
HETATM   16  C   UNL     1      29.942  44.767  55.952  1.00  0.00    -0.012 A 
HETATM   17  C   UNL     1      30.743  45.161  57.152  1.00  0.00     0.057 C 
HETATM   18  O   UNL     1      26.436  45.856  53.573  1.00  0.00    -0.267 OA
ENDBRANCH   6   7
ENDBRANCH   3   6
ENDBRANCH   1   2
BRANCH   1  19
HETATM   19  C   UNL     1      25.359  48.640  49.169  1.00  0.00     0.029 C 
BRANCH  19  20
HETATM   20  C   UNL     1      24.048  48.103  49.732  1.00  0.00     0.104 C 
BRANCH  20  21
HETATM   21  C   UNL     1      22.880  48.386  48.816  1.00  0.00     0.217 C 
HETATM   22  N   UNL     1      21.658  47.960  49.287  1.00  0.00    -0.361 N 
HETATM   23  H   UNL     1      21.653  47.383  50.125  1.00  0.00     0.162 HD
HETATM   24  O   UNL     1      23.008  48.966  47.741  1.00  0.00    -0.274 OA
BRANCH  22  25
HETATM   25  C   UNL     1      20.474  47.942  48.453  1.00  0.00     0.124 C 
BRANCH  25  26
HETATM   26  C   UNL     1      19.467  49.052  48.775  1.00  0.00     0.047 C 
BRANCH  26  27
HETATM   27  C   UNL     1      18.124  48.506  49.256  1.00  0.00     0.236 C 
BRANCH  27  28
HETATM   28  N   UNL     1      16.957  49.202  48.559  1.00  0.00    -0.070 N 
HETATM   29  H   UNL     1      16.101  48.719  48.857  1.00  0.00     0.279 HD
HETATM   30  C   UNL     1      16.835  50.662  48.936  1.00  0.00     0.239 C 
HETATM   31  C   UNL     1      15.607  51.272  48.256  1.00  0.00     0.008 C 
HETATM   32  C   UNL     1      15.666  51.083  46.737  1.00  0.00     0.011 C 
HETATM   33  C   UNL     1      15.493  52.756  48.607  1.00  0.00     0.011 C 
HETATM   34  C   UNL     1      15.875  49.619  46.333  1.00  0.00     0.008 C 
HETATM   35  C   UNL     1      17.083  49.023  47.058  1.00  0.00     0.239 C 
HETATM   36  C   UNL     1      14.608  48.784  46.540  1.00  0.00     0.011 C 
ENDBRANCH  27  28
ENDBRANCH  26  27
ENDBRANCH  25  26
ENDBRANCH  22  25
ENDBRANCH  20  21
ENDBRANCH  19  20
ENDBRANCH   1  19
TORSDOF 10
ENDMDL
MODEL 10
REMARK VINA RESULT:      -8.1      2.488      3.635
REMARK  10 active torsions:
REMARK  status: ('A' for Active; 'I' for Inactive)
REMARK    1  A    between atoms: N_7  and  C_8 
REMARK    2  A    between atoms: C_8  and  C_9 
REMARK       I    between atoms: C_9  and  N_10 
REMARK    3  A    between atoms: N_10  and  C_11 
REMARK    4  A    between atoms: C_11  and  C_12 
REMARK    5  A    between atoms: C_12  and  C_13 
REMARK    6  A    between atoms: C_13  and  C_14 
REMARK       I    between atoms: C_14  and  N_15 
REMARK    7  A    between atoms: N_15  and  C_16 
REMARK    8  A    between atoms: C_16  and  C_17 
REMARK    9  A    between atoms: C_17  and  C_18 
REMARK   10  A    between atoms: C_18  and  N_19 
ROOT
HETATM    1  C   UNL     1      24.736  47.980  49.455  1.00  0.00     0.123 C 
ENDROOT
BRANCH   1   2
HETATM    2  N   UNL     1      24.640  46.884  50.397  1.00  0.00    -0.360 N 
HETATM    3  C   UNL     1      25.421  46.838  51.536  1.00  0.00     0.235 C 
HETATM    4  O   UNL     1      26.250  47.703  51.807  1.00  0.00    -0.272 OA
HETATM    5  H   UNL     1      24.028  46.108  50.174  1.00  0.00     0.162 HD
BRANCH   3   6
HETATM    6  C   UNL     1      25.107  45.663  52.461  1.00  0.00     0.235 C 
BRANCH   6   7
HETATM    7  N   UNL     1      26.332  44.997  52.862  1.00  0.00    -0.299 N 
HETATM    8  C   UNL     1      26.854  43.978  52.088  1.00  0.00     0.214 A 
HETATM    9  N   UNL     1      27.950  43.335  52.331  1.00  0.00    -0.235 NA
HETATM   10  C   UNL     1      28.595  43.738  53.453  1.00  0.00     0.115 A 
HETATM   11  C   UNL     1      28.177  44.698  54.348  1.00  0.00     0.075 A 
HETATM   12  S   UNL     1      30.088  43.064  53.905  1.00  0.00    -0.074 SA
HETATM   13  C   UNL     1      29.095  44.881  55.445  1.00  0.00    -0.031 A 
HETATM   14  C   UNL     1      26.920  45.373  54.066  1.00  0.00     0.262 A 
HETATM   15  C   UNL     1      28.882  45.847  56.565  1.00  0.00     0.050 C 
HETATM   16  C   UNL     1      30.206  44.062  55.292  1.00  0.00    -0.012 A 
HETATM   17  C   UNL     1      31.419  43.953  56.159  1.00  0.00     0.057 C 
HETATM   18  O   UNL     1      26.421  46.205  54.823  1.00  0.00    -0.267 OA
ENDBRANCH   6   7
ENDBRANCH   3   6
ENDBRANCH   1   2
BRANCH   1  19
HETATM   19  C   UNL     1      23.371  48.399  48.915  1.00  0.00     0.029 C 
BRANCH  19  20
HETATM   20  C   UNL     1      22.578  47.183  48.451  1.00  0.00     0.104 C 
BRANCH  20  21
HETATM   21  C   UNL     1      21.118  47.508  48.233  1.00  0.00     0.217 C 
HETATM   22  N   UNL     1      20.236  46.619  48.807  1.00  0.00    -0.361 N 
HETATM   23  H   UNL     1      20.621  45.764  49.202  1.00  0.00     0.162 HD
HETATM   24  O   UNL     1      20.746  48.497  47.608  1.00  0.00    -0.274 OA
BRANCH  22  25
HETATM   25  C   UNL     1      18.818  46.643  48.514  1.00  0.00     0.124 C 
BRANCH  25  26
HETATM   26  C   UNL     1      18.013  47.594  49.407  1.00  0.00     0.047 C 
BRANCH  26  27
HETATM   27  C   UNL     1      17.057  48.480  48.611  1.00  0.00     0.236 C 
BRANCH  27  28
HETATM   28  N   UNL     1      17.792  49.645  47.954  1.00  0.00    -0.070 N 
HETATM   29  H   UNL     1      18.795  49.498  48.122  1.00  0.00     0.279 HD
HETATM   30  C   UNL     1      17.567  49.714  46.460  1.00  0.00     0.239 C 
HETATM   31  C   UNL     1      18.388  50.859  45.863  1.00  0.00     0.008 C 
HETATM   32  C   UNL     1      18.057  52.190  46.546  1.00  0.00     0.011 C 
HETATM   33  C   UNL     1      18.141  50.955  44.357  1.00  0.00     0.011 C 
HETATM   34  C   UNL     1      18.198  52.120  48.072  1.00  0.00     0.008 C 
HETATM   35  C   UNL     1      17.402  50.942  48.636  1.00  0.00     0.239 C 
HETATM   36  C   UNL     1      19.665  52.086  48.508  1.00  0.00     0.011 C 
ENDBRANCH  27  28
ENDBRANCH  26  27
ENDBRANCH  25  26
ENDBRANCH  22  25
ENDBRANCH  20  21
ENDBRANCH  19  20
ENDBRANCH   1  19
TORSDOF 10
ENDMDL
