MODEL 1
REMARK VINA RESULT:      -8.1      0.000      0.000
REMARK  6 active torsions:
REMARK  status: ('A' for Active; 'I' for Inactive)
REMARK    1  A    between atoms: C_2  and  O_3 
REMARK    2  A    between atoms: O_3  and  C_4 
REMARK    3  A    between atoms: C_8  and  C_9 
REMARK    4  A    between atoms: C_9  and  N_10 
REMARK       I    between atoms: N_10  and  C_11 
REMARK       I    between atoms: C_11  and  N_12 
REMARK    5  A    between atoms: N_12  and  C_13 
REMARK    6  A    between atoms: C_14  and  C_15 
ROOT
HETATM    1  N   UNL     1      26.205  46.878  51.470  1.00  0.00    -0.339 N 
HETATM    2  C   UNL     1      26.063  46.479  52.775  1.00  0.00     0.316 C 
HETATM    3  N   UNL     1      27.170  46.804  53.527  1.00  0.00    -0.338 N 
HETATM    4  O   UNL     1      25.074  45.906  53.214  1.00  0.00    -0.247 OA
HETATM    5  H   UNL     1      26.814  47.665  51.308  1.00  0.00     0.164 HD
HETATM    6  H   UNL     1      28.042  46.809  53.014  1.00  0.00     0.164 HD
ENDROOT
BRANCH   1   7
HETATM    7  C   UNL     1      25.165  46.636  50.495  1.00  0.00     0.163 C 
BRANCH   7   8
HETATM    8  C   UNL     1      24.943  47.810  49.580  1.00  0.00    -0.035 A 
HETATM    9  C   UNL     1      26.000  48.646  49.209  1.00  0.00     0.028 A 
HETATM   10  C   UNL     1      25.735  49.735  48.395  1.00  0.00     0.120 A 
HETATM   11  N   UNL     1      24.504  50.055  47.943  1.00  0.00    -0.237 NA
HETATM   12  C   UNL     1      23.495  49.252  48.319  1.00  0.00     0.165 A 
HETATM   13  C   UNL     1      23.664  48.120  49.106  1.00  0.00     0.066 A 
BRANCH  12  14
HETATM   14  O   UNL     1      22.209  49.503  47.896  1.00  0.00    -0.324 OA
BRANCH  14  15
HETATM   15  C   UNL     1      21.256  50.046  48.829  1.00  0.00     0.058 C 
HETATM   16  C   UNL     1      21.921  50.850  49.955  1.00  0.00     0.045 C 
HETATM   17  C   UNL     1      20.281  48.988  49.370  1.00  0.00     0.045 C 
HETATM   18  C   UNL     1      20.435  51.036  47.977  1.00  0.00     0.045 C 
ENDBRANCH  14  15
ENDBRANCH  12  14
ENDBRANCH   7   8
ENDBRANCH   1   7
BRANCH   3  19
HETATM   19  C   UNL     1      27.241  46.456  54.918  1.00  0.00     0.095 A 
HETATM   20  C   UNL     1      27.782  45.135  55.422  1.00  0.00     0.043 A 
HETATM   21  C   UNL     1      28.566  46.411  55.619  1.00  0.00     0.037 A 
BRANCH  20  22
HETATM   22  C   UNL     1      28.314  44.063  54.499  1.00  0.00    -0.052 A 
HETATM   23  C   UNL     1      29.695  43.894  54.301  1.00  0.00     0.007 A 
HETATM   24  C   UNL     1      30.198  42.882  53.479  1.00  0.00     0.001 A 
HETATM   25  C   UNL     1      29.324  42.009  52.837  1.00  0.00     0.000 A 
HETATM   26  C   UNL     1      27.952  42.145  53.025  1.00  0.00     0.001 A 
HETATM   27  C   UNL     1      27.456  43.156  53.854  1.00  0.00     0.007 A 
ENDBRANCH  20  22
ENDBRANCH   3  19
TORSDOF 6
ENDMDL
MODEL 2
REMARK VINA RESULT:      -8.1      2.184      9.539
REMARK  6 active torsions:
REMARK  status: ('A' for Active; 'I' for Inactive)
REMARK    1  A    between atoms: C_2  and  O_3 
REMARK    2  A    between atoms: O_3  and  C_4 
REMARK    3  A    between atoms: C_8  and  C_9 
REMARK    4  A    between atoms: C_9  and  N_10 
REMARK       I    between atoms: N_10  and  C_11 
REMARK       I    between atoms: C_11  and  N_12 
REMARK    5  A    between atoms: N_12  and  C_13 
REMARK    6  A    between atoms: C_14  and  C_15 
ROOT
HETATM    1  N   UNL     1      24.205  47.387  50.934  1.00  0.00    -0.339 N 
HETATM    2  C   UNL     1      24.472  48.202  49.862  1.00  0.00     0.316 C 
HETATM    3  N   UNL     1      23.319  48.558  49.198  1.00  0.00    -0.338 N 
HETATM    4  O   UNL     1      25.595  48.564  49.538  1.00  0.00    -0.247 OA
HETATM    5  H   UNL     1      23.293  47.486  51.353  1.00  0.00     0.164 HD
HETATM    6  H   UNL     1      22.582  47.866  49.231  1.00  0.00     0.164 HD
ENDROOT
BRANCH   1   7
HETATM    7  C   UNL     1      25.269  46.886  51.776  1.00  0.00     0.163 C 
BRANCH   7   8
HETATM    8  C   UNL     1      25.527  45.417  51.570  1.00  0.00    -0.035 A 
HETATM    9  C   UNL     1      24.487  44.538  51.254  1.00  0.00     0.028 A 
HETATM   10  C   UNL     1      24.773  43.190  51.114  1.00  0.00     0.120 A 
HETATM   11  N   UNL     1      26.003  42.660  51.280  1.00  0.00    -0.237 NA
HETATM   12  C   UNL     1      26.990  43.514  51.599  1.00  0.00     0.165 A 
HETATM   13  C   UNL     1      26.810  44.884  51.730  1.00  0.00     0.066 A 
BRANCH  12  14
HETATM   14  O   UNL     1      28.276  43.056  51.779  1.00  0.00    -0.324 OA
BRANCH  14  15
HETATM   15  C   UNL     1      28.656  42.514  53.058  1.00  0.00     0.058 C 
HETATM   16  C   UNL     1      28.508  40.987  53.122  1.00  0.00     0.045 C 
HETATM   17  C   UNL     1      27.958  43.213  54.235  1.00  0.00     0.045 C 
HETATM   18  C   UNL     1      30.161  42.836  53.157  1.00  0.00     0.045 C 
ENDBRANCH  14  15
ENDBRANCH  12  14
ENDBRANCH   7   8
ENDBRANCH   1   7
BRANCH   3  19
HETATM   19  C   UNL     1      23.372  49.390  48.029  1.00  0.00     0.095 A 
HETATM   20  C   UNL     1      22.216  50.250  47.564  1.00  0.00     0.043 A 
HETATM   21  C   UNL     1      23.450  50.882  48.167  1.00  0.00     0.037 A 
BRANCH  20  22
HETATM   22  C   UNL     1      20.900  50.322  48.303  1.00  0.00    -0.052 A 
HETATM   23  C   UNL     1      19.974  49.266  48.242  1.00  0.00     0.007 A 
HETATM   24  C   UNL     1      18.771  49.306  48.951  1.00  0.00     0.001 A 
HETATM   25  C   UNL     1      18.469  50.409  49.746  1.00  0.00     0.000 A 
HETATM   26  C   UNL     1      19.374  51.462  49.835  1.00  0.00     0.001 A 
HETATM   27  C   UNL     1      20.578  51.412  49.128  1.00  0.00     0.007 A 
ENDBRANCH  20  22
ENDBRANCH   3  19
TORSDOF 6
ENDMDL
MODEL 3
REMARK VINA RESULT:      -8.0      1.485      2.579
REMARK  6 active torsions:
REMARK  status: ('A' for Active; 'I' for Inactive)
REMARK    1  A    between atoms: C_2  and  O_3 
REMARK    2  A    between atoms: O_3  and  C_4 
REMARK    3  A    between atoms: C_8  and  C_9 
REMARK    4  A    between atoms: C_9  and  N_10 
REMARK       I    between atoms: N_10  and  C_11 
REMARK       I    between atoms: C_11  and  N_12 
REMARK    5  A    between atoms: N_12  and  C_13 
REMARK    6  A    between atoms: C_14  and  C_15 
ROOT
HETATM    1  N   UNL     1      26.034  45.524  51.619  1.00  0.00    -0.339 N 
HETATM    2  C   UNL     1      26.478  44.226  51.659  1.00  0.00     0.316 C 
HETATM    3  N   UNL     1      27.708  44.129  52.271  1.00  0.00    -0.338 N 
HETATM    4  O   UNL     1      25.857  43.274  51.204  1.00  0.00    -0.247 OA
HETATM    5  H   UNL     1      26.379  46.135  52.344  1.00  0.00     0.164 HD
HETATM    6  H   UNL     1      28.301  44.941  52.157  1.00  0.00     0.164 HD
ENDROOT
BRANCH   1   7
HETATM    7  C   UNL     1      24.765  45.864  51.017  1.00  0.00     0.163 C 
BRANCH   7   8
HETATM    8  C   UNL     1      24.855  47.062  50.111  1.00  0.00    -0.035 A 
HETATM    9  C   UNL     1      26.038  47.799  50.002  1.00  0.00     0.028 A 
HETATM   10  C   UNL     1      26.055  48.916  49.185  1.00  0.00     0.120 A 
HETATM   11  N   UNL     1      24.987  49.355  48.486  1.00  0.00    -0.237 NA
HETATM   12  C   UNL     1      23.851  48.647  48.611  1.00  0.00     0.165 A 
HETATM   13  C   UNL     1      23.743  47.496  49.381  1.00  0.00     0.066 A 
BRANCH  12  14
HETATM   14  O   UNL     1      22.717  49.022  47.928  1.00  0.00    -0.324 OA
BRANCH  14  15
HETATM   15  C   UNL     1      21.654  49.683  48.640  1.00  0.00     0.058 C 
HETATM   16  C   UNL     1      22.173  50.653  49.711  1.00  0.00     0.045 C 
HETATM   17  C   UNL     1      20.611  48.704  49.201  1.00  0.00     0.045 C 
HETATM   18  C   UNL     1      20.957  50.526  47.553  1.00  0.00     0.045 C 
ENDBRANCH  14  15
ENDBRANCH  12  14
ENDBRANCH   7   8
ENDBRANCH   1   7
BRANCH   3  19
HETATM   19  C   UNL     1      28.368  42.860  52.398  1.00  0.00     0.095 A 
HETATM   20  C   UNL     1      29.326  42.527  53.521  1.00  0.00     0.043 A 
HETATM   21  C   UNL     1      27.953  41.897  53.471  1.00  0.00     0.037 A 
BRANCH  20  22
HETATM   22  C   UNL     1      29.664  43.502  54.625  1.00  0.00    -0.052 A 
HETATM   23  C   UNL     1      30.786  43.307  55.449  1.00  0.00     0.007 A 
HETATM   24  C   UNL     1      31.128  44.222  56.448  1.00  0.00     0.001 A 
HETATM   25  C   UNL     1      30.352  45.361  56.642  1.00  0.00     0.000 A 
HETATM   26  C   UNL     1      29.244  45.586  55.832  1.00  0.00     0.001 A 
HETATM   27  C   UNL     1      28.911  44.670  54.831  1.00  0.00     0.007 A 
ENDBRANCH  20  22
ENDBRANCH   3  19
TORSDOF 6
ENDMDL
MODEL 4
REMARK VINA RESULT:      -7.9      1.696      3.052
REMARK  6 active torsions:
REMARK  status: ('A' for Active; 'I' for Inactive)
REMARK    1  A    between atoms: C_2  and  O_3 
REMARK    2  A    between atoms: O_3  and  C_4 
REMARK    3  A    between atoms: C_8  and  C_9 
REMARK    4  A    between atoms: C_9  and  N_10 
REMARK       I    between atoms: N_10  and  C_11 
REMARK       I    between atoms: C_11  and  N_12 
REMARK    5  A    between atoms: N_12  and  C_13 
REMARK    6  A    between atoms: C_14  and  C_15 
ROOT
HETATM    1  N   UNL     1      25.989  46.407  50.683  1.00  0.00    -0.339 N 
HETATM    2  C   UNL     1      26.643  45.313  50.176  1.00  0.00     0.316 C 
HETATM    3  N   UNL     1      25.998  44.141  50.502  1.00  0.00    -0.338 N 
HETATM    4  O   UNL     1      27.673  45.372  49.518  1.00  0.00    -0.247 OA
HETATM    5  H   UNL     1      24.997  46.306  50.829  1.00  0.00     0.164 HD
HETATM    6  H   UNL     1      25.502  44.163  51.384  1.00  0.00     0.164 HD
ENDROOT
BRANCH   1   7
HETATM    7  C   UNL     1      26.492  47.746  50.468  1.00  0.00     0.163 C 
BRANCH   7   8
HETATM    8  C   UNL     1      25.701  48.503  49.435  1.00  0.00    -0.035 A 
HETATM    9  C   UNL     1      26.309  49.463  48.621  1.00  0.00     0.028 A 
HETATM   10  C   UNL     1      25.528  50.159  47.714  1.00  0.00     0.120 A 
HETATM   11  N   UNL     1      24.198  49.980  47.572  1.00  0.00    -0.237 NA
HETATM   12  C   UNL     1      23.623  49.066  48.372  1.00  0.00     0.165 A 
HETATM   13  C   UNL     1      24.326  48.296  49.289  1.00  0.00     0.066 A 
BRANCH  12  14
HETATM   14  O   UNL     1      22.272  48.817  48.287  1.00  0.00    -0.324 OA
BRANCH  14  15
HETATM   15  C   UNL     1      21.344  49.799  48.784  1.00  0.00     0.058 C 
HETATM   16  C   UNL     1      20.686  50.615  47.661  1.00  0.00     0.045 C 
HETATM   17  C   UNL     1      21.951  50.698  49.873  1.00  0.00     0.045 C 
HETATM   18  C   UNL     1      20.239  48.953  49.448  1.00  0.00     0.045 C 
ENDBRANCH  14  15
ENDBRANCH  12  14
ENDBRANCH   7   8
ENDBRANCH   1   7
BRANCH   3  19
HETATM   19  C   UNL     1      26.526  42.871  50.091  1.00  0.00     0.095 A 
HETATM   20  C   UNL     1      27.563  42.102  50.883  1.00  0.00     0.043 A 
HETATM   21  C   UNL     1      26.132  41.618  50.816  1.00  0.00     0.037 A 
BRANCH  20  22
HETATM   22  C   UNL     1      28.125  42.599  52.195  1.00  0.00    -0.052 A 
HETATM   23  C   UNL     1      27.280  42.947  53.262  1.00  0.00     0.007 A 
HETATM   24  C   UNL     1      27.790  43.372  54.492  1.00  0.00     0.001 A 
HETATM   25  C   UNL     1      29.167  43.454  54.681  1.00  0.00     0.000 A 
HETATM   26  C   UNL     1      30.027  43.103  53.646  1.00  0.00     0.001 A 
HETATM   27  C   UNL     1      29.509  42.672  52.421  1.00  0.00     0.007 A 
ENDBRANCH  20  22
ENDBRANCH   3  19
TORSDOF 6
ENDMDL
MODEL 5
REMARK VINA RESULT:      -7.9      1.759      9.431
REMARK  6 active torsions:
REMARK  status: ('A' for Active; 'I' for Inactive)
REMARK    1  A    between atoms: C_2  and  O_3 
REMARK    2  A    between atoms: O_3  and  C_4 
REMARK    3  A    between atoms: C_8  and  C_9 
REMARK    4  A    between atoms: C_9  and  N_10 
REMARK       I    between atoms: N_10  and  C_11 
REMARK       I    between atoms: C_11  and  N_12 
REMARK    5  A    between atoms: N_12  and  C_13 
REMARK    6  A    between atoms: C_14  and  C_15 
ROOT
HETATM    1  N   UNL     1      24.255  47.043  51.015  1.00  0.00    -0.339 N 
HETATM    2  C   UNL     1      24.118  47.356  49.686  1.00  0.00     0.316 C 
HETATM    3  N   UNL     1      23.769  48.677  49.510  1.00  0.00    -0.338 N 
HETATM    4  O   UNL     1      24.284  46.559  48.772  1.00  0.00    -0.247 OA
HETATM    5  H   UNL     1      24.506  47.803  51.628  1.00  0.00     0.164 HD
HETATM    6  H   UNL     1      23.213  49.070  50.259  1.00  0.00     0.164 HD
ENDROOT
BRANCH   1   7
HETATM    7  C   UNL     1      24.613  45.708  51.436  1.00  0.00     0.163 C 
BRANCH   7   8
HETATM    8  C   UNL     1      25.606  45.703  52.568  1.00  0.00    -0.035 A 
HETATM    9  C   UNL     1      26.048  46.896  53.147  1.00  0.00     0.028 A 
HETATM   10  C   UNL     1      26.991  46.838  54.158  1.00  0.00     0.120 A 
HETATM   11  N   UNL     1      27.531  45.690  54.619  1.00  0.00    -0.237 NA
HETATM   12  C   UNL     1      27.110  44.551  54.044  1.00  0.00     0.165 A 
HETATM   13  C   UNL     1      26.146  44.504  53.046  1.00  0.00     0.066 A 
BRANCH  12  14
HETATM   14  O   UNL     1      27.605  43.336  54.460  1.00  0.00    -0.324 OA
BRANCH  14  15
HETATM   15  C   UNL     1      28.837  42.849  53.896  1.00  0.00     0.058 C 
HETATM   16  C   UNL     1      30.010  42.922  54.884  1.00  0.00     0.045 C 
HETATM   17  C   UNL     1      29.176  43.502  52.546  1.00  0.00     0.045 C 
HETATM   18  C   UNL     1      28.551  41.358  53.628  1.00  0.00     0.045 C 
ENDBRANCH  14  15
ENDBRANCH  12  14
ENDBRANCH   7   8
ENDBRANCH   1   7
BRANCH   3  19
HETATM   19  C   UNL     1      23.551  49.210  48.195  1.00  0.00     0.095 A 
HETATM   20  C   UNL     1      22.251  49.852  47.759  1.00  0.00     0.043 A 
HETATM   21  C   UNL     1      23.486  50.694  47.983  1.00  0.00     0.037 A 
BRANCH  20  22
HETATM   22  C   UNL     1      21.063  50.002  48.681  1.00  0.00    -0.052 A 
HETATM   23  C   UNL     1      20.598  51.271  49.066  1.00  0.00     0.007 A 
HETATM   24  C   UNL     1      19.478  51.422  49.888  1.00  0.00     0.001 A 
HETATM   25  C   UNL     1      18.793  50.299  50.342  1.00  0.00     0.000 A 
HETATM   26  C   UNL     1      19.223  49.030  49.966  1.00  0.00     0.001 A 
HETATM   27  C   UNL     1      20.341  48.887  49.138  1.00  0.00     0.007 A 
ENDBRANCH  20  22
ENDBRANCH   3  19
TORSDOF 6
ENDMDL
MODEL 6
REMARK VINA RESULT:      -7.8      5.407      8.140
REMARK  6 active torsions:
REMARK  status: ('A' for Active; 'I' for Inactive)
REMARK    1  A    between atoms: C_2  and  O_3 
REMARK    2  A    between atoms: O_3  and  C_4 
REMARK    3  A    between atoms: C_8  and  C_9 
REMARK    4  A    between atoms: C_9  and  N_10 
REMARK       I    between atoms: N_10  and  C_11 
REMARK       I    between atoms: C_11  and  N_12 
REMARK    5  A    between atoms: N_12  and  C_13 
REMARK    6  A    between atoms: C_14  and  C_15 
ROOT
HETATM    1  N   UNL     1      26.555  43.287  52.846  1.00  0.00    -0.339 N 
HETATM    2  C   UNL     1      26.592  44.591  53.272  1.00  0.00     0.316 C 
HETATM    3  N   UNL     1      27.308  44.722  54.441  1.00  0.00    -0.338 N 
HETATM    4  O   UNL     1      26.053  45.520  52.685  1.00  0.00    -0.247 OA
HETATM    5  H   UNL     1      27.327  42.703  53.130  1.00  0.00     0.164 HD
HETATM    6  H   UNL     1      27.275  43.914  55.049  1.00  0.00     0.164 HD
ENDROOT
BRANCH   1   7
HETATM    7  C   UNL     1      25.852  42.913  51.639  1.00  0.00     0.163 C 
BRANCH   7   8
HETATM    8  C   UNL     1      26.699  42.092  50.706  1.00  0.00    -0.035 A 
HETATM    9  C   UNL     1      26.639  42.279  49.321  1.00  0.00     0.028 A 
HETATM   10  C   UNL     1      27.411  41.469  48.505  1.00  0.00     0.120 A 
HETATM   11  N   UNL     1      28.217  40.489  48.962  1.00  0.00    -0.237 NA
HETATM   12  C   UNL     1      28.254  40.309  50.293  1.00  0.00     0.165 A 
HETATM   13  C   UNL     1      27.543  41.088  51.195  1.00  0.00     0.066 A 
BRANCH  12  14
HETATM   14  O   UNL     1      29.056  39.334  50.843  1.00  0.00    -0.324 OA
BRANCH  14  15
HETATM   15  C   UNL     1      29.182  38.066  50.171  1.00  0.00     0.058 C 
HETATM   16  C   UNL     1      30.155  38.118  48.984  1.00  0.00     0.045 C 
HETATM   17  C   UNL     1      27.825  37.460  49.780  1.00  0.00     0.045 C 
HETATM   18  C   UNL     1      29.806  37.147  51.240  1.00  0.00     0.045 C 
ENDBRANCH  14  15
ENDBRANCH  12  14
ENDBRANCH   7   8
ENDBRANCH   1   7
BRANCH   3  19
HETATM   19  C   UNL     1      27.453  46.002  55.074  1.00  0.00     0.095 A 
HETATM   20  C   UNL     1      28.579  46.338  56.029  1.00  0.00     0.043 A 
HETATM   21  C   UNL     1      28.542  46.940  54.643  1.00  0.00     0.037 A 
BRANCH  20  22
HETATM   22  C   UNL     1      29.667  45.354  56.391  1.00  0.00    -0.052 A 
HETATM   23  C   UNL     1      30.268  45.369  57.661  1.00  0.00     0.007 A 
HETATM   24  C   UNL     1      31.248  44.440  58.018  1.00  0.00     0.001 A 
HETATM   25  C   UNL     1      31.647  43.465  57.107  1.00  0.00     0.000 A 
HETATM   26  C   UNL     1      31.058  43.419  55.847  1.00  0.00     0.001 A 
HETATM   27  C   UNL     1      30.074  44.348  55.499  1.00  0.00     0.007 A 
ENDBRANCH  20  22
ENDBRANCH   3  19
TORSDOF 6
ENDMDL
MODEL 7
REMARK VINA RESULT:      -7.7      1.496      2.106
REMARK  6 active torsions:
REMARK  status: ('A' for Active; 'I' for Inactive)
REMARK    1  A    between atoms: C_2  and  O_3 
REMARK    2  A    between atoms: O_3  and  C_4 
REMARK    3  A    between atoms: C_8  and  C_9 
REMARK    4  A    between atoms: C_9  and  N_10 
REMARK       I    between atoms: N_10  and  C_11 
REMARK       I    between atoms: C_11  and  N_12 
REMARK    5  A    between atoms: N_12  and  C_13 
REMARK    6  A    between atoms: C_14  and  C_15 
ROOT
HETATM    1  N   UNL     1      25.739  46.620  50.828  1.00  0.00    -0.339 N 
HETATM    2  C   UNL     1      25.740  46.745  52.194  1.00  0.00     0.316 C 
HETATM    3  N   UNL     1      26.214  45.606  52.806  1.00  0.00    -0.338 N 
HETATM    4  O   UNL     1      25.365  47.744  52.793  1.00  0.00    -0.247 OA
HETATM    5  H   UNL     1      26.416  45.983  50.437  1.00  0.00     0.164 HD
HETATM    6  H   UNL     1      26.029  44.748  52.302  1.00  0.00     0.164 HD
ENDROOT
BRANCH   1   7
HETATM    7  C   UNL     1      25.277  47.696  49.978  1.00  0.00     0.163 C 
BRANCH   7   8
HETATM    8  C   UNL     1      23.967  47.382  49.306  1.00  0.00    -0.035 A 
HETATM    9  C   UNL     1      23.494  46.069  49.223  1.00  0.00     0.028 A 
HETATM   10  C   UNL     1      22.302  45.831  48.560  1.00  0.00     0.120 A 
HETATM   11  N   UNL     1      21.565  46.794  47.967  1.00  0.00    -0.237 NA
HETATM   12  C   UNL     1      22.039  48.049  48.041  1.00  0.00     0.165 A 
HETATM   13  C   UNL     1      23.206  48.392  48.709  1.00  0.00     0.066 A 
BRANCH  12  14
HETATM   14  O   UNL     1      21.344  49.091  47.468  1.00  0.00    -0.324 OA
BRANCH  14  15
HETATM   15  C   UNL     1      20.430  49.854  48.278  1.00  0.00     0.058 C 
HETATM   16  C   UNL     1      20.943  51.269  48.578  1.00  0.00     0.045 C 
HETATM   17  C   UNL     1      19.998  49.112  49.553  1.00  0.00     0.045 C 
HETATM   18  C   UNL     1      19.182  49.996  47.382  1.00  0.00     0.045 C 
ENDBRANCH  14  15
ENDBRANCH  12  14
ENDBRANCH   7   8
ENDBRANCH   1   7
BRANCH   3  19
HETATM   19  C   UNL     1      26.278  45.513  54.237  1.00  0.00     0.095 A 
HETATM   20  C   UNL     1      27.131  44.498  54.970  1.00  0.00     0.043 A 
HETATM   21  C   UNL     1      27.509  45.962  54.969  1.00  0.00     0.037 A 
BRANCH  20  22
HETATM   22  C   UNL     1      28.008  43.497  54.255  1.00  0.00    -0.052 A 
HETATM   23  C   UNL     1      27.504  42.250  53.848  1.00  0.00     0.007 A 
HETATM   24  C   UNL     1      28.296  41.332  53.153  1.00  0.00     0.001 A 
HETATM   25  C   UNL     1      29.617  41.647  52.845  1.00  0.00     0.000 A 
HETATM   26  C   UNL     1      30.138  42.880  53.224  1.00  0.00     0.001 A 
HETATM   27  C   UNL     1      29.338  43.796  53.914  1.00  0.00     0.007 A 
ENDBRANCH  20  22
ENDBRANCH   3  19
TORSDOF 6
ENDMDL
MODEL 8
REMARK VINA RESULT:      -7.5     11.624     14.784
REMARK  6 active torsions:
REMARK  status: ('A' for Active; 'I' for Inactive)
REMARK    1  A    between atoms: C_2  and  O_3 
REMARK    2  A    between atoms: O_3  and  C_4 
REMARK    3  A    between atoms: C_8  and  C_9 
REMARK    4  A    between atoms: C_9  and  N_10 
REMARK       I    between atoms: N_10  and  C_11 
REMARK       I    between atoms: C_11  and  N_12 
REMARK    5  A    between atoms: N_12  and  C_13 
REMARK    6  A    between atoms: C_14  and  C_15 
ROOT
HETATM    1  N   UNL     1      31.394  48.221  40.096  1.00  0.00    -0.339 N 
HETATM    2  C   UNL     1      30.035  48.186  40.279  1.00  0.00     0.316 C 
HETATM    3  N   UNL     1      29.359  48.405  39.099  1.00  0.00    -0.338 N 
HETATM    4  O   UNL     1      29.492  47.986  41.357  1.00  0.00    -0.247 OA
HETATM    5  H   UNL     1      31.727  47.978  39.176  1.00  0.00     0.164 HD
HETATM    6  H   UNL     1      29.841  49.006  38.442  1.00  0.00     0.164 HD
ENDROOT
BRANCH   1   7
HETATM    7  C   UNL     1      32.303  48.021  41.202  1.00  0.00     0.163 C 
BRANCH   7   8
HETATM    8  C   UNL     1      32.639  49.302  41.917  1.00  0.00    -0.035 A 
HETATM    9  C   UNL     1      31.853  49.766  42.976  1.00  0.00     0.028 A 
HETATM   10  C   UNL     1      32.183  50.971  43.573  1.00  0.00     0.120 A 
HETATM   11  N   UNL     1      33.219  51.744  43.186  1.00  0.00    -0.237 NA
HETATM   12  C   UNL     1      33.957  51.295  42.157  1.00  0.00     0.165 A 
HETATM   13  C   UNL     1      33.725  50.087  41.514  1.00  0.00     0.066 A 
BRANCH  12  14
HETATM   14  O   UNL     1      35.036  52.021  41.704  1.00  0.00    -0.324 OA
BRANCH  14  15
HETATM   15  C   UNL     1      36.268  51.986  42.448  1.00  0.00     0.058 C 
HETATM   16  C   UNL     1      36.920  50.596  42.450  1.00  0.00     0.045 C 
HETATM   17  C   UNL     1      36.125  52.560  43.867  1.00  0.00     0.045 C 
HETATM   18  C   UNL     1      37.197  52.931  41.660  1.00  0.00     0.045 C 
ENDBRANCH  14  15
ENDBRANCH  12  14
ENDBRANCH   7   8
ENDBRANCH   1   7
BRANCH   3  19
HETATM   19  C   UNL     1      27.924  48.434  39.068  1.00  0.00     0.095 A 
HETATM   20  C   UNL     1      27.109  49.689  39.294  1.00  0.00     0.043 A 
HETATM   21  C   UNL     1      27.206  49.074  37.917  1.00  0.00     0.037 A 
BRANCH  20  22
HETATM   22  C   UNL     1      27.739  51.037  39.558  1.00  0.00    -0.052 A 
HETATM   23  C   UNL     1      27.886  51.526  40.868  1.00  0.00     0.007 A 
HETATM   24  C   UNL     1      28.501  52.754  41.126  1.00  0.00     0.001 A 
HETATM   25  C   UNL     1      28.988  53.522  40.072  1.00  0.00     0.000 A 
HETATM   26  C   UNL     1      28.868  53.056  38.766  1.00  0.00     0.001 A 
HETATM   27  C   UNL     1      28.258  51.824  38.516  1.00  0.00     0.007 A 
ENDBRANCH  20  22
ENDBRANCH   3  19
TORSDOF 6
ENDMDL
MODEL 9
REMARK VINA RESULT:      -7.4      2.343      9.711
REMARK  6 active torsions:
REMARK  status: ('A' for Active; 'I' for Inactive)
REMARK    1  A    between atoms: C_2  and  O_3 
REMARK    2  A    between atoms: O_3  and  C_4 
REMARK    3  A    between atoms: C_8  and  C_9 
REMARK    4  A    between atoms: C_9  and  N_10 
REMARK       I    between atoms: N_10  and  C_11 
REMARK       I    between atoms: C_11  and  N_12 
REMARK    5  A    between atoms: N_12  and  C_13 
REMARK    6  A    between atoms: C_14  and  C_15 
ROOT
HETATM    1  N   UNL     1      22.946  48.096  49.617  1.00  0.00    -0.339 N 
HETATM    2  C   UNL     1      22.729  49.446  49.497  1.00  0.00     0.316 C 
HETATM    3  N   UNL     1      21.384  49.744  49.496  1.00  0.00    -0.338 N 
HETATM    4  O   UNL     1      23.620  50.279  49.403  1.00  0.00    -0.247 OA
HETATM    5  H   UNL     1      22.228  47.569  50.089  1.00  0.00     0.164 HD
HETATM    6  H   UNL     1      20.793  49.023  49.101  1.00  0.00     0.164 HD
ENDROOT
BRANCH   1   7
HETATM    7  C   UNL     1      24.286  47.553  49.637  1.00  0.00     0.163 C 
BRANCH   7   8
HETATM    8  C   UNL     1      24.354  46.200  50.292  1.00  0.00    -0.035 A 
HETATM    9  C   UNL     1      23.806  45.071  49.677  1.00  0.00     0.028 A 
HETATM   10  C   UNL     1      23.860  43.857  50.341  1.00  0.00     0.120 A 
HETATM   11  N   UNL     1      24.403  43.692  51.566  1.00  0.00    -0.237 NA
HETATM   12  C   UNL     1      24.912  44.789  52.153  1.00  0.00     0.165 A 
HETATM   13  C   UNL     1      24.933  46.042  51.556  1.00  0.00     0.066 A 
BRANCH  12  14
HETATM   14  O   UNL     1      25.489  44.707  53.400  1.00  0.00    -0.324 OA
BRANCH  14  15
HETATM   15  C   UNL     1      26.911  44.503  53.504  1.00  0.00     0.058 C 
HETATM   16  C   UNL     1      27.627  45.670  54.200  1.00  0.00     0.045 C 
HETATM   17  C   UNL     1      27.563  44.144  52.159  1.00  0.00     0.045 C 
HETATM   18  C   UNL     1      27.037  43.270  54.421  1.00  0.00     0.045 C 
ENDBRANCH  14  15
ENDBRANCH  12  14
ENDBRANCH   7   8
ENDBRANCH   1   7
BRANCH   3  19
HETATM   19  C   UNL     1      20.932  51.099  49.356  1.00  0.00     0.095 A 
HETATM   20  C   UNL     1      19.765  51.504  48.480  1.00  0.00     0.043 A 
HETATM   21  C   UNL     1      19.641  51.533  49.986  1.00  0.00     0.037 A 
BRANCH  20  22
HETATM   22  C   UNL     1      18.958  50.507  47.680  1.00  0.00    -0.052 A 
HETATM   23  C   UNL     1      19.195  50.314  46.308  1.00  0.00     0.007 A 
HETATM   24  C   UNL     1      18.480  49.369  45.568  1.00  0.00     0.001 A 
HETATM   25  C   UNL     1      17.509  48.589  46.190  1.00  0.00     0.000 A 
HETATM   26  C   UNL     1      17.264  48.750  47.550  1.00  0.00     0.001 A 
HETATM   27  C   UNL     1      17.987  49.692  48.286  1.00  0.00     0.007 A 
ENDBRANCH  20  22
ENDBRANCH   3  19
TORSDOF 6
ENDMDL
MODEL 10
REMARK VINA RESULT:      -7.4      3.818      7.760
REMARK  6 active torsions:
REMARK  status: ('A' for Active; 'I' for Inactive)
REMARK    1  A    between atoms: C_2  and  O_3 
REMARK    2  A    between atoms: O_3  and  C_4 
REMARK    3  A    between atoms: C_8  and  C_9 
REMARK    4  A    between atoms: C_9  and  N_10 
REMARK       I    between atoms: N_10  and  C_11 
REMARK       I    between atoms: C_11  and  N_12 
REMARK    5  A    between atoms: N_12  and  C_13 
REMARK    6  A    between atoms: C_14  and  C_15 
ROOT
HETATM    1  N   UNL     1      27.252  42.279  53.093  1.00  0.00    -0.339 N 
HETATM    2  C   UNL     1      27.015  42.077  51.757  1.00  0.00     0.316 C 
HETATM    3  N   UNL     1      25.688  42.270  51.442  1.00  0.00    -0.338 N 
HETATM    4  O   UNL     1      27.877  41.762  50.947  1.00  0.00    -0.247 OA
HETATM    5  H   UNL     1      26.622  42.908  53.567  1.00  0.00     0.164 HD
HETATM    6  H   UNL     1      25.041  42.044  52.187  1.00  0.00     0.164 HD
ENDROOT
BRANCH   1   7
HETATM    7  C   UNL     1      28.577  42.127  53.650  1.00  0.00     0.163 C 
BRANCH   7   8
HETATM    8  C   UNL     1      28.985  43.295  54.506  1.00  0.00    -0.035 A 
HETATM    9  C   UNL     1      30.279  43.395  55.025  1.00  0.00     0.028 A 
HETATM   10  C   UNL     1      30.590  44.470  55.839  1.00  0.00     0.120 A 
HETATM   11  N   UNL     1      29.711  45.436  56.181  1.00  0.00    -0.237 NA
HETATM   12  C   UNL     1      28.466  45.320  55.688  1.00  0.00     0.165 A 
HETATM   13  C   UNL     1      28.066  44.297  54.839  1.00  0.00     0.066 A 
BRANCH  12  14
HETATM   14  O   UNL     1      27.510  46.266  55.982  1.00  0.00    -0.324 OA
BRANCH  14  15
HETATM   15  C   UNL     1      27.180  47.262  54.996  1.00  0.00     0.058 C 
HETATM   16  C   UNL     1      26.123  46.776  53.994  1.00  0.00     0.045 C 
HETATM   17  C   UNL     1      28.418  47.842  54.294  1.00  0.00     0.045 C 
HETATM   18  C   UNL     1      26.544  48.398  55.823  1.00  0.00     0.045 C 
ENDBRANCH  14  15
ENDBRANCH  12  14
ENDBRANCH   7   8
ENDBRANCH   1   7
BRANCH   3  19
HETATM   19  C   UNL     1      25.217  42.086  50.099  1.00  0.00     0.095 A 
HETATM   20  C   UNL     1      24.952  43.230  49.143  1.00  0.00     0.043 A 
HETATM   21  C   UNL     1      26.138  42.315  48.937  1.00  0.00     0.037 A 
BRANCH  20  22
HETATM   22  C   UNL     1      25.178  44.677  49.516  1.00  0.00    -0.052 A 
HETATM   23  C   UNL     1      26.468  45.233  49.525  1.00  0.00     0.007 A 
HETATM   24  C   UNL     1      26.683  46.579  49.832  1.00  0.00     0.001 A 
HETATM   25  C   UNL     1      25.603  47.404  50.134  1.00  0.00     0.000 A 
HETATM   26  C   UNL     1      24.313  46.883  50.119  1.00  0.00     0.001 A 
HETATM   27  C   UNL     1      24.105  45.537  49.805  1.00  0.00     0.007 A 
ENDBRANCH  20  22
ENDBRANCH   3  19
TORSDOF 6
ENDMDL
