MODEL 1
REMARK VINA RESULT:      -9.4      0.000      0.000
REMARK  10 active torsions:
REMARK  status: ('A' for Active; 'I' for Inactive)
REMARK    1  A    between atoms: N_2  and  C_3 
REMARK    2  A    between atoms: C_3  and  C_4 
REMARK       I    between atoms: C_4  and  N_5 
REMARK    3  A    between atoms: N_5  and  C_6 
REMARK    4  A    between atoms: C_6  and  C_7 
REMARK    5  A    between atoms: C_7  and  C_8 
REMARK    6  A    between atoms: C_8  and  C_9 
REMARK       I    between atoms: C_9  and  N_10 
REMARK    7  A    between atoms: N_10  and  C_11 
REMARK    8  A    between atoms: C_11  and  C_12 
REMARK    9  A    between atoms: C_12  and  C_13 
REMARK   10  A    between atoms: C_13  and  N_14 
ROOT
HETATM    1  C   UNL     1      26.473  43.401  50.316  1.00  0.00     0.235 C 
HETATM    2  N   UNL     1      25.114  43.570  50.120  1.00  0.00    -0.360 N 
HETATM    3  O   UNL     1      27.314  43.809  49.521  1.00  0.00    -0.272 OA
HETATM    4  H   UNL     1      24.457  43.175  50.782  1.00  0.00     0.162 HD
ENDROOT
BRANCH   2   5
HETATM    5  C   UNL     1      24.589  44.247  48.953  1.00  0.00     0.123 C 
BRANCH   5   6
HETATM    6  C   UNL     1      23.717  45.441  49.332  1.00  0.00     0.029 C 
BRANCH   6   7
HETATM    7  C   UNL     1      24.402  46.302  50.386  1.00  0.00     0.104 C 
BRANCH   7   8
HETATM    8  C   UNL     1      24.402  47.757  49.976  1.00  0.00     0.217 C 
HETATM    9  N   UNL     1      23.151  48.312  49.821  1.00  0.00    -0.361 N 
HETATM   10  H   UNL     1      22.348  47.690  49.849  1.00  0.00     0.162 HD
HETATM   11  O   UNL     1      25.434  48.410  49.855  1.00  0.00    -0.274 OA
BRANCH   9  12
HETATM   12  C   UNL     1      22.964  49.639  49.268  1.00  0.00     0.124 C 
BRANCH  12  13
HETATM   13  C   UNL     1      22.278  49.642  47.899  1.00  0.00     0.047 C 
BRANCH  13  14
HETATM   14  C   UNL     1      21.001  48.803  47.883  1.00  0.00     0.236 C 
BRANCH  14  15
HETATM   15  N   UNL     1      19.760  49.639  48.223  1.00  0.00    -0.071 N 
HETATM   16  H   UNL     1      18.953  49.128  47.841  1.00  0.00     0.279 HD
HETATM   17  C   UNL     1      19.565  49.773  49.715  1.00  0.00     0.235 C 
HETATM   18  C   UNL     1      18.292  50.521  50.090  1.00  0.00     0.028 C 
HETATM   19  C   UNL     1      18.401  52.028  49.886  1.00  0.00     0.002 C 
HETATM   20  C   UNL     1      18.055  52.506  48.482  1.00  0.00     0.002 C 
HETATM   21  C   UNL     1      18.469  51.596  47.332  1.00  0.00     0.028 C 
HETATM   22  C   UNL     1      19.846  50.965  47.479  1.00  0.00     0.235 C 
ENDBRANCH  14  15
ENDBRANCH  13  14
ENDBRANCH  12  13
ENDBRANCH   9  12
ENDBRANCH   7   8
ENDBRANCH   6   7
ENDBRANCH   5   6
ENDBRANCH   2   5
BRANCH   1  23
HETATM   23  C   UNL     1      26.815  42.715  51.640  1.00  0.00     0.235 C 
BRANCH  23  24
HETATM   24  N   UNL     1      27.280  43.672  52.625  1.00  0.00    -0.299 N 
HETATM   25  C   UNL     1      26.684  44.916  52.717  1.00  0.00     0.214 A 
HETATM   26  N   UNL     1      26.974  45.829  53.586  1.00  0.00    -0.235 NA
HETATM   27  C   UNL     1      27.965  45.484  54.446  1.00  0.00     0.115 A 
HETATM   28  C   UNL     1      28.687  44.308  54.442  1.00  0.00     0.075 A 
HETATM   29  S   UNL     1      28.447  46.523  55.710  1.00  0.00    -0.073 SA
HETATM   30  C   UNL     1      28.347  43.309  53.443  1.00  0.00     0.262 A 
HETATM   31  C   UNL     1      29.679  44.275  55.475  1.00  0.00    -0.026 A 
HETATM   32  O   UNL     1      28.935  42.233  53.346  1.00  0.00    -0.267 OA
HETATM   33  C   UNL     1      29.620  45.416  56.253  1.00  0.00    -0.008 A 
HETATM   34  C   UNL     1      30.650  43.169  55.767  1.00  0.00     0.041 C 
HETATM   35  C   UNL     1      30.494  45.709  57.433  1.00  0.00     0.047 C 
HETATM   36  C   UNL     1      31.207  44.432  57.902  1.00  0.00     0.005 C 
HETATM   37  C   UNL     1      31.765  43.627  56.721  1.00  0.00     0.005 C 
ENDBRANCH  23  24
ENDBRANCH   1  23
TORSDOF 10
ENDMDL
MODEL 2
REMARK VINA RESULT:      -9.4      2.288      3.068
REMARK  10 active torsions:
REMARK  status: ('A' for Active; 'I' for Inactive)
REMARK    1  A    between atoms: N_2  and  C_3 
REMARK    2  A    between atoms: C_3  and  C_4 
REMARK       I    between atoms: C_4  and  N_5 
REMARK    3  A    between atoms: N_5  and  C_6 
REMARK    4  A    between atoms: C_6  and  C_7 
REMARK    5  A    between atoms: C_7  and  C_8 
REMARK    6  A    between atoms: C_8  and  C_9 
REMARK       I    between atoms: C_9  and  N_10 
REMARK    7  A    between atoms: N_10  and  C_11 
REMARK    8  A    between atoms: C_11  and  C_12 
REMARK    9  A    between atoms: C_12  and  C_13 
REMARK   10  A    between atoms: C_13  and  N_14 
ROOT
HETATM    1  C   UNL     1      24.511  45.091  50.105  1.00  0.00     0.235 C 
HETATM    2  N   UNL     1      23.495  46.027  50.044  1.00  0.00    -0.360 N 
HETATM    3  O   UNL     1      25.306  44.913  49.187  1.00  0.00    -0.272 OA
HETATM    4  H   UNL     1      22.836  46.104  50.810  1.00  0.00     0.162 HD
ENDROOT
BRANCH   2   5
HETATM    5  C   UNL     1      23.299  46.868  48.882  1.00  0.00     0.123 C 
BRANCH   5   6
HETATM    6  C   UNL     1      21.864  46.802  48.366  1.00  0.00     0.029 C 
BRANCH   6   7
HETATM    7  C   UNL     1      21.370  45.361  48.317  1.00  0.00     0.104 C 
BRANCH   7   8
HETATM    8  C   UNL     1      19.864  45.313  48.202  1.00  0.00     0.217 C 
HETATM    9  N   UNL     1      19.249  46.545  48.162  1.00  0.00    -0.361 N 
HETATM   10  H   UNL     1      19.816  47.366  48.352  1.00  0.00     0.162 HD
HETATM   11  O   UNL     1      19.244  44.260  48.087  1.00  0.00    -0.274 OA
BRANCH   9  12
HETATM   12  C   UNL     1      17.807  46.685  48.225  1.00  0.00     0.124 C 
BRANCH  12  13
HETATM   13  C   UNL     1      17.336  47.713  49.257  1.00  0.00     0.047 C 
BRANCH  13  14
HETATM   14  C   UNL     1      18.434  48.087  50.253  1.00  0.00     0.236 C 
BRANCH  14  15
HETATM   15  N   UNL     1      18.850  49.558  50.125  1.00  0.00    -0.071 N 
HETATM   16  H   UNL     1      18.883  49.934  51.082  1.00  0.00     0.279 HD
HETATM   17  C   UNL     1      20.226  49.701  49.518  1.00  0.00     0.235 C 
HETATM   18  C   UNL     1      20.709  51.145  49.459  1.00  0.00     0.028 C 
HETATM   19  C   UNL     1      20.046  51.952  48.349  1.00  0.00     0.002 C 
HETATM   20  C   UNL     1      18.724  52.600  48.737  1.00  0.00     0.002 C 
HETATM   21  C   UNL     1      17.826  51.803  49.677  1.00  0.00     0.028 C 
HETATM   22  C   UNL     1      17.755  50.312  49.382  1.00  0.00     0.235 C 
ENDBRANCH  14  15
ENDBRANCH  13  14
ENDBRANCH  12  13
ENDBRANCH   9  12
ENDBRANCH   7   8
ENDBRANCH   6   7
ENDBRANCH   5   6
ENDBRANCH   2   5
BRANCH   1  23
HETATM   23  C   UNL     1      24.579  44.353  51.443  1.00  0.00     0.235 C 
BRANCH  23  24
HETATM   24  N   UNL     1      25.516  44.987  52.349  1.00  0.00    -0.299 N 
HETATM   25  C   UNL     1      25.313  46.294  52.753  1.00  0.00     0.214 A 
HETATM   26  N   UNL     1      26.046  46.946  53.595  1.00  0.00    -0.235 NA
HETATM   27  C   UNL     1      27.098  46.241  54.080  1.00  0.00     0.115 A 
HETATM   28  C   UNL     1      27.460  44.955  53.730  1.00  0.00     0.075 A 
HETATM   29  S   UNL     1      28.145  46.899  55.255  1.00  0.00    -0.073 SA
HETATM   30  C   UNL     1      26.624  44.256  52.770  1.00  0.00     0.262 A 
HETATM   31  C   UNL     1      28.640  44.517  54.413  1.00  0.00    -0.026 A 
HETATM   32  O   UNL     1      26.864  43.113  52.382  1.00  0.00    -0.267 OA
HETATM   33  C   UNL     1      29.085  45.482  55.299  1.00  0.00    -0.008 A 
HETATM   34  C   UNL     1      29.328  43.191  54.279  1.00  0.00     0.041 C 
HETATM   35  C   UNL     1      30.279  45.355  56.194  1.00  0.00     0.047 C 
HETATM   36  C   UNL     1      30.728  43.888  56.284  1.00  0.00     0.005 C 
HETATM   37  C   UNL     1      30.731  43.210  54.907  1.00  0.00     0.005 C 
ENDBRANCH  23  24
ENDBRANCH   1  23
TORSDOF 10
ENDMDL
MODEL 3
REMARK VINA RESULT:      -9.4      1.936      2.999
REMARK  10 active torsions:
REMARK  status: ('A' for Active; 'I' for Inactive)
REMARK    1  A    between atoms: N_2  and  C_3 
REMARK    2  A    between atoms: C_3  and  C_4 
REMARK       I    between atoms: C_4  and  N_5 
REMARK    3  A    between atoms: N_5  and  C_6 
REMARK    4  A    between atoms: C_6  and  C_7 
REMARK    5  A    between atoms: C_7  and  C_8 
REMARK    6  A    between atoms: C_8  and  C_9 
REMARK       I    between atoms: C_9  and  N_10 
REMARK    7  A    between atoms: N_10  and  C_11 
REMARK    8  A    between atoms: C_11  and  C_12 
REMARK    9  A    between atoms: C_12  and  C_13 
REMARK   10  A    between atoms: C_13  and  N_14 
ROOT
HETATM    1  C   UNL     1      25.225  45.907  50.163  1.00  0.00     0.235 C 
HETATM    2  N   UNL     1      25.157  47.261  50.442  1.00  0.00    -0.360 N 
HETATM    3  O   UNL     1      25.691  45.469  49.116  1.00  0.00    -0.272 OA
HETATM    4  H   UNL     1      24.722  47.575  51.301  1.00  0.00     0.162 HD
ENDROOT
BRANCH   2   5
HETATM    5  C   UNL     1      25.636  48.259  49.509  1.00  0.00     0.123 C 
BRANCH   5   6
HETATM    6  C   UNL     1      24.490  49.044  48.878  1.00  0.00     0.029 C 
BRANCH   6   7
HETATM    7  C   UNL     1      23.157  48.667  49.514  1.00  0.00     0.104 C 
BRANCH   7   8
HETATM    8  C   UNL     1      22.292  47.905  48.538  1.00  0.00     0.217 C 
HETATM    9  N   UNL     1      21.185  47.304  49.095  1.00  0.00    -0.361 N 
HETATM   10  H   UNL     1      21.109  47.293  50.108  1.00  0.00     0.162 HD
HETATM   11  O   UNL     1      22.522  47.879  47.332  1.00  0.00    -0.274 OA
BRANCH   9  12
HETATM   12  C   UNL     1      20.344  46.395  48.340  1.00  0.00     0.124 C 
BRANCH  12  13
HETATM   13  C   UNL     1      18.892  46.867  48.213  1.00  0.00     0.047 C 
BRANCH  13  14
HETATM   14  C   UNL     1      18.762  48.140  47.377  1.00  0.00     0.236 C 
BRANCH  14  15
HETATM   15  N   UNL     1      18.980  49.405  48.218  1.00  0.00    -0.071 N 
HETATM   16  H   UNL     1      19.456  49.102  49.078  1.00  0.00     0.279 HD
HETATM   17  C   UNL     1      19.874  50.399  47.514  1.00  0.00     0.235 C 
HETATM   18  C   UNL     1      20.185  51.629  48.359  1.00  0.00     0.028 C 
HETATM   19  C   UNL     1      19.021  52.609  48.441  1.00  0.00     0.002 C 
HETATM   20  C   UNL     1      18.023  52.320  49.554  1.00  0.00     0.002 C 
HETATM   21  C   UNL     1      17.745  50.851  49.853  1.00  0.00     0.028 C 
HETATM   22  C   UNL     1      17.622  49.960  48.626  1.00  0.00     0.235 C 
ENDBRANCH  14  15
ENDBRANCH  13  14
ENDBRANCH  12  13
ENDBRANCH   9  12
ENDBRANCH   7   8
ENDBRANCH   6   7
ENDBRANCH   5   6
ENDBRANCH   2   5
BRANCH   1  23
HETATM   23  C   UNL     1      24.723  45.025  51.307  1.00  0.00     0.235 C 
BRANCH  23  24
HETATM   24  N   UNL     1      25.812  44.301  51.932  1.00  0.00    -0.299 N 
HETATM   25  C   UNL     1      26.128  43.024  51.509  1.00  0.00     0.214 A 
HETATM   26  N   UNL     1      27.107  42.303  51.950  1.00  0.00    -0.235 NA
HETATM   27  C   UNL     1      27.844  42.899  52.921  1.00  0.00     0.115 A 
HETATM   28  C   UNL     1      27.618  44.140  53.482  1.00  0.00     0.075 A 
HETATM   29  S   UNL     1      29.220  42.141  53.585  1.00  0.00    -0.073 SA
HETATM   30  C   UNL     1      26.500  44.918  52.974  1.00  0.00     0.262 A 
HETATM   31  C   UNL     1      28.572  44.458  54.502  1.00  0.00    -0.026 A 
HETATM   32  O   UNL     1      26.205  46.029  53.412  1.00  0.00    -0.267 OA
HETATM   33  C   UNL     1      29.517  43.456  54.623  1.00  0.00    -0.008 A 
HETATM   34  C   UNL     1      28.633  45.707  55.330  1.00  0.00     0.041 C 
HETATM   35  C   UNL     1      30.673  43.464  55.575  1.00  0.00     0.047 C 
HETATM   36  C   UNL     1      30.899  44.878  56.133  1.00  0.00     0.005 C 
HETATM   37  C   UNL     1      29.577  45.547  56.533  1.00  0.00     0.005 C 
ENDBRANCH  23  24
ENDBRANCH   1  23
TORSDOF 10
ENDMDL
MODEL 4
REMARK VINA RESULT:      -9.2      1.083      1.591
REMARK  10 active torsions:
REMARK  status: ('A' for Active; 'I' for Inactive)
REMARK    1  A    between atoms: N_2  and  C_3 
REMARK    2  A    between atoms: C_3  and  C_4 
REMARK       I    between atoms: C_4  and  N_5 
REMARK    3  A    between atoms: N_5  and  C_6 
REMARK    4  A    between atoms: C_6  and  C_7 
REMARK    5  A    between atoms: C_7  and  C_8 
REMARK    6  A    between atoms: C_8  and  C_9 
REMARK       I    between atoms: C_9  and  N_10 
REMARK    7  A    between atoms: N_10  and  C_11 
REMARK    8  A    between atoms: C_11  and  C_12 
REMARK    9  A    between atoms: C_12  and  C_13 
REMARK   10  A    between atoms: C_13  and  N_14 
ROOT
HETATM    1  C   UNL     1      26.399  43.776  50.284  1.00  0.00     0.235 C 
HETATM    2  N   UNL     1      25.043  43.894  50.037  1.00  0.00    -0.360 N 
HETATM    3  O   UNL     1      27.252  44.285  49.563  1.00  0.00    -0.272 OA
HETATM    4  H   UNL     1      24.380  43.417  50.635  1.00  0.00     0.162 HD
ENDROOT
BRANCH   2   5
HETATM    5  C   UNL     1      24.535  44.633  48.900  1.00  0.00     0.123 C 
BRANCH   5   6
HETATM    6  C   UNL     1      23.839  45.923  49.326  1.00  0.00     0.029 C 
BRANCH   6   7
HETATM    7  C   UNL     1      24.806  46.848  50.055  1.00  0.00     0.104 C 
BRANCH   7   8
HETATM    8  C   UNL     1      24.800  48.227  49.437  1.00  0.00     0.217 C 
HETATM    9  N   UNL     1      23.604  48.596  48.861  1.00  0.00    -0.361 N 
HETATM   10  H   UNL     1      22.883  47.887  48.766  1.00  0.00     0.162 HD
HETATM   11  O   UNL     1      25.764  48.984  49.501  1.00  0.00    -0.274 OA
BRANCH   9  12
HETATM   12  C   UNL     1      23.473  49.808  48.076  1.00  0.00     0.124 C 
BRANCH  12  13
HETATM   13  C   UNL     1      22.747  50.939  48.812  1.00  0.00     0.047 C 
BRANCH  13  14
HETATM   14  C   UNL     1      21.253  50.980  48.492  1.00  0.00     0.236 C 
BRANCH  14  15
HETATM   15  N   UNL     1      20.529  49.712  48.963  1.00  0.00    -0.071 N 
HETATM   16  H   UNL     1      21.243  49.117  49.403  1.00  0.00     0.279 HD
HETATM   17  C   UNL     1      19.474  50.020  50.000  1.00  0.00     0.235 C 
HETATM   18  C   UNL     1      18.796  48.773  50.555  1.00  0.00     0.028 C 
HETATM   19  C   UNL     1      17.787  48.161  49.592  1.00  0.00     0.002 C 
HETATM   20  C   UNL     1      18.379  47.175  48.594  1.00  0.00     0.002 C 
HETATM   21  C   UNL     1      19.772  47.497  48.063  1.00  0.00     0.028 C 
HETATM   22  C   UNL     1      20.010  48.965  47.742  1.00  0.00     0.235 C 
ENDBRANCH  14  15
ENDBRANCH  13  14
ENDBRANCH  12  13
ENDBRANCH   9  12
ENDBRANCH   7   8
ENDBRANCH   6   7
ENDBRANCH   5   6
ENDBRANCH   2   5
BRANCH   1  23
HETATM   23  C   UNL     1      26.718  43.007  51.568  1.00  0.00     0.235 C 
BRANCH  23  24
HETATM   24  N   UNL     1      27.177  43.898  52.616  1.00  0.00    -0.299 N 
HETATM   25  C   UNL     1      26.544  45.109  52.821  1.00  0.00     0.214 A 
HETATM   26  N   UNL     1      26.827  45.959  53.754  1.00  0.00    -0.235 NA
HETATM   27  C   UNL     1      27.849  45.581  54.561  1.00  0.00     0.115 A 
HETATM   28  C   UNL     1      28.609  44.434  54.446  1.00  0.00     0.075 A 
HETATM   29  S   UNL     1      28.329  46.532  55.894  1.00  0.00    -0.073 SA
HETATM   30  C   UNL     1      28.275  43.507  53.378  1.00  0.00     0.262 A 
HETATM   31  C   UNL     1      29.627  44.352  55.450  1.00  0.00    -0.026 A 
HETATM   32  O   UNL     1      28.896  42.463  53.181  1.00  0.00    -0.267 OA
HETATM   33  C   UNL     1      29.551  45.426  56.319  1.00  0.00    -0.008 A 
HETATM   34  C   UNL     1      30.640  43.261  55.630  1.00  0.00     0.041 C 
HETATM   35  C   UNL     1      30.445  45.653  57.499  1.00  0.00     0.047 C 
HETATM   36  C   UNL     1      31.210  44.367  57.847  1.00  0.00     0.005 C 
HETATM   37  C   UNL     1      31.764  43.679  56.592  1.00  0.00     0.005 C 
ENDBRANCH  23  24
ENDBRANCH   1  23
TORSDOF 10
ENDMDL
MODEL 5
REMARK VINA RESULT:      -9.1      2.232      3.070
REMARK  10 active torsions:
REMARK  status: ('A' for Active; 'I' for Inactive)
REMARK    1  A    between atoms: N_2  and  C_3 
REMARK    2  A    between atoms: C_3  and  C_4 
REMARK       I    between atoms: C_4  and  N_5 
REMARK    3  A    between atoms: N_5  and  C_6 
REMARK    4  A    between atoms: C_6  and  C_7 
REMARK    5  A    between atoms: C_7  and  C_8 
REMARK    6  A    between atoms: C_8  and  C_9 
REMARK       I    between atoms: C_9  and  N_10 
REMARK    7  A    between atoms: N_10  and  C_11 
REMARK    8  A    between atoms: C_11  and  C_12 
REMARK    9  A    between atoms: C_12  and  C_13 
REMARK   10  A    between atoms: C_13  and  N_14 
ROOT
HETATM    1  C   UNL     1      25.681  47.140  51.607  1.00  0.00     0.235 C 
HETATM    2  N   UNL     1      24.615  46.436  51.076  1.00  0.00    -0.360 N 
HETATM    3  O   UNL     1      26.414  47.848  50.924  1.00  0.00    -0.272 OA
HETATM    4  H   UNL     1      24.066  45.829  51.673  1.00  0.00     0.162 HD
ENDROOT
BRANCH   2   5
HETATM    5  C   UNL     1      24.290  46.489  49.666  1.00  0.00     0.123 C 
BRANCH   5   6
HETATM    6  C   UNL     1      24.006  45.103  49.095  1.00  0.00     0.029 C 
BRANCH   6   7
HETATM    7  C   UNL     1      22.655  44.584  49.575  1.00  0.00     0.104 C 
BRANCH   7   8
HETATM    8  C   UNL     1      21.567  44.918  48.582  1.00  0.00     0.217 C 
HETATM    9  N   UNL     1      20.333  45.166  49.140  1.00  0.00    -0.361 N 
HETATM   10  H   UNL     1      20.210  44.971  50.129  1.00  0.00     0.162 HD
HETATM   11  O   UNL     1      21.782  45.026  47.378  1.00  0.00    -0.274 OA
BRANCH   9  12
HETATM   12  C   UNL     1      19.143  45.334  48.328  1.00  0.00     0.124 C 
BRANCH  12  13
HETATM   13  C   UNL     1      18.565  46.751  48.373  1.00  0.00     0.047 C 
BRANCH  13  14
HETATM   14  C   UNL     1      19.422  47.706  49.206  1.00  0.00     0.236 C 
BRANCH  14  15
HETATM   15  N   UNL     1      18.910  49.150  49.133  1.00  0.00    -0.071 N 
HETATM   16  H   UNL     1      17.993  49.156  49.599  1.00  0.00     0.279 HD
HETATM   17  C   UNL     1      19.817  50.105  49.874  1.00  0.00     0.235 C 
HETATM   18  C   UNL     1      19.291  51.535  49.899  1.00  0.00     0.028 C 
HETATM   19  C   UNL     1      19.473  52.262  48.572  1.00  0.00     0.002 C 
HETATM   20  C   UNL     1      18.342  52.055  47.574  1.00  0.00     0.002 C 
HETATM   21  C   UNL     1      17.700  50.672  47.550  1.00  0.00     0.028 C 
HETATM   22  C   UNL     1      18.676  49.512  47.673  1.00  0.00     0.235 C 
ENDBRANCH  14  15
ENDBRANCH  13  14
ENDBRANCH  12  13
ENDBRANCH   9  12
ENDBRANCH   7   8
ENDBRANCH   6   7
ENDBRANCH   5   6
ENDBRANCH   2   5
BRANCH   1  23
HETATM   23  C   UNL     1      25.810  46.995  53.124  1.00  0.00     0.235 C 
BRANCH  23  24
HETATM   24  N   UNL     1      26.810  46.006  53.476  1.00  0.00    -0.299 N 
HETATM   25  C   UNL     1      27.045  44.931  52.638  1.00  0.00     0.214 A 
HETATM   26  N   UNL     1      27.944  44.018  52.816  1.00  0.00    -0.235 NA
HETATM   27  C   UNL     1      28.680  44.174  53.946  1.00  0.00     0.115 A 
HETATM   28  C   UNL     1      28.525  45.159  54.900  1.00  0.00     0.075 A 
HETATM   29  S   UNL     1      29.961  43.114  54.325  1.00  0.00    -0.073 SA
HETATM   30  C   UNL     1      27.496  46.160  54.678  1.00  0.00     0.262 A 
HETATM   31  C   UNL     1      29.453  45.019  55.982  1.00  0.00    -0.026 A 
HETATM   32  O   UNL     1      27.268  47.073  55.471  1.00  0.00    -0.267 OA
HETATM   33  C   UNL     1      30.312  43.957  55.762  1.00  0.00    -0.008 A 
HETATM   34  C   UNL     1      29.574  45.893  57.195  1.00  0.00     0.041 C 
HETATM   35  C   UNL     1      31.420  43.533  56.675  1.00  0.00     0.047 C 
HETATM   36  C   UNL     1      31.729  44.640  57.694  1.00  0.00     0.005 C 
HETATM   37  C   UNL     1      30.446  45.244  58.281  1.00  0.00     0.005 C 
ENDBRANCH  23  24
ENDBRANCH   1  23
TORSDOF 10
ENDMDL
MODEL 6
REMARK VINA RESULT:      -9.1      1.425      1.894
REMARK  10 active torsions:
REMARK  status: ('A' for Active; 'I' for Inactive)
REMARK    1  A    between atoms: N_2  and  C_3 
REMARK    2  A    between atoms: C_3  and  C_4 
REMARK       I    between atoms: C_4  and  N_5 
REMARK    3  A    between atoms: N_5  and  C_6 
REMARK    4  A    between atoms: C_6  and  C_7 
REMARK    5  A    between atoms: C_7  and  C_8 
REMARK    6  A    between atoms: C_8  and  C_9 
REMARK       I    between atoms: C_9  and  N_10 
REMARK    7  A    between atoms: N_10  and  C_11 
REMARK    8  A    between atoms: C_11  and  C_12 
REMARK    9  A    between atoms: C_12  and  C_13 
REMARK   10  A    between atoms: C_13  and  N_14 
ROOT
HETATM    1  C   UNL     1      26.582  42.397  50.232  1.00  0.00     0.235 C 
HETATM    2  N   UNL     1      25.243  42.136  50.458  1.00  0.00    -0.360 N 
HETATM    3  O   UNL     1      26.985  42.982  49.231  1.00  0.00    -0.272 OA
HETATM    4  H   UNL     1      24.964  41.609  51.276  1.00  0.00     0.162 HD
ENDROOT
BRANCH   2   5
HETATM    5  C   UNL     1      24.217  42.542  49.520  1.00  0.00     0.123 C 
BRANCH   5   6
HETATM    6  C   UNL     1      23.378  43.698  50.059  1.00  0.00     0.029 C 
BRANCH   6   7
HETATM    7  C   UNL     1      23.948  45.038  49.610  1.00  0.00     0.104 C 
BRANCH   7   8
HETATM    8  C   UNL     1      22.882  45.881  48.949  1.00  0.00     0.217 C 
HETATM    9  N   UNL     1      21.661  45.260  48.807  1.00  0.00    -0.361 N 
HETATM   10  H   UNL     1      21.605  44.268  49.016  1.00  0.00     0.162 HD
HETATM   11  O   UNL     1      23.071  47.050  48.625  1.00  0.00    -0.274 OA
BRANCH   9  12
HETATM   12  C   UNL     1      20.581  45.857  48.046  1.00  0.00     0.124 C 
BRANCH  12  13
HETATM   13  C   UNL     1      19.660  46.748  48.884  1.00  0.00     0.047 C 
BRANCH  13  14
HETATM   14  C   UNL     1      19.004  47.853  48.056  1.00  0.00     0.236 C 
BRANCH  14  15
HETATM   15  N   UNL     1      19.199  49.237  48.688  1.00  0.00    -0.071 N 
HETATM   16  H   UNL     1      19.620  49.077  49.613  1.00  0.00     0.279 HD
HETATM   17  C   UNL     1      20.151  50.092  47.884  1.00  0.00     0.235 C 
HETATM   18  C   UNL     1      20.439  51.442  48.531  1.00  0.00     0.028 C 
HETATM   19  C   UNL     1      19.292  52.434  48.381  1.00  0.00     0.002 C 
HETATM   20  C   UNL     1      18.227  52.343  49.466  1.00  0.00     0.002 C 
HETATM   21  C   UNL     1      17.903  50.947  49.987  1.00  0.00     0.028 C 
HETATM   22  C   UNL     1      17.832  49.867  48.918  1.00  0.00     0.235 C 
ENDBRANCH  14  15
ENDBRANCH  13  14
ENDBRANCH  12  13
ENDBRANCH   9  12
ENDBRANCH   7   8
ENDBRANCH   6   7
ENDBRANCH   5   6
ENDBRANCH   2   5
BRANCH   1  23
HETATM   23  C   UNL     1      27.492  41.939  51.374  1.00  0.00     0.235 C 
BRANCH  23  24
HETATM   24  N   UNL     1      27.743  43.015  52.312  1.00  0.00    -0.299 N 
HETATM   25  C   UNL     1      27.003  44.181  52.242  1.00  0.00     0.214 A 
HETATM   26  N   UNL     1      27.097  45.184  53.053  1.00  0.00    -0.235 NA
HETATM   27  C   UNL     1      28.028  45.026  54.027  1.00  0.00     0.115 A 
HETATM   28  C   UNL     1      28.876  43.950  54.191  1.00  0.00     0.075 A 
HETATM   29  S   UNL     1      28.258  46.207  55.237  1.00  0.00    -0.073 SA
HETATM   30  C   UNL     1      28.754  42.846  53.254  1.00  0.00     0.262 A 
HETATM   31  C   UNL     1      29.755  44.113  55.310  1.00  0.00    -0.026 A 
HETATM   32  O   UNL     1      29.468  41.845  53.303  1.00  0.00    -0.267 OA
HETATM   33  C   UNL     1      29.487  45.294  55.979  1.00  0.00    -0.008 A 
HETATM   34  C   UNL     1      30.810  43.159  55.784  1.00  0.00     0.041 C 
HETATM   35  C   UNL     1      30.198  45.777  57.205  1.00  0.00     0.047 C 
HETATM   36  C   UNL     1      31.000  44.634  57.846  1.00  0.00     0.005 C 
HETATM   37  C   UNL     1      31.763  43.817  56.794  1.00  0.00     0.005 C 
ENDBRANCH  23  24
ENDBRANCH   1  23
TORSDOF 10
ENDMDL
MODEL 7
REMARK VINA RESULT:      -8.9      1.898      2.643
REMARK  10 active torsions:
REMARK  status: ('A' for Active; 'I' for Inactive)
REMARK    1  A    between atoms: N_2  and  C_3 
REMARK    2  A    between atoms: C_3  and  C_4 
REMARK       I    between atoms: C_4  and  N_5 
REMARK    3  A    between atoms: N_5  and  C_6 
REMARK    4  A    between atoms: C_6  and  C_7 
REMARK    5  A    between atoms: C_7  and  C_8 
REMARK    6  A    between atoms: C_8  and  C_9 
REMARK       I    between atoms: C_9  and  N_10 
REMARK    7  A    between atoms: N_10  and  C_11 
REMARK    8  A    between atoms: C_11  and  C_12 
REMARK    9  A    between atoms: C_12  and  C_13 
REMARK   10  A    between atoms: C_13  and  N_14 
ROOT
HETATM    1  C   UNL     1      26.500  43.865  50.224  1.00  0.00     0.235 C 
HETATM    2  N   UNL     1      25.148  43.775  49.942  1.00  0.00    -0.360 N 
HETATM    3  O   UNL     1      27.269  44.561  49.568  1.00  0.00    -0.272 OA
HETATM    4  H   UNL     1      24.562  43.152  50.484  1.00  0.00     0.162 HD
ENDROOT
BRANCH   2   5
HETATM    5  C   UNL     1      24.546  44.503  48.845  1.00  0.00     0.123 C 
BRANCH   5   6
HETATM    6  C   UNL     1      23.026  44.565  48.969  1.00  0.00     0.029 C 
BRANCH   6   7
HETATM    7  C   UNL     1      22.362  44.388  47.609  1.00  0.00     0.104 C 
BRANCH   7   8
HETATM    8  C   UNL     1      20.884  44.695  47.689  1.00  0.00     0.217 C 
HETATM    9  N   UNL     1      20.577  45.907  48.266  1.00  0.00    -0.361 N 
HETATM   10  H   UNL     1      21.328  46.425  48.713  1.00  0.00     0.162 HD
HETATM   11  O   UNL     1      20.029  43.952  47.217  1.00  0.00    -0.274 OA
BRANCH   9  12
HETATM   12  C   UNL     1      19.212  46.285  48.577  1.00  0.00     0.124 C 
BRANCH  12  13
HETATM   13  C   UNL     1      18.774  47.597  47.920  1.00  0.00     0.047 C 
BRANCH  13  14
HETATM   14  C   UNL     1      19.823  48.144  46.951  1.00  0.00     0.236 C 
BRANCH  14  15
HETATM   15  N   UNL     1      20.522  49.392  47.506  1.00  0.00    -0.071 N 
HETATM   16  H   UNL     1      20.487  50.099  46.760  1.00  0.00     0.279 HD
HETATM   17  C   UNL     1      19.803  49.949  48.712  1.00  0.00     0.235 C 
HETATM   18  C   UNL     1      20.419  51.241  49.234  1.00  0.00     0.028 C 
HETATM   19  C   UNL     1      21.713  51.017  50.007  1.00  0.00     0.002 C 
HETATM   20  C   UNL     1      22.969  50.978  49.147  1.00  0.00     0.002 C 
HETATM   21  C   UNL     1      22.833  50.329  47.774  1.00  0.00     0.028 C 
HETATM   22  C   UNL     1      21.990  49.063  47.747  1.00  0.00     0.235 C 
ENDBRANCH  14  15
ENDBRANCH  13  14
ENDBRANCH  12  13
ENDBRANCH   9  12
ENDBRANCH   7   8
ENDBRANCH   6   7
ENDBRANCH   5   6
ENDBRANCH   2   5
BRANCH   1  23
HETATM   23  C   UNL     1      26.918  43.066  51.459  1.00  0.00     0.235 C 
BRANCH  23  24
HETATM   24  N   UNL     1      27.327  43.941  52.540  1.00  0.00    -0.299 N 
HETATM   25  C   UNL     1      26.664  45.135  52.752  1.00  0.00     0.214 A 
HETATM   26  N   UNL     1      26.900  45.970  53.712  1.00  0.00    -0.235 NA
HETATM   27  C   UNL     1      27.905  45.593  54.541  1.00  0.00     0.115 A 
HETATM   28  C   UNL     1      28.691  44.464  54.425  1.00  0.00     0.075 A 
HETATM   29  S   UNL     1      28.325  46.523  55.909  1.00  0.00    -0.073 SA
HETATM   30  C   UNL     1      28.409  43.555  53.327  1.00  0.00     0.262 A 
HETATM   31  C   UNL     1      29.680  44.380  55.458  1.00  0.00    -0.026 A 
HETATM   32  O   UNL     1      29.055  42.528  53.127  1.00  0.00    -0.267 OA
HETATM   33  C   UNL     1      29.555  45.432  56.348  1.00  0.00    -0.008 A 
HETATM   34  C   UNL     1      30.708  43.304  55.645  1.00  0.00     0.041 C 
HETATM   35  C   UNL     1      30.408  45.650  57.559  1.00  0.00     0.047 C 
HETATM   36  C   UNL     1      31.188  44.371  57.903  1.00  0.00     0.005 C 
HETATM   37  C   UNL     1      31.794  43.722  56.650  1.00  0.00     0.005 C 
ENDBRANCH  23  24
ENDBRANCH   1  23
TORSDOF 10
ENDMDL
MODEL 8
REMARK VINA RESULT:      -8.4      3.103      7.312
REMARK  10 active torsions:
REMARK  status: ('A' for Active; 'I' for Inactive)
REMARK    1  A    between atoms: N_2  and  C_3 
REMARK    2  A    between atoms: C_3  and  C_4 
REMARK       I    between atoms: C_4  and  N_5 
REMARK    3  A    between atoms: N_5  and  C_6 
REMARK    4  A    between atoms: C_6  and  C_7 
REMARK    5  A    between atoms: C_7  and  C_8 
REMARK    6  A    between atoms: C_8  and  C_9 
REMARK       I    between atoms: C_9  and  N_10 
REMARK    7  A    between atoms: N_10  and  C_11 
REMARK    8  A    between atoms: C_11  and  C_12 
REMARK    9  A    between atoms: C_12  and  C_13 
REMARK   10  A    between atoms: C_13  and  N_14 
ROOT
HETATM    1  C   UNL     1      25.221  47.246  50.845  1.00  0.00     0.235 C 
HETATM    2  N   UNL     1      23.925  47.326  50.365  1.00  0.00    -0.360 N 
HETATM    3  O   UNL     1      26.204  47.318  50.115  1.00  0.00    -0.272 OA
HETATM    4  H   UNL     1      23.146  47.215  51.002  1.00  0.00     0.162 HD
ENDROOT
BRANCH   2   5
HETATM    5  C   UNL     1      23.642  47.501  48.956  1.00  0.00     0.123 C 
BRANCH   5   6
HETATM    6  C   UNL     1      22.163  47.293  48.643  1.00  0.00     0.029 C 
BRANCH   6   7
HETATM    7  C   UNL     1      21.984  46.320  47.484  1.00  0.00     0.104 C 
BRANCH   7   8
HETATM    8  C   UNL     1      21.891  44.898  47.986  1.00  0.00     0.217 C 
HETATM    9  N   UNL     1      22.858  44.049  47.495  1.00  0.00    -0.361 N 
HETATM   10  H   UNL     1      23.455  44.389  46.747  1.00  0.00     0.162 HD
HETATM   11  O   UNL     1      21.059  44.543  48.816  1.00  0.00    -0.274 OA
BRANCH   9  12
HETATM   12  C   UNL     1      22.817  42.619  47.736  1.00  0.00     0.124 C 
BRANCH  12  13
HETATM   13  C   UNL     1      24.202  41.968  47.792  1.00  0.00     0.047 C 
BRANCH  13  14
HETATM   14  C   UNL     1      24.606  41.575  49.213  1.00  0.00     0.236 C 
BRANCH  14  15
HETATM   15  N   UNL     1      26.113  41.314  49.331  1.00  0.00    -0.071 N 
HETATM   16  H   UNL     1      26.567  42.237  49.349  1.00  0.00     0.279 HD
HETATM   17  C   UNL     1      26.460  40.598  50.616  1.00  0.00     0.235 C 
HETATM   18  C   UNL     1      27.959  40.402  50.809  1.00  0.00     0.028 C 
HETATM   19  C   UNL     1      28.534  39.291  49.939  1.00  0.00     0.002 C 
HETATM   20  C   UNL     1      28.952  39.729  48.542  1.00  0.00     0.002 C 
HETATM   21  C   UNL     1      28.083  40.787  47.871  1.00  0.00     0.028 C 
HETATM   22  C   UNL     1      26.586  40.603  48.070  1.00  0.00     0.235 C 
ENDBRANCH  14  15
ENDBRANCH  13  14
ENDBRANCH  12  13
ENDBRANCH   9  12
ENDBRANCH   7   8
ENDBRANCH   6   7
ENDBRANCH   5   6
ENDBRANCH   2   5
BRANCH   1  23
HETATM   23  C   UNL     1      25.298  47.123  52.368  1.00  0.00     0.235 C 
BRANCH  23  24
HETATM   24  N   UNL     1      26.126  46.001  52.765  1.00  0.00    -0.299 N 
HETATM   25  C   UNL     1      25.970  44.773  52.148  1.00  0.00     0.214 A 
HETATM   26  N   UNL     1      26.682  43.718  52.377  1.00  0.00    -0.235 NA
HETATM   27  C   UNL     1      27.639  43.887  53.323  1.00  0.00     0.115 A 
HETATM   28  C   UNL     1      27.877  45.030  54.060  1.00  0.00     0.075 A 
HETATM   29  S   UNL     1      28.729  42.636  53.719  1.00  0.00    -0.073 SA
HETATM   30  C   UNL     1      27.049  46.193  53.789  1.00  0.00     0.262 A 
HETATM   31  C   UNL     1      28.951  44.862  54.993  1.00  0.00    -0.026 A 
HETATM   32  O   UNL     1      27.171  47.256  54.396  1.00  0.00    -0.267 OA
HETATM   33  C   UNL     1      29.516  43.605  54.875  1.00  0.00    -0.008 A 
HETATM   34  C   UNL     1      29.480  45.878  55.961  1.00  0.00     0.041 C 
HETATM   35  C   UNL     1      30.671  43.094  55.678  1.00  0.00     0.047 C 
HETATM   36  C   UNL     1      31.391  44.256  56.381  1.00  0.00     0.005 C 
HETATM   37  C   UNL     1      30.398  45.238  57.015  1.00  0.00     0.005 C 
ENDBRANCH  23  24
ENDBRANCH   1  23
TORSDOF 10
ENDMDL
MODEL 9
REMARK VINA RESULT:      -8.4      2.604      3.573
REMARK  10 active torsions:
REMARK  status: ('A' for Active; 'I' for Inactive)
REMARK    1  A    between atoms: N_2  and  C_3 
REMARK    2  A    between atoms: C_3  and  C_4 
REMARK       I    between atoms: C_4  and  N_5 
REMARK    3  A    between atoms: N_5  and  C_6 
REMARK    4  A    between atoms: C_6  and  C_7 
REMARK    5  A    between atoms: C_7  and  C_8 
REMARK    6  A    between atoms: C_8  and  C_9 
REMARK       I    between atoms: C_9  and  N_10 
REMARK    7  A    between atoms: N_10  and  C_11 
REMARK    8  A    between atoms: C_11  and  C_12 
REMARK    9  A    between atoms: C_12  and  C_13 
REMARK   10  A    between atoms: C_13  and  N_14 
ROOT
HETATM    1  C   UNL     1      24.454  44.481  49.913  1.00  0.00     0.235 C 
HETATM    2  N   UNL     1      23.248  45.142  49.757  1.00  0.00    -0.360 N 
HETATM    3  O   UNL     1      25.477  44.820  49.324  1.00  0.00    -0.272 OA
HETATM    4  H   UNL     1      22.422  44.796  50.229  1.00  0.00     0.162 HD
ENDROOT
BRANCH   2   5
HETATM    5  C   UNL     1      23.112  46.287  48.882  1.00  0.00     0.123 C 
BRANCH   5   6
HETATM    6  C   UNL     1      21.764  46.297  48.165  1.00  0.00     0.029 C 
BRANCH   6   7
HETATM    7  C   UNL     1      20.855  45.198  48.700  1.00  0.00     0.104 C 
BRANCH   7   8
HETATM    8  C   UNL     1      19.513  45.225  48.006  1.00  0.00     0.217 C 
HETATM    9  N   UNL     1      19.311  46.311  47.184  1.00  0.00    -0.361 N 
HETATM   10  H   UNL     1      19.992  47.064  47.213  1.00  0.00     0.162 HD
HETATM   11  O   UNL     1      18.694  44.317  48.114  1.00  0.00    -0.274 OA
BRANCH   9  12
HETATM   12  C   UNL     1      18.023  46.585  46.577  1.00  0.00     0.124 C 
BRANCH  12  13
HETATM   13  C   UNL     1      17.446  47.953  46.953  1.00  0.00     0.047 C 
BRANCH  13  14
HETATM   14  C   UNL     1      17.342  48.148  48.466  1.00  0.00     0.236 C 
BRANCH  14  15
HETATM   15  N   UNL     1      17.969  49.473  48.919  1.00  0.00    -0.071 N 
HETATM   16  H   UNL     1      17.542  49.699  49.826  1.00  0.00     0.279 HD
HETATM   17  C   UNL     1      19.461  49.347  49.123  1.00  0.00     0.235 C 
HETATM   18  C   UNL     1      20.102  50.621  49.660  1.00  0.00     0.028 C 
HETATM   19  C   UNL     1      20.255  51.707  48.601  1.00  0.00     0.002 C 
HETATM   20  C   UNL     1      19.038  52.606  48.432  1.00  0.00     0.002 C 
HETATM   21  C   UNL     1      17.674  51.941  48.584  1.00  0.00     0.028 C 
HETATM   22  C   UNL     1      17.558  50.566  47.942  1.00  0.00     0.235 C 
ENDBRANCH  14  15
ENDBRANCH  13  14
ENDBRANCH  12  13
ENDBRANCH   9  12
ENDBRANCH   7   8
ENDBRANCH   6   7
ENDBRANCH   5   6
ENDBRANCH   2   5
BRANCH   1  23
HETATM   23  C   UNL     1      24.395  43.339  50.928  1.00  0.00     0.235 C 
BRANCH  23  24
HETATM   24  N   UNL     1      25.680  43.136  51.569  1.00  0.00    -0.299 N 
HETATM   25  C   UNL     1      26.524  42.135  51.125  1.00  0.00     0.214 A 
HETATM   26  N   UNL     1      27.711  41.893  51.579  1.00  0.00    -0.235 NA
HETATM   27  C   UNL     1      28.101  42.716  52.584  1.00  0.00     0.115 A 
HETATM   28  C   UNL     1      27.352  43.718  53.167  1.00  0.00     0.075 A 
HETATM   29  S   UNL     1      29.659  42.605  53.271  1.00  0.00    -0.073 SA
HETATM   30  C   UNL     1      26.017  43.954  52.644  1.00  0.00     0.262 A 
HETATM   31  C   UNL     1      28.057  44.383  54.221  1.00  0.00    -0.026 A 
HETATM   32  O   UNL     1      25.263  44.814  53.099  1.00  0.00    -0.267 OA
HETATM   33  C   UNL     1      29.341  43.884  54.347  1.00  0.00    -0.008 A 
HETATM   34  C   UNL     1      27.560  45.508  55.079  1.00  0.00     0.041 C 
HETATM   35  C   UNL     1      30.364  44.358  55.332  1.00  0.00     0.047 C 
HETATM   36  C   UNL     1      29.947  45.711  55.928  1.00  0.00     0.005 C 
HETATM   37  C   UNL     1      28.460  45.731  56.305  1.00  0.00     0.005 C 
ENDBRANCH  23  24
ENDBRANCH   1  23
TORSDOF 10
ENDMDL
MODEL 10
REMARK VINA RESULT:      -8.4      1.966      2.688
REMARK  10 active torsions:
REMARK  status: ('A' for Active; 'I' for Inactive)
REMARK    1  A    between atoms: N_2  and  C_3 
REMARK    2  A    between atoms: C_3  and  C_4 
REMARK       I    between atoms: C_4  and  N_5 
REMARK    3  A    between atoms: N_5  and  C_6 
REMARK    4  A    between atoms: C_6  and  C_7 
REMARK    5  A    between atoms: C_7  and  C_8 
REMARK    6  A    between atoms: C_8  and  C_9 
REMARK       I    between atoms: C_9  and  N_10 
REMARK    7  A    between atoms: N_10  and  C_11 
REMARK    8  A    between atoms: C_11  and  C_12 
REMARK    9  A    between atoms: C_12  and  C_13 
REMARK   10  A    between atoms: C_13  and  N_14 
ROOT
HETATM    1  C   UNL     1      25.397  43.411  50.325  1.00  0.00     0.235 C 
HETATM    2  N   UNL     1      24.995  42.253  49.684  1.00  0.00    -0.360 N 
HETATM    3  O   UNL     1      26.062  44.280  49.770  1.00  0.00    -0.272 OA
HETATM    4  H   UNL     1      24.485  41.545  50.199  1.00  0.00     0.162 HD
ENDROOT
BRANCH   2   5
HETATM    5  C   UNL     1      25.336  41.986  48.302  1.00  0.00     0.123 C 
BRANCH   5   6
HETATM    6  C   UNL     1      24.224  42.415  47.349  1.00  0.00     0.029 C 
BRANCH   6   7
HETATM    7  C   UNL     1      22.861  42.318  48.024  1.00  0.00     0.104 C 
BRANCH   7   8
HETATM    8  C   UNL     1      22.247  43.688  48.195  1.00  0.00     0.217 C 
HETATM    9  N   UNL     1      22.533  44.578  47.183  1.00  0.00    -0.361 N 
HETATM   10  H   UNL     1      23.228  44.308  46.494  1.00  0.00     0.162 HD
HETATM   11  O   UNL     1      21.499  43.965  49.127  1.00  0.00    -0.274 OA
BRANCH   9  12
HETATM   12  C   UNL     1      22.169  45.979  47.270  1.00  0.00     0.124 C 
BRANCH  12  13
HETATM   13  C   UNL     1      22.580  46.639  48.590  1.00  0.00     0.047 C 
BRANCH  13  14
HETATM   14  C   UNL     1      22.621  48.164  48.494  1.00  0.00     0.236 C 
BRANCH  14  15
HETATM   15  N   UNL     1      21.601  48.827  49.428  1.00  0.00    -0.071 N 
HETATM   16  H   UNL     1      21.769  48.436  50.364  1.00  0.00     0.279 HD
HETATM   17  C   UNL     1      21.798  50.323  49.504  1.00  0.00     0.235 C 
HETATM   18  C   UNL     1      20.859  51.003  50.493  1.00  0.00     0.028 C 
HETATM   19  C   UNL     1      19.433  51.135  49.970  1.00  0.00     0.002 C 
HETATM   20  C   UNL     1      18.545  49.927  50.234  1.00  0.00     0.002 C 
HETATM   21  C   UNL     1      19.214  48.559  50.152  1.00  0.00     0.028 C 
HETATM   22  C   UNL     1      20.202  48.399  49.005  1.00  0.00     0.235 C 
ENDBRANCH  14  15
ENDBRANCH  13  14
ENDBRANCH  12  13
ENDBRANCH   9  12
ENDBRANCH   7   8
ENDBRANCH   6   7
ENDBRANCH   5   6
ENDBRANCH   2   5
BRANCH   1  23
HETATM   23  C   UNL     1      24.879  43.523  51.760  1.00  0.00     0.235 C 
BRANCH  23  24
HETATM   24  N   UNL     1      25.739  44.366  52.567  1.00  0.00    -0.299 N 
HETATM   25  C   UNL     1      25.426  45.699  52.752  1.00  0.00     0.214 A 
HETATM   26  N   UNL     1      26.083  46.533  53.491  1.00  0.00    -0.235 NA
HETATM   27  C   UNL     1      27.171  45.999  54.100  1.00  0.00     0.115 A 
HETATM   28  C   UNL     1      27.639  44.707  53.968  1.00  0.00     0.075 A 
HETATM   29  S   UNL     1      28.130  46.917  55.171  1.00  0.00    -0.073 SA
HETATM   30  C   UNL     1      26.886  43.800  53.119  1.00  0.00     0.262 A 
HETATM   31  C   UNL     1      28.828  44.478  54.732  1.00  0.00    -0.026 A 
HETATM   32  O   UNL     1      27.222  42.633  52.924  1.00  0.00    -0.267 OA
HETATM   33  C   UNL     1      29.173  45.604  55.459  1.00  0.00    -0.008 A 
HETATM   34  C   UNL     1      29.617  43.206  54.825  1.00  0.00     0.041 C 
HETATM   35  C   UNL     1      30.347  45.715  56.381  1.00  0.00     0.047 C 
HETATM   36  C   UNL     1      30.902  44.321  56.714  1.00  0.00     0.005 C 
HETATM   37  C   UNL     1      30.996  43.436  55.464  1.00  0.00     0.005 C 
ENDBRANCH  23  24
ENDBRANCH   1  23
TORSDOF 10
ENDMDL
