MODEL 1
REMARK VINA RESULT:      -9.9      0.000      0.000
REMARK  10 active torsions:
REMARK  status: ('A' for Active; 'I' for Inactive)
REMARK    1  A    between atoms: C_2  and  C_3 
REMARK    2  A    between atoms: C_3  and  O_4 
REMARK    3  A    between atoms: O_4  and  C_5 
REMARK    4  A    between atoms: C_7  and  C_8 
REMARK       I    between atoms: C_8  and  N_9 
REMARK    5  A    between atoms: N_9  and  C_10 
REMARK    6  A    between atoms: C_10  and  N_11 
REMARK    7  A    between atoms: N_11  and  C_12 
REMARK    8  A    between atoms: C_15  and  N_16 
REMARK    9  A    between atoms: N_19  and  C_21 
REMARK   10  A    between atoms: C_21  and  C_22 
ROOT
HETATM    1  C   UNL     1      23.969  44.117  50.582  1.00  0.00     0.034 A 
HETATM    2  C   UNL     1      24.644  45.330  50.707  1.00  0.00     0.032 A 
HETATM    3  C   UNL     1      24.274  46.446  49.942  1.00  0.00     0.031 A 
HETATM    4  C   UNL     1      23.200  46.417  49.040  1.00  0.00     0.030 A 
HETATM    5  C   UNL     1      22.530  45.184  48.942  1.00  0.00     0.031 A 
HETATM    6  C   UNL     1      22.908  44.050  49.691  1.00  0.00     0.032 A 
ENDROOT
BRANCH   1   7
HETATM    7  N   UNL     1      24.513  43.021  51.284  1.00  0.00    -0.333 N 
HETATM    8  H   UNL     1      23.827  42.517  51.838  1.00  0.00     0.168 HD
BRANCH   7   9
HETATM    9  C   UNL     1      25.766  42.788  51.717  1.00  0.00     0.179 C 
HETATM   10  S   UNL     1      26.715  41.722  50.836  1.00  0.00    -0.040 SA
BRANCH   9  11
HETATM   11  N   UNL     1      26.350  43.401  52.775  1.00  0.00    -0.299 N 
HETATM   12  C   UNL     1      25.715  44.181  53.741  1.00  0.00     0.257 C 
HETATM   13  O   UNL     1      24.618  43.952  54.237  1.00  0.00    -0.267 OA
HETATM   14  H   UNL     1      27.236  43.770  52.460  1.00  0.00     0.171 HD
BRANCH  12  15
HETATM   15  C   UNL     1      26.488  45.377  54.214  1.00  0.00     0.035 A 
HETATM   16  C   UNL     1      27.753  45.286  54.812  1.00  0.00     0.053 A 
HETATM   17  C   UNL     1      28.466  46.438  55.167  1.00  0.00     0.069 A 
HETATM   18  C   UNL     1      27.901  47.692  54.946  1.00  0.00     0.037 A 
HETATM   19  C   UNL     1      26.628  47.795  54.379  1.00  0.00     0.004 A 
HETATM   20  C   UNL     1      25.924  46.644  54.015  1.00  0.00     0.017 A 
BRANCH  17  21
HETATM   21  O   UNL     1      29.700  46.191  55.702  1.00  0.00    -0.351 OA
BRANCH  21  22
HETATM   22  C   UNL     1      29.853  45.014  56.502  1.00  0.00     0.179 C 
BRANCH  22  23
HETATM   23  C   UNL     1      31.050  44.214  55.963  1.00  0.00     0.002 C 
HETATM   24  C   UNL     1      30.585  43.144  54.978  1.00  0.00     0.011 C 
HETATM   25  C   UNL     1      31.847  43.573  57.102  1.00  0.00     0.011 C 
ENDBRANCH  22  23
ENDBRANCH  21  22
ENDBRANCH  17  21
ENDBRANCH  12  15
ENDBRANCH   9  11
ENDBRANCH   7   9
ENDBRANCH   1   7
BRANCH   4  26
HETATM   26  N   UNL     1      22.890  47.527  48.252  1.00  0.00    -0.378 N 
HETATM   27  C   UNL     1      23.676  48.769  48.411  1.00  0.00     0.150 C 
HETATM   28  C   UNL     1      22.995  49.707  49.430  1.00  0.00     0.255 C 
HETATM   29  N   UNL     1      21.549  49.993  49.009  1.00  0.00    -0.064 N 
HETATM   30  H   UNL     1      21.596  50.470  48.102  1.00  0.00     0.280 HD
HETATM   31  C   UNL     1      20.771  48.690  48.801  1.00  0.00     0.255 C 
HETATM   32  C   UNL     1      21.510  47.778  47.799  1.00  0.00     0.150 C 
BRANCH  29  33
HETATM   33  C   UNL     1      20.841  50.926  49.959  1.00  0.00     0.273 C 
BRANCH  33  34
HETATM   34  C   UNL     1      19.504  51.377  49.437  1.00  0.00    -0.033 A 
HETATM   35  C   UNL     1      19.419  52.121  48.249  1.00  0.00     0.009 A 
HETATM   36  C   UNL     1      18.182  52.568  47.782  1.00  0.00     0.001 A 
HETATM   37  C   UNL     1      17.020  52.280  48.496  1.00  0.00     0.000 A 
HETATM   38  C   UNL     1      17.092  51.542  49.674  1.00  0.00     0.001 A 
HETATM   39  C   UNL     1      18.326  51.089  50.143  1.00  0.00     0.009 A 
ENDBRANCH  33  34
ENDBRANCH  29  33
ENDBRANCH   4  26
TORSDOF 10
ENDMDL
MODEL 2
REMARK VINA RESULT:      -9.4      3.436     11.903
REMARK  10 active torsions:
REMARK  status: ('A' for Active; 'I' for Inactive)
REMARK    1  A    between atoms: C_2  and  C_3 
REMARK    2  A    between atoms: C_3  and  O_4 
REMARK    3  A    between atoms: O_4  and  C_5 
REMARK    4  A    between atoms: C_7  and  C_8 
REMARK       I    between atoms: C_8  and  N_9 
REMARK    5  A    between atoms: N_9  and  C_10 
REMARK    6  A    between atoms: C_10  and  N_11 
REMARK    7  A    between atoms: N_11  and  C_12 
REMARK    8  A    between atoms: C_15  and  N_16 
REMARK    9  A    between atoms: N_19  and  C_21 
REMARK   10  A    between atoms: C_21  and  C_22 
ROOT
HETATM    1  C   UNL     1      23.961  46.776  49.595  1.00  0.00     0.034 A 
HETATM    2  C   UNL     1      24.715  47.368  50.608  1.00  0.00     0.032 A 
HETATM    3  C   UNL     1      25.240  46.602  51.660  1.00  0.00     0.031 A 
HETATM    4  C   UNL     1      25.067  45.213  51.739  1.00  0.00     0.030 A 
HETATM    5  C   UNL     1      24.312  44.641  50.698  1.00  0.00     0.031 A 
HETATM    6  C   UNL     1      23.762  45.405  49.648  1.00  0.00     0.032 A 
ENDROOT
BRANCH   1   7
HETATM    7  N   UNL     1      23.356  47.653  48.670  1.00  0.00    -0.333 N 
HETATM    8  H   UNL     1      23.253  47.250  47.744  1.00  0.00     0.168 HD
BRANCH   7   9
HETATM    9  C   UNL     1      23.308  48.997  48.635  1.00  0.00     0.179 C 
HETATM   10  S   UNL     1      24.695  49.821  48.175  1.00  0.00    -0.040 SA
BRANCH   9  11
HETATM   11  N   UNL     1      22.201  49.741  48.877  1.00  0.00    -0.299 N 
HETATM   12  C   UNL     1      20.876  49.316  48.795  1.00  0.00     0.257 C 
HETATM   13  O   UNL     1      20.451  48.224  49.156  1.00  0.00    -0.267 OA
HETATM   14  H   UNL     1      22.367  50.662  48.496  1.00  0.00     0.171 HD
BRANCH  12  15
HETATM   15  C   UNL     1      19.909  50.323  48.245  1.00  0.00     0.035 A 
HETATM   16  C   UNL     1      19.007  50.037  47.211  1.00  0.00     0.053 A 
HETATM   17  C   UNL     1      18.074  50.990  46.785  1.00  0.00     0.069 A 
HETATM   18  C   UNL     1      18.056  52.250  47.380  1.00  0.00     0.037 A 
HETATM   19  C   UNL     1      18.971  52.557  48.390  1.00  0.00     0.004 A 
HETATM   20  C   UNL     1      19.893  51.600  48.822  1.00  0.00     0.017 A 
BRANCH  17  21
HETATM   21  O   UNL     1      17.235  50.552  45.797  1.00  0.00    -0.351 OA
BRANCH  21  22
HETATM   22  C   UNL     1      16.712  49.225  45.911  1.00  0.00     0.179 C 
BRANCH  22  23
HETATM   23  C   UNL     1      15.434  49.279  46.763  1.00  0.00     0.002 C 
HETATM   24  C   UNL     1      15.648  48.579  48.103  1.00  0.00     0.011 C 
HETATM   25  C   UNL     1      14.248  48.655  46.025  1.00  0.00     0.011 C 
ENDBRANCH  22  23
ENDBRANCH  21  22
ENDBRANCH  17  21
ENDBRANCH  12  15
ENDBRANCH   9  11
ENDBRANCH   7   9
ENDBRANCH   1   7
BRANCH   4  26
HETATM   26  N   UNL     1      25.554  44.485  52.826  1.00  0.00    -0.378 N 
HETATM   27  C   UNL     1      25.258  44.952  54.198  1.00  0.00     0.150 C 
HETATM   28  C   UNL     1      26.395  45.862  54.711  1.00  0.00     0.255 C 
HETATM   29  N   UNL     1      27.741  45.133  54.630  1.00  0.00    -0.064 N 
HETATM   30  H   UNL     1      27.670  44.315  55.246  1.00  0.00     0.280 HD
HETATM   31  C   UNL     1      27.999  44.615  53.211  1.00  0.00     0.255 C 
HETATM   32  C   UNL     1      26.821  43.738  52.737  1.00  0.00     0.150 C 
BRANCH  29  33
HETATM   33  C   UNL     1      28.887  45.969  55.141  1.00  0.00     0.273 C 
BRANCH  33  34
HETATM   34  C   UNL     1      29.843  45.180  55.994  1.00  0.00    -0.033 A 
HETATM   35  C   UNL     1      30.424  43.999  55.504  1.00  0.00     0.009 A 
HETATM   36  C   UNL     1      31.285  43.249  56.306  1.00  0.00     0.001 A 
HETATM   37  C   UNL     1      31.571  43.666  57.604  1.00  0.00     0.000 A 
HETATM   38  C   UNL     1      31.001  44.836  58.101  1.00  0.00     0.001 A 
HETATM   39  C   UNL     1      30.143  45.592  57.301  1.00  0.00     0.009 A 
ENDBRANCH  33  34
ENDBRANCH  29  33
ENDBRANCH   4  26
TORSDOF 10
ENDMDL
MODEL 3
REMARK VINA RESULT:      -9.4      3.338     11.923
REMARK  10 active torsions:
REMARK  status: ('A' for Active; 'I' for Inactive)
REMARK    1  A    between atoms: C_2  and  C_3 
REMARK    2  A    between atoms: C_3  and  O_4 
REMARK    3  A    between atoms: O_4  and  C_5 
REMARK    4  A    between atoms: C_7  and  C_8 
REMARK       I    between atoms: C_8  and  N_9 
REMARK    5  A    between atoms: N_9  and  C_10 
REMARK    6  A    between atoms: C_10  and  N_11 
REMARK    7  A    between atoms: N_11  and  C_12 
REMARK    8  A    between atoms: C_15  and  N_16 
REMARK    9  A    between atoms: N_19  and  C_21 
REMARK   10  A    between atoms: C_21  and  C_22 
ROOT
HETATM    1  C   UNL     1      23.835  46.568  49.648  1.00  0.00     0.034 A 
HETATM    2  C   UNL     1      24.616  47.159  50.641  1.00  0.00     0.032 A 
HETATM    3  C   UNL     1      25.203  46.388  51.655  1.00  0.00     0.031 A 
HETATM    4  C   UNL     1      25.066  44.994  51.713  1.00  0.00     0.030 A 
HETATM    5  C   UNL     1      24.283  44.422  50.694  1.00  0.00     0.031 A 
HETATM    6  C   UNL     1      23.671  45.192  49.682  1.00  0.00     0.032 A 
ENDROOT
BRANCH   1   7
HETATM    7  N   UNL     1      23.172  47.447  48.766  1.00  0.00    -0.333 N 
HETATM    8  H   UNL     1      23.640  47.546  47.870  1.00  0.00     0.168 HD
BRANCH   7   9
HETATM    9  C   UNL     1      22.344  48.480  49.010  1.00  0.00     0.179 C 
HETATM   10  S   UNL     1      22.934  50.031  48.768  1.00  0.00    -0.040 SA
BRANCH   9  11
HETATM   11  N   UNL     1      21.044  48.365  49.374  1.00  0.00    -0.299 N 
HETATM   12  C   UNL     1      20.113  47.461  48.863  1.00  0.00     0.257 C 
HETATM   13  O   UNL     1      20.333  46.289  48.580  1.00  0.00    -0.267 OA
HETATM   14  H   UNL     1      20.685  49.299  49.512  1.00  0.00     0.171 HD
BRANCH  12  15
HETATM   15  C   UNL     1      18.721  47.998  48.693  1.00  0.00     0.035 A 
HETATM   16  C   UNL     1      18.439  49.359  48.514  1.00  0.00     0.053 A 
HETATM   17  C   UNL     1      17.130  49.799  48.284  1.00  0.00     0.069 A 
HETATM   18  C   UNL     1      16.088  48.874  48.256  1.00  0.00     0.037 A 
HETATM   19  C   UNL     1      16.353  47.518  48.464  1.00  0.00     0.004 A 
HETATM   20  C   UNL     1      17.662  47.081  48.681  1.00  0.00     0.017 A 
BRANCH  17  21
HETATM   21  O   UNL     1      17.017  51.148  48.088  1.00  0.00    -0.351 OA
BRANCH  21  22
HETATM   22  C   UNL     1      15.700  51.694  47.973  1.00  0.00     0.179 C 
BRANCH  22  23
HETATM   23  C   UNL     1      15.405  52.521  49.234  1.00  0.00     0.002 C 
HETATM   24  C   UNL     1      14.572  53.754  48.890  1.00  0.00     0.011 C 
HETATM   25  C   UNL     1      16.698  52.938  49.939  1.00  0.00     0.011 C 
ENDBRANCH  22  23
ENDBRANCH  21  22
ENDBRANCH  17  21
ENDBRANCH  12  15
ENDBRANCH   9  11
ENDBRANCH   7   9
ENDBRANCH   1   7
BRANCH   4  26
HETATM   26  N   UNL     1      25.615  44.258  52.765  1.00  0.00    -0.378 N 
HETATM   27  C   UNL     1      25.297  44.641  54.158  1.00  0.00     0.150 C 
HETATM   28  C   UNL     1      26.366  45.611  54.705  1.00  0.00     0.255 C 
HETATM   29  N   UNL     1      27.763  44.989  54.585  1.00  0.00    -0.064 N 
HETATM   30  H   UNL     1      27.758  44.143  55.165  1.00  0.00     0.280 HD
HETATM   31  C   UNL     1      28.047  44.554  53.144  1.00  0.00     0.255 C 
HETATM   32  C   UNL     1      26.934  43.612  52.638  1.00  0.00     0.150 C 
BRANCH  29  33
HETATM   33  C   UNL     1      28.847  45.886  55.127  1.00  0.00     0.273 C 
BRANCH  33  34
HETATM   34  C   UNL     1      29.791  45.161  56.047  1.00  0.00    -0.033 A 
HETATM   35  C   UNL     1      30.061  45.664  57.329  1.00  0.00     0.009 A 
HETATM   36  C   UNL     1      30.962  45.010  58.171  1.00  0.00     0.001 A 
HETATM   37  C   UNL     1      31.603  43.851  57.740  1.00  0.00     0.000 A 
HETATM   38  C   UNL     1      31.343  43.341  56.470  1.00  0.00     0.001 A 
HETATM   39  C   UNL     1      30.440  43.989  55.627  1.00  0.00     0.009 A 
ENDBRANCH  33  34
ENDBRANCH  29  33
ENDBRANCH   4  26
TORSDOF 10
ENDMDL
MODEL 4
REMARK VINA RESULT:      -9.0      3.364     11.467
REMARK  10 active torsions:
REMARK  status: ('A' for Active; 'I' for Inactive)
REMARK    1  A    between atoms: C_2  and  C_3 
REMARK    2  A    between atoms: C_3  and  O_4 
REMARK    3  A    between atoms: O_4  and  C_5 
REMARK    4  A    between atoms: C_7  and  C_8 
REMARK       I    between atoms: C_8  and  N_9 
REMARK    5  A    between atoms: N_9  and  C_10 
REMARK    6  A    between atoms: C_10  and  N_11 
REMARK    7  A    between atoms: N_11  and  C_12 
REMARK    8  A    between atoms: C_15  and  N_16 
REMARK    9  A    between atoms: N_19  and  C_21 
REMARK   10  A    between atoms: C_21  and  C_22 
ROOT
HETATM    1  C   UNL     1      26.103  47.082  50.317  1.00  0.00     0.034 A 
HETATM    2  C   UNL     1      26.580  45.927  49.699  1.00  0.00     0.032 A 
HETATM    3  C   UNL     1      26.820  44.758  50.437  1.00  0.00     0.031 A 
HETATM    4  C   UNL     1      26.570  44.674  51.814  1.00  0.00     0.030 A 
HETATM    5  C   UNL     1      26.079  45.850  52.410  1.00  0.00     0.031 A 
HETATM    6  C   UNL     1      25.854  47.036  51.681  1.00  0.00     0.032 A 
ENDROOT
BRANCH   1   7
HETATM    7  N   UNL     1      26.038  48.242  49.515  1.00  0.00    -0.333 N 
HETATM    8  H   UNL     1      26.872  48.817  49.572  1.00  0.00     0.168 HD
BRANCH   7   9
HETATM    9  C   UNL     1      24.980  48.945  49.071  1.00  0.00     0.179 C 
HETATM   10  S   UNL     1      25.247  50.091  47.875  1.00  0.00    -0.040 SA
BRANCH   9  11
HETATM   11  N   UNL     1      23.698  48.754  49.466  1.00  0.00    -0.299 N 
HETATM   12  C   UNL     1      22.593  48.548  48.640  1.00  0.00     0.257 C 
HETATM   13  O   UNL     1      22.579  47.870  47.620  1.00  0.00    -0.267 OA
HETATM   14  H   UNL     1      23.526  49.374  50.244  1.00  0.00     0.171 HD
BRANCH  12  15
HETATM   15  C   UNL     1      21.321  49.202  49.093  1.00  0.00     0.035 A 
HETATM   16  C   UNL     1      20.073  48.563  49.057  1.00  0.00     0.053 A 
HETATM   17  C   UNL     1      18.928  49.191  49.562  1.00  0.00     0.069 A 
HETATM   18  C   UNL     1      19.023  50.479  50.085  1.00  0.00     0.037 A 
HETATM   19  C   UNL     1      20.255  51.138  50.098  1.00  0.00     0.004 A 
HETATM   20  C   UNL     1      21.398  50.505  49.605  1.00  0.00     0.017 A 
BRANCH  17  21
HETATM   21  O   UNL     1      17.795  48.428  49.495  1.00  0.00    -0.351 OA
BRANCH  21  22
HETATM   22  C   UNL     1      17.410  47.923  48.212  1.00  0.00     0.179 C 
BRANCH  22  23
HETATM   23  C   UNL     1      15.969  48.372  47.926  1.00  0.00     0.002 C 
HETATM   24  C   UNL     1      15.585  48.066  46.480  1.00  0.00     0.011 C 
HETATM   25  C   UNL     1      15.784  49.863  48.217  1.00  0.00     0.011 C 
ENDBRANCH  22  23
ENDBRANCH  21  22
ENDBRANCH  17  21
ENDBRANCH  12  15
ENDBRANCH   9  11
ENDBRANCH   7   9
ENDBRANCH   1   7
BRANCH   4  26
HETATM   26  N   UNL     1      26.871  43.515  52.532  1.00  0.00    -0.378 N 
HETATM   27  C   UNL     1      26.829  43.550  54.010  1.00  0.00     0.150 C 
HETATM   28  C   UNL     1      28.227  43.877  54.578  1.00  0.00     0.255 C 
HETATM   29  N   UNL     1      29.264  42.875  54.056  1.00  0.00    -0.064 N 
HETATM   30  H   UNL     1      28.977  41.951  54.398  1.00  0.00     0.280 HD
HETATM   31  C   UNL     1      29.251  42.820  52.525  1.00  0.00     0.255 C 
HETATM   32  C   UNL     1      27.827  42.521  52.010  1.00  0.00     0.150 C 
BRANCH  29  33
HETATM   33  C   UNL     1      30.646  43.134  54.598  1.00  0.00     0.273 C 
BRANCH  33  34
HETATM   34  C   UNL     1      30.629  43.971  55.848  1.00  0.00    -0.033 A 
HETATM   35  C   UNL     1      29.944  45.197  55.873  1.00  0.00     0.009 A 
HETATM   36  C   UNL     1      29.956  45.990  57.021  1.00  0.00     0.001 A 
HETATM   37  C   UNL     1      30.652  45.571  58.153  1.00  0.00     0.000 A 
HETATM   38  C   UNL     1      31.334  44.357  58.141  1.00  0.00     0.001 A 
HETATM   39  C   UNL     1      31.322  43.558  56.997  1.00  0.00     0.009 A 
ENDBRANCH  33  34
ENDBRANCH  29  33
ENDBRANCH   4  26
TORSDOF 10
ENDMDL
MODEL 5
REMARK VINA RESULT:      -8.9      2.918     11.380
REMARK  10 active torsions:
REMARK  status: ('A' for Active; 'I' for Inactive)
REMARK    1  A    between atoms: C_2  and  C_3 
REMARK    2  A    between atoms: C_3  and  O_4 
REMARK    3  A    between atoms: O_4  and  C_5 
REMARK    4  A    between atoms: C_7  and  C_8 
REMARK       I    between atoms: C_8  and  N_9 
REMARK    5  A    between atoms: N_9  and  C_10 
REMARK    6  A    between atoms: C_10  and  N_11 
REMARK    7  A    between atoms: N_11  and  C_12 
REMARK    8  A    between atoms: C_15  and  N_16 
REMARK    9  A    between atoms: N_19  and  C_21 
REMARK   10  A    between atoms: C_21  and  C_22 
ROOT
HETATM    1  C   UNL     1      23.820  45.248  49.384  1.00  0.00     0.034 A 
HETATM    2  C   UNL     1      23.843  43.877  49.637  1.00  0.00     0.032 A 
HETATM    3  C   UNL     1      24.440  43.367  50.800  1.00  0.00     0.031 A 
HETATM    4  C   UNL     1      25.013  44.194  51.776  1.00  0.00     0.030 A 
HETATM    5  C   UNL     1      24.965  45.573  51.501  1.00  0.00     0.031 A 
HETATM    6  C   UNL     1      24.386  46.095  50.325  1.00  0.00     0.032 A 
ENDROOT
BRANCH   1   7
HETATM    7  N   UNL     1      23.331  45.644  48.121  1.00  0.00    -0.333 N 
HETATM    8  H   UNL     1      24.042  46.059  47.527  1.00  0.00     0.168 HD
BRANCH   7   9
HETATM    9  C   UNL     1      22.092  45.990  47.727  1.00  0.00     0.179 C 
HETATM   10  S   UNL     1      20.962  44.767  47.523  1.00  0.00    -0.040 SA
BRANCH   9  11
HETATM   11  N   UNL     1      21.661  47.262  47.545  1.00  0.00    -0.299 N 
HETATM   12  C   UNL     1      22.263  48.423  48.028  1.00  0.00     0.257 C 
HETATM   13  O   UNL     1      23.468  48.638  48.076  1.00  0.00    -0.267 OA
HETATM   14  H   UNL     1      20.653  47.254  47.619  1.00  0.00     0.171 HD
BRANCH  12  15
HETATM   15  C   UNL     1      21.318  49.494  48.489  1.00  0.00     0.035 A 
HETATM   16  C   UNL     1      20.061  49.712  47.908  1.00  0.00     0.053 A 
HETATM   17  C   UNL     1      19.186  50.676  48.425  1.00  0.00     0.069 A 
HETATM   18  C   UNL     1      19.578  51.446  49.517  1.00  0.00     0.037 A 
HETATM   19  C   UNL     1      20.841  51.260  50.086  1.00  0.00     0.004 A 
HETATM   20  C   UNL     1      21.707  50.289  49.576  1.00  0.00     0.017 A 
BRANCH  17  21
HETATM   21  O   UNL     1      17.982  50.745  47.778  1.00  0.00    -0.351 OA
BRANCH  21  22
HETATM   22  C   UNL     1      16.857  50.119  48.402  1.00  0.00     0.179 C 
BRANCH  22  23
HETATM   23  C   UNL     1      15.673  51.097  48.362  1.00  0.00     0.002 C 
HETATM   24  C   UNL     1      15.685  51.908  47.068  1.00  0.00     0.011 C 
HETATM   25  C   UNL     1      15.685  52.034  49.572  1.00  0.00     0.011 C 
ENDBRANCH  22  23
ENDBRANCH  21  22
ENDBRANCH  17  21
ENDBRANCH  12  15
ENDBRANCH   9  11
ENDBRANCH   7   9
ENDBRANCH   1   7
BRANCH   4  26
HETATM   26  N   UNL     1      25.648  43.655  52.897  1.00  0.00    -0.378 N 
HETATM   27  C   UNL     1      25.367  44.227  54.232  1.00  0.00     0.150 C 
HETATM   28  C   UNL     1      26.400  45.322  54.574  1.00  0.00     0.255 C 
HETATM   29  N   UNL     1      27.824  44.762  54.477  1.00  0.00    -0.064 N 
HETATM   30  H   UNL     1      27.893  44.014  55.175  1.00  0.00     0.280 HD
HETATM   31  C   UNL     1      28.072  44.131  53.103  1.00  0.00     0.255 C 
HETATM   32  C   UNL     1      26.996  43.067  52.799  1.00  0.00     0.150 C 
BRANCH  29  33
HETATM   33  C   UNL     1      28.875  45.786  54.824  1.00  0.00     0.273 C 
BRANCH  33  34
HETATM   34  C   UNL     1      29.761  45.342  55.957  1.00  0.00    -0.033 A 
HETATM   35  C   UNL     1      30.608  44.232  55.804  1.00  0.00     0.009 A 
HETATM   36  C   UNL     1      31.404  43.800  56.865  1.00  0.00     0.001 A 
HETATM   37  C   UNL     1      31.363  44.468  58.087  1.00  0.00     0.000 A 
HETATM   38  C   UNL     1      30.529  45.571  58.250  1.00  0.00     0.001 A 
HETATM   39  C   UNL     1      29.733  46.010  57.191  1.00  0.00     0.009 A 
ENDBRANCH  33  34
ENDBRANCH  29  33
ENDBRANCH   4  26
TORSDOF 10
ENDMDL
MODEL 6
REMARK VINA RESULT:      -8.8      3.492     11.137
REMARK  10 active torsions:
REMARK  status: ('A' for Active; 'I' for Inactive)
REMARK    1  A    between atoms: C_2  and  C_3 
REMARK    2  A    between atoms: C_3  and  O_4 
REMARK    3  A    between atoms: O_4  and  C_5 
REMARK    4  A    between atoms: C_7  and  C_8 
REMARK       I    between atoms: C_8  and  N_9 
REMARK    5  A    between atoms: N_9  and  C_10 
REMARK    6  A    between atoms: C_10  and  N_11 
REMARK    7  A    between atoms: N_11  and  C_12 
REMARK    8  A    between atoms: C_15  and  N_16 
REMARK    9  A    between atoms: N_19  and  C_21 
REMARK   10  A    between atoms: C_21  and  C_22 
ROOT
HETATM    1  C   UNL     1      23.168  43.752  50.022  1.00  0.00     0.034 A 
HETATM    2  C   UNL     1      23.754  42.490  49.942  1.00  0.00     0.032 A 
HETATM    3  C   UNL     1      24.981  42.221  50.568  1.00  0.00     0.031 A 
HETATM    4  C   UNL     1      25.664  43.183  51.326  1.00  0.00     0.030 A 
HETATM    5  C   UNL     1      25.045  44.444  51.399  1.00  0.00     0.031 A 
HETATM    6  C   UNL     1      23.822  44.730  50.755  1.00  0.00     0.032 A 
ENDROOT
BRANCH   1   7
HETATM    7  N   UNL     1      22.014  43.959  49.235  1.00  0.00    -0.333 N 
HETATM    8  H   UNL     1      21.752  43.146  48.686  1.00  0.00     0.168 HD
BRANCH   7   9
HETATM    9  C   UNL     1      21.482  45.089  48.734  1.00  0.00     0.179 C 
HETATM   10  S   UNL     1      22.289  45.843  47.472  1.00  0.00    -0.040 SA
BRANCH   9  11
HETATM   11  N   UNL     1      20.304  45.633  49.125  1.00  0.00    -0.299 N 
HETATM   12  C   UNL     1      19.073  45.506  48.483  1.00  0.00     0.257 C 
HETATM   13  O   UNL     1      18.643  44.486  47.955  1.00  0.00    -0.267 OA
HETATM   14  H   UNL     1      20.500  46.562  49.469  1.00  0.00     0.171 HD
BRANCH  12  15
HETATM   15  C   UNL     1      18.213  46.735  48.490  1.00  0.00     0.035 A 
HETATM   16  C   UNL     1      18.583  47.928  49.126  1.00  0.00     0.053 A 
HETATM   17  C   UNL     1      17.778  49.071  49.039  1.00  0.00     0.069 A 
HETATM   18  C   UNL     1      16.579  49.015  48.330  1.00  0.00     0.037 A 
HETATM   19  C   UNL     1      16.184  47.823  47.719  1.00  0.00     0.004 A 
HETATM   20  C   UNL     1      16.996  46.688  47.797  1.00  0.00     0.017 A 
BRANCH  17  21
HETATM   21  O   UNL     1      18.289  50.168  49.675  1.00  0.00    -0.351 OA
BRANCH  21  22
HETATM   22  C   UNL     1      19.686  50.163  49.986  1.00  0.00     0.179 C 
BRANCH  22  23
HETATM   23  C   UNL     1      20.326  51.414  49.362  1.00  0.00     0.002 C 
HETATM   24  C   UNL     1      19.284  52.232  48.603  1.00  0.00     0.011 C 
HETATM   25  C   UNL     1      21.484  51.041  48.434  1.00  0.00     0.011 C 
ENDBRANCH  22  23
ENDBRANCH  21  22
ENDBRANCH  17  21
ENDBRANCH  12  15
ENDBRANCH   9  11
ENDBRANCH   7   9
ENDBRANCH   1   7
BRANCH   4  26
HETATM   26  N   UNL     1      26.910  42.904  51.892  1.00  0.00    -0.378 N 
HETATM   27  C   UNL     1      26.971  42.282  53.232  1.00  0.00     0.150 C 
HETATM   28  C   UNL     1      27.080  43.369  54.323  1.00  0.00     0.255 C 
HETATM   29  N   UNL     1      28.286  44.276  54.055  1.00  0.00    -0.064 N 
HETATM   30  H   UNL     1      29.119  43.678  54.101  1.00  0.00     0.280 HD
HETATM   31  C   UNL     1      28.226  44.866  52.642  1.00  0.00     0.255 C 
HETATM   32  C   UNL     1      28.087  43.741  51.595  1.00  0.00     0.150 C 
BRANCH  29  33
HETATM   33  C   UNL     1      28.455  45.344  55.105  1.00  0.00     0.273 C 
BRANCH  33  34
HETATM   34  C   UNL     1      29.554  45.026  56.082  1.00  0.00    -0.033 A 
HETATM   35  C   UNL     1      30.454  43.980  55.823  1.00  0.00     0.009 A 
HETATM   36  C   UNL     1      31.453  43.662  56.744  1.00  0.00     0.001 A 
HETATM   37  C   UNL     1      31.563  44.383  57.932  1.00  0.00     0.000 A 
HETATM   38  C   UNL     1      30.677  45.424  58.199  1.00  0.00     0.001 A 
HETATM   39  C   UNL     1      29.679  45.748  57.279  1.00  0.00     0.009 A 
ENDBRANCH  33  34
ENDBRANCH  29  33
ENDBRANCH   4  26
TORSDOF 10
ENDMDL
MODEL 7
REMARK VINA RESULT:      -8.8      3.431     12.261
REMARK  10 active torsions:
REMARK  status: ('A' for Active; 'I' for Inactive)
REMARK    1  A    between atoms: C_2  and  C_3 
REMARK    2  A    between atoms: C_3  and  O_4 
REMARK    3  A    between atoms: O_4  and  C_5 
REMARK    4  A    between atoms: C_7  and  C_8 
REMARK       I    between atoms: C_8  and  N_9 
REMARK    5  A    between atoms: N_9  and  C_10 
REMARK    6  A    between atoms: C_10  and  N_11 
REMARK    7  A    between atoms: N_11  and  C_12 
REMARK    8  A    between atoms: C_15  and  N_16 
REMARK    9  A    between atoms: N_19  and  C_21 
REMARK   10  A    between atoms: C_21  and  C_22 
ROOT
HETATM    1  C   UNL     1      24.231  46.730  49.962  1.00  0.00     0.034 A 
HETATM    2  C   UNL     1      23.868  45.384  49.939  1.00  0.00     0.032 A 
HETATM    3  C   UNL     1      24.336  44.492  50.916  1.00  0.00     0.031 A 
HETATM    4  C   UNL     1      25.159  44.901  51.975  1.00  0.00     0.030 A 
HETATM    5  C   UNL     1      25.500  46.266  51.981  1.00  0.00     0.031 A 
HETATM    6  C   UNL     1      25.052  47.166  50.991  1.00  0.00     0.032 A 
ENDROOT
BRANCH   1   7
HETATM    7  N   UNL     1      23.830  47.507  48.855  1.00  0.00    -0.333 N 
HETATM    8  H   UNL     1      24.259  47.214  47.982  1.00  0.00     0.168 HD
BRANCH   7   9
HETATM    9  C   UNL     1      23.379  48.773  48.785  1.00  0.00     0.179 C 
HETATM   10  S   UNL     1      24.471  49.973  48.361  1.00  0.00    -0.040 SA
BRANCH   9  11
HETATM   11  N   UNL     1      22.090  49.150  48.966  1.00  0.00    -0.299 N 
HETATM   12  C   UNL     1      21.024  48.918  48.099  1.00  0.00     0.257 C 
HETATM   13  O   UNL     1      20.830  47.889  47.461  1.00  0.00    -0.267 OA
HETATM   14  H   UNL     1      22.100  50.074  49.375  1.00  0.00     0.171 HD
BRANCH  12  15
HETATM   15  C   UNL     1      20.027  50.035  47.989  1.00  0.00     0.035 A 
HETATM   16  C   UNL     1      18.749  49.873  47.437  1.00  0.00     0.053 A 
HETATM   17  C   UNL     1      17.830  50.929  47.427  1.00  0.00     0.069 A 
HETATM   18  C   UNL     1      18.198  52.167  47.952  1.00  0.00     0.037 A 
HETATM   19  C   UNL     1      19.479  52.349  48.477  1.00  0.00     0.004 A 
HETATM   20  C   UNL     1      20.390  51.290  48.497  1.00  0.00     0.017 A 
BRANCH  17  21
HETATM   21  O   UNL     1      16.613  50.609  46.892  1.00  0.00    -0.351 OA
BRANCH  21  22
HETATM   22  C   UNL     1      15.867  51.657  46.266  1.00  0.00     0.179 C 
BRANCH  22  23
HETATM   23  C   UNL     1      16.350  51.797  44.814  1.00  0.00     0.002 C 
HETATM   24  C   UNL     1      16.933  53.188  44.570  1.00  0.00     0.011 C 
HETATM   25  C   UNL     1      15.218  51.518  43.822  1.00  0.00     0.011 C 
ENDBRANCH  22  23
ENDBRANCH  21  22
ENDBRANCH  17  21
ENDBRANCH  12  15
ENDBRANCH   9  11
ENDBRANCH   7   9
ENDBRANCH   1   7
BRANCH   4  26
HETATM   26  N   UNL     1      25.654  43.981  52.901  1.00  0.00    -0.378 N 
HETATM   27  C   UNL     1      25.961  44.433  54.276  1.00  0.00     0.150 C 
HETATM   28  C   UNL     1      27.443  44.851  54.384  1.00  0.00     0.255 C 
HETATM   29  N   UNL     1      28.356  43.702  53.939  1.00  0.00    -0.064 N 
HETATM   30  H   UNL     1      28.184  42.924  54.587  1.00  0.00     0.280 HD
HETATM   31  C   UNL     1      27.984  43.218  52.534  1.00  0.00     0.255 C 
HETATM   32  C   UNL     1      26.488  42.843  52.474  1.00  0.00     0.150 C 
BRANCH  29  33
HETATM   33  C   UNL     1      29.819  44.047  54.047  1.00  0.00     0.273 C 
BRANCH  33  34
HETATM   34  C   UNL     1      30.268  44.222  55.472  1.00  0.00    -0.033 A 
HETATM   35  C   UNL     1      29.969  45.401  56.173  1.00  0.00     0.009 A 
HETATM   36  C   UNL     1      30.414  45.578  57.484  1.00  0.00     0.001 A 
HETATM   37  C   UNL     1      31.164  44.582  58.106  1.00  0.00     0.000 A 
HETATM   38  C   UNL     1      31.466  43.407  57.423  1.00  0.00     0.001 A 
HETATM   39  C   UNL     1      31.020  43.224  56.113  1.00  0.00     0.009 A 
ENDBRANCH  33  34
ENDBRANCH  29  33
ENDBRANCH   4  26
TORSDOF 10
ENDMDL
MODEL 8
REMARK VINA RESULT:      -8.7      3.211     11.629
REMARK  10 active torsions:
REMARK  status: ('A' for Active; 'I' for Inactive)
REMARK    1  A    between atoms: C_2  and  C_3 
REMARK    2  A    between atoms: C_3  and  O_4 
REMARK    3  A    between atoms: O_4  and  C_5 
REMARK    4  A    between atoms: C_7  and  C_8 
REMARK       I    between atoms: C_8  and  N_9 
REMARK    5  A    between atoms: N_9  and  C_10 
REMARK    6  A    between atoms: C_10  and  N_11 
REMARK    7  A    between atoms: N_11  and  C_12 
REMARK    8  A    between atoms: C_15  and  N_16 
REMARK    9  A    between atoms: N_19  and  C_21 
REMARK   10  A    between atoms: C_21  and  C_22 
ROOT
HETATM    1  C   UNL     1      25.699  46.962  50.404  1.00  0.00     0.034 A 
HETATM    2  C   UNL     1      26.034  45.764  49.775  1.00  0.00     0.032 A 
HETATM    3  C   UNL     1      26.349  44.619  50.522  1.00  0.00     0.031 A 
HETATM    4  C   UNL     1      26.315  44.603  51.923  1.00  0.00     0.030 A 
HETATM    5  C   UNL     1      25.962  45.821  52.531  1.00  0.00     0.031 A 
HETATM    6  C   UNL     1      25.665  46.984  51.790  1.00  0.00     0.032 A 
ENDROOT
BRANCH   1   7
HETATM    7  N   UNL     1      25.547  48.088  49.567  1.00  0.00    -0.333 N 
HETATM    8  H   UNL     1      26.353  48.705  49.573  1.00  0.00     0.168 HD
BRANCH   7   9
HETATM    9  C   UNL     1      24.440  48.724  49.139  1.00  0.00     0.179 C 
HETATM   10  S   UNL     1      24.637  50.055  48.138  1.00  0.00    -0.040 SA
BRANCH   9  11
HETATM   11  N   UNL     1      23.169  48.331  49.400  1.00  0.00    -0.299 N 
HETATM   12  C   UNL     1      22.204  47.957  48.466  1.00  0.00     0.257 C 
HETATM   13  O   UNL     1      22.405  47.288  47.459  1.00  0.00    -0.267 OA
HETATM   14  H   UNL     1      22.820  48.915  50.148  1.00  0.00     0.171 HD
BRANCH  12  15
HETATM   15  C   UNL     1      20.804  48.401  48.773  1.00  0.00     0.035 A 
HETATM   16  C   UNL     1      20.420  49.748  48.830  1.00  0.00     0.053 A 
HETATM   17  C   UNL     1      19.084  50.107  49.046  1.00  0.00     0.069 A 
HETATM   18  C   UNL     1      18.125  49.113  49.231  1.00  0.00     0.037 A 
HETATM   19  C   UNL     1      18.501  47.768  49.207  1.00  0.00     0.004 A 
HETATM   20  C   UNL     1      19.833  47.412  48.979  1.00  0.00     0.017 A 
BRANCH  17  21
HETATM   21  O   UNL     1      18.856  51.456  49.036  1.00  0.00    -0.351 OA
BRANCH  21  22
HETATM   22  C   UNL     1      18.111  51.995  47.939  1.00  0.00     0.179 C 
BRANCH  22  23
HETATM   23  C   UNL     1      16.753  52.482  48.468  1.00  0.00     0.002 C 
HETATM   24  C   UNL     1      16.790  52.641  49.987  1.00  0.00     0.011 C 
HETATM   25  C   UNL     1      15.626  51.529  48.064  1.00  0.00     0.011 C 
ENDBRANCH  22  23
ENDBRANCH  21  22
ENDBRANCH  17  21
ENDBRANCH  12  15
ENDBRANCH   9  11
ENDBRANCH   7   9
ENDBRANCH   1   7
BRANCH   4  26
HETATM   26  N   UNL     1      26.686  43.464  52.641  1.00  0.00    -0.378 N 
HETATM   27  C   UNL     1      26.761  43.532  54.117  1.00  0.00     0.150 C 
HETATM   28  C   UNL     1      28.194  43.888  54.565  1.00  0.00     0.255 C 
HETATM   29  N   UNL     1      29.199  42.885  53.985  1.00  0.00    -0.064 N 
HETATM   30  H   UNL     1      28.952  41.966  54.368  1.00  0.00     0.280 HD
HETATM   31  C   UNL     1      29.066  42.795  52.461  1.00  0.00     0.255 C 
HETATM   32  C   UNL     1      27.610  42.469  52.068  1.00  0.00     0.150 C 
BRANCH  29  33
HETATM   33  C   UNL     1      30.617  43.172  54.410  1.00  0.00     0.273 C 
BRANCH  33  34
HETATM   34  C   UNL     1      30.688  43.956  55.692  1.00  0.00    -0.033 A 
HETATM   35  C   UNL     1      31.362  43.435  56.809  1.00  0.00     0.009 A 
HETATM   36  C   UNL     1      31.399  44.147  58.008  1.00  0.00     0.001 A 
HETATM   37  C   UNL     1      30.764  45.383  58.106  1.00  0.00     0.000 A 
HETATM   38  C   UNL     1      30.094  45.911  57.006  1.00  0.00     0.001 A 
HETATM   39  C   UNL     1      30.057  45.205  55.803  1.00  0.00     0.009 A 
ENDBRANCH  33  34
ENDBRANCH  29  33
ENDBRANCH   4  26
TORSDOF 10
ENDMDL
MODEL 9
REMARK VINA RESULT:      -8.6      3.438     11.691
REMARK  10 active torsions:
REMARK  status: ('A' for Active; 'I' for Inactive)
REMARK    1  A    between atoms: C_2  and  C_3 
REMARK    2  A    between atoms: C_3  and  O_4 
REMARK    3  A    between atoms: O_4  and  C_5 
REMARK    4  A    between atoms: C_7  and  C_8 
REMARK       I    between atoms: C_8  and  N_9 
REMARK    5  A    between atoms: N_9  and  C_10 
REMARK    6  A    between atoms: C_10  and  N_11 
REMARK    7  A    between atoms: N_11  and  C_12 
REMARK    8  A    between atoms: C_15  and  N_16 
REMARK    9  A    between atoms: N_19  and  C_21 
REMARK   10  A    between atoms: C_21  and  C_22 
ROOT
HETATM    1  C   UNL     1      21.735  45.508  48.576  1.00  0.00     0.034 A 
HETATM    2  C   UNL     1      21.874  44.174  48.955  1.00  0.00     0.032 A 
HETATM    3  C   UNL     1      23.095  43.684  49.442  1.00  0.00     0.031 A 
HETATM    4  C   UNL     1      24.223  44.501  49.602  1.00  0.00     0.030 A 
HETATM    5  C   UNL     1      24.053  45.845  49.222  1.00  0.00     0.031 A 
HETATM    6  C   UNL     1      22.835  46.342  48.712  1.00  0.00     0.032 A 
ENDROOT
BRANCH   1   7
HETATM    7  N   UNL     1      20.515  45.862  47.962  1.00  0.00    -0.333 N 
HETATM    8  H   UNL     1      19.985  45.062  47.630  1.00  0.00     0.168 HD
BRANCH   7   9
HETATM    9  C   UNL     1      20.138  46.997  47.345  1.00  0.00     0.179 C 
HETATM   10  S   UNL     1      19.500  46.875  45.799  1.00  0.00    -0.040 SA
BRANCH   9  11
HETATM   11  N   UNL     1      20.169  48.232  47.903  1.00  0.00    -0.299 N 
HETATM   12  C   UNL     1      19.457  48.659  49.023  1.00  0.00     0.257 C 
HETATM   13  O   UNL     1      19.255  48.001  50.037  1.00  0.00    -0.267 OA
HETATM   14  H   UNL     1      20.199  48.903  47.148  1.00  0.00     0.171 HD
BRANCH  12  15
HETATM   15  C   UNL     1      18.938  50.066  48.958  1.00  0.00     0.035 A 
HETATM   16  C   UNL     1      17.681  50.445  49.449  1.00  0.00     0.053 A 
HETATM   17  C   UNL     1      17.276  51.785  49.433  1.00  0.00     0.069 A 
HETATM   18  C   UNL     1      18.124  52.754  48.901  1.00  0.00     0.037 A 
HETATM   19  C   UNL     1      19.367  52.385  48.381  1.00  0.00     0.004 A 
HETATM   20  C   UNL     1      19.774  51.048  48.409  1.00  0.00     0.017 A 
BRANCH  17  21
HETATM   21  O   UNL     1      16.042  52.005  49.981  1.00  0.00    -0.351 OA
BRANCH  21  22
HETATM   22  C   UNL     1      15.703  53.350  50.332  1.00  0.00     0.179 C 
BRANCH  22  23
HETATM   23  C   UNL     1      14.320  53.672  49.743  1.00  0.00     0.002 C 
HETATM   24  C   UNL     1      14.408  53.858  48.229  1.00  0.00     0.011 C 
HETATM   25  C   UNL     1      13.715  54.918  50.394  1.00  0.00     0.011 C 
ENDBRANCH  22  23
ENDBRANCH  21  22
ENDBRANCH  17  21
ENDBRANCH  12  15
ENDBRANCH   9  11
ENDBRANCH   7   9
ENDBRANCH   1   7
BRANCH   4  26
HETATM   26  N   UNL     1      25.441  43.973  50.036  1.00  0.00    -0.378 N 
HETATM   27  C   UNL     1      25.449  42.992  51.143  1.00  0.00     0.150 C 
HETATM   28  C   UNL     1      25.647  43.711  52.495  1.00  0.00     0.255 C 
HETATM   29  N   UNL     1      26.926  44.557  52.468  1.00  0.00    -0.064 N 
HETATM   30  H   UNL     1      27.705  43.906  52.323  1.00  0.00     0.280 HD
HETATM   31  C   UNL     1      26.915  45.528  51.283  1.00  0.00     0.255 C 
HETATM   32  C   UNL     1      26.684  44.763  49.963  1.00  0.00     0.150 C 
BRANCH  29  33
HETATM   33  C   UNL     1      27.182  45.265  53.774  1.00  0.00     0.273 C 
BRANCH  33  34
HETATM   34  C   UNL     1      28.457  44.817  54.434  1.00  0.00    -0.033 A 
HETATM   35  C   UNL     1      29.076  43.618  54.044  1.00  0.00     0.009 A 
HETATM   36  C   UNL     1      30.241  43.185  54.678  1.00  0.00     0.001 A 
HETATM   37  C   UNL     1      30.798  43.940  55.708  1.00  0.00     0.000 A 
HETATM   38  C   UNL     1      30.194  45.131  56.103  1.00  0.00     0.001 A 
HETATM   39  C   UNL     1      29.031  45.571  55.469  1.00  0.00     0.009 A 
ENDBRANCH  33  34
ENDBRANCH  29  33
ENDBRANCH   4  26
TORSDOF 10
ENDMDL
MODEL 10
REMARK VINA RESULT:      -8.4      1.819      2.454
REMARK  10 active torsions:
REMARK  status: ('A' for Active; 'I' for Inactive)
REMARK    1  A    between atoms: C_2  and  C_3 
REMARK    2  A    between atoms: C_3  and  O_4 
REMARK    3  A    between atoms: O_4  and  C_5 
REMARK    4  A    between atoms: C_7  and  C_8 
REMARK       I    between atoms: C_8  and  N_9 
REMARK    5  A    between atoms: N_9  and  C_10 
REMARK    6  A    between atoms: C_10  and  N_11 
REMARK    7  A    between atoms: N_11  and  C_12 
REMARK    8  A    between atoms: C_15  and  N_16 
REMARK    9  A    between atoms: N_19  and  C_21 
REMARK   10  A    between atoms: C_21  and  C_22 
ROOT
HETATM    1  C   UNL     1      24.241  45.602  49.153  1.00  0.00     0.034 A 
HETATM    2  C   UNL     1      23.361  44.565  48.845  1.00  0.00     0.032 A 
HETATM    3  C   UNL     1      22.020  44.826  48.526  1.00  0.00     0.031 A 
HETATM    4  C   UNL     1      21.500  46.127  48.469  1.00  0.00     0.030 A 
HETATM    5  C   UNL     1      22.412  47.154  48.773  1.00  0.00     0.031 A 
HETATM    6  C   UNL     1      23.757  46.901  49.115  1.00  0.00     0.032 A 
ENDROOT
BRANCH   1   7
HETATM    7  N   UNL     1      25.524  45.223  49.603  1.00  0.00    -0.333 N 
HETATM    8  H   UNL     1      26.169  45.012  48.848  1.00  0.00     0.168 HD
BRANCH   7   9
HETATM    9  C   UNL     1      25.920  44.668  50.764  1.00  0.00     0.179 C 
HETATM   10  S   UNL     1      26.781  43.231  50.692  1.00  0.00    -0.040 SA
BRANCH   9  11
HETATM   11  N   UNL     1      25.736  45.216  51.990  1.00  0.00    -0.299 N 
HETATM   12  C   UNL     1      26.019  46.528  52.367  1.00  0.00     0.257 C 
HETATM   13  O   UNL     1      25.825  47.527  51.685  1.00  0.00    -0.267 OA
HETATM   14  H   UNL     1      25.998  44.520  52.674  1.00  0.00     0.171 HD
BRANCH  12  15
HETATM   15  C   UNL     1      26.575  46.694  53.752  1.00  0.00     0.035 A 
HETATM   16  C   UNL     1      27.486  45.797  54.326  1.00  0.00     0.053 A 
HETATM   17  C   UNL     1      28.033  46.039  55.593  1.00  0.00     0.069 A 
HETATM   18  C   UNL     1      27.648  47.174  56.303  1.00  0.00     0.037 A 
HETATM   19  C   UNL     1      26.717  48.059  55.754  1.00  0.00     0.004 A 
HETATM   20  C   UNL     1      26.183  47.822  54.485  1.00  0.00     0.017 A 
BRANCH  17  21
HETATM   21  O   UNL     1      28.936  45.097  56.003  1.00  0.00    -0.351 OA
BRANCH  21  22
HETATM   22  C   UNL     1      30.319  45.337  55.721  1.00  0.00     0.179 C 
BRANCH  22  23
HETATM   23  C   UNL     1      31.022  43.981  55.555  1.00  0.00     0.002 C 
HETATM   24  C   UNL     1      30.329  43.139  54.486  1.00  0.00     0.011 C 
HETATM   25  C   UNL     1      31.073  43.215  56.879  1.00  0.00     0.011 C 
ENDBRANCH  22  23
ENDBRANCH  21  22
ENDBRANCH  17  21
ENDBRANCH  12  15
ENDBRANCH   9  11
ENDBRANCH   7   9
ENDBRANCH   1   7
BRANCH   4  26
HETATM   26  N   UNL     1      20.148  46.352  48.202  1.00  0.00    -0.378 N 
HETATM   27  C   UNL     1      19.710  46.547  46.803  1.00  0.00     0.150 C 
HETATM   28  C   UNL     1      19.698  48.050  46.450  1.00  0.00     0.255 C 
HETATM   29  N   UNL     1      18.820  48.824  47.440  1.00  0.00    -0.064 N 
HETATM   30  H   UNL     1      17.868  48.454  47.339  1.00  0.00     0.280 HD
HETATM   31  C   UNL     1      19.262  48.565  48.884  1.00  0.00     0.255 C 
HETATM   32  C   UNL     1      19.285  47.049  49.174  1.00  0.00     0.150 C 
BRANCH  29  33
HETATM   33  C   UNL     1      18.753  50.298  47.127  1.00  0.00     0.273 C 
BRANCH  33  34
HETATM   34  C   UNL     1      17.820  51.041  48.044  1.00  0.00    -0.033 A 
HETATM   35  C   UNL     1      16.443  50.763  48.035  1.00  0.00     0.009 A 
HETATM   36  C   UNL     1      15.573  51.476  48.861  1.00  0.00     0.001 A 
HETATM   37  C   UNL     1      16.065  52.472  49.701  1.00  0.00     0.000 A 
HETATM   38  C   UNL     1      17.429  52.756  49.720  1.00  0.00     0.001 A 
HETATM   39  C   UNL     1      18.304  52.043  48.899  1.00  0.00     0.009 A 
ENDBRANCH  33  34
ENDBRANCH  29  33
ENDBRANCH   4  26
TORSDOF 10
ENDMDL
