MODEL 1
REMARK VINA RESULT:      -7.5      0.000      0.000
REMARK  6 active torsions:
REMARK  status: ('A' for Active; 'I' for Inactive)
REMARK    1  A    between atoms: C_7  and  S_8 
REMARK    2  A    between atoms: S_8  and  C_9 
REMARK    3  A    between atoms: C_9  and  C_10 
REMARK    4  A    between atoms: C_18  and  C_19 
REMARK    5  A    between atoms: C_26  and  C_27 
REMARK    6  A    between atoms: C_27  and  O_28 
ROOT
HETATM    1  C   UNL     1      34.352  50.060  42.004  1.00  0.00     0.070 C 
HETATM    2  C   UNL     1      33.278  49.740  40.993  1.00  0.00     0.037 A 
HETATM    3  N   UNL     1      32.680  48.493  41.128  1.00  0.00    -0.192 N 
HETATM    4  C   UNL     1      31.724  48.034  40.300  1.00  0.00     0.726 A 
HETATM    5  N   UNL     1      31.315  48.809  39.251  1.00  0.00    -0.082 N 
HETATM    6  N   UNL     1      30.384  48.176  38.507  1.00  0.00    -0.128 NA
HETATM    7  C   UNL     1      30.225  47.047  39.211  1.00  0.00     0.226 A 
HETATM    8  N   UNL     1      31.047  46.918  40.305  1.00  0.00    -0.035 NA
HETATM    9  C   UNL     1      31.825  50.160  38.979  1.00  0.00     0.203 A 
HETATM   10  C   UNL     1      32.898  50.562  39.984  1.00  0.00     0.070 A 
HETATM   11  H   UNL     1      32.976  47.907  41.905  1.00  0.00     0.184 HD
ENDROOT
BRANCH   7  12
HETATM   12  S   UNL     1      29.029  45.839  38.837  1.00  0.00    -0.083 SA
BRANCH  12  13
HETATM   13  C   UNL     1      27.643  46.358  39.884  1.00  0.00     0.123 C 
BRANCH  13  14
HETATM   14  C   UNL     1      27.001  47.623  39.358  1.00  0.00    -0.027 A 
HETATM   15  C   UNL     1      27.066  48.853  40.031  1.00  0.00     0.041 A 
HETATM   16 CL   UNL     1      27.859  49.021  41.557  1.00  0.00    -0.084 Cl
HETATM   17  C   UNL     1      26.479  49.997  39.479  1.00  0.00     0.024 A 
HETATM   18  C   UNL     1      25.822  49.930  38.252  1.00  0.00     0.002 A 
HETATM   19  C   UNL     1      25.751  48.719  37.570  1.00  0.00     0.001 A 
HETATM   20  C   UNL     1      26.338  47.576  38.116  1.00  0.00     0.009 A 
ENDBRANCH  13  14
ENDBRANCH  12  13
ENDBRANCH   7  12
BRANCH   9  21
HETATM   21  C   UNL     1      30.668  51.155  38.919  1.00  0.00    -0.026 A 
HETATM   22  C   UNL     1      29.955  51.467  40.090  1.00  0.00     0.033 A 
HETATM   23  C   UNL     1      28.885  52.361  40.048  1.00  0.00     0.034 A 
HETATM   24 CL   UNL     1      28.019  52.722  41.490  1.00  0.00    -0.084 Cl
HETATM   25  C   UNL     1      28.511  52.959  38.847  1.00  0.00     0.024 A 
HETATM   26  C   UNL     1      29.208  52.658  37.678  1.00  0.00     0.002 A 
HETATM   27  C   UNL     1      30.277  51.760  37.711  1.00  0.00     0.010 A 
ENDBRANCH   9  21
BRANCH  10  28
HETATM   28  C   UNL     1      33.466  51.917  39.837  1.00  0.00     0.293 C 
HETATM   29  O   UNL     1      33.167  52.869  40.540  1.00  0.00    -0.259 OA
BRANCH  28  30
HETATM   30  O   UNL     1      34.352  51.926  38.810  1.00  0.00    -0.323 OA
HETATM   31  C   UNL     1      35.695  52.202  39.217  1.00  0.00     0.213 C 
ENDBRANCH  28  30
ENDBRANCH  10  28
TORSDOF 6
ENDMDL
MODEL 2
REMARK VINA RESULT:      -7.5     12.347     14.456
REMARK  6 active torsions:
REMARK  status: ('A' for Active; 'I' for Inactive)
REMARK    1  A    between atoms: C_7  and  S_8 
REMARK    2  A    between atoms: S_8  and  C_9 
REMARK    3  A    between atoms: C_9  and  C_10 
REMARK    4  A    between atoms: C_18  and  C_19 
REMARK    5  A    between atoms: C_26  and  C_27 
REMARK    6  A    between atoms: C_27  and  O_28 
ROOT
HETATM    1  C   UNL     1      23.964  43.463  47.717  1.00  0.00     0.070 C 
HETATM    2  C   UNL     1      24.097  44.584  48.719  1.00  0.00     0.037 A 
HETATM    3  N   UNL     1      25.140  44.453  49.629  1.00  0.00    -0.192 N 
HETATM    4  C   UNL     1      25.389  45.344  50.605  1.00  0.00     0.726 A 
HETATM    5  N   UNL     1      24.577  46.435  50.743  1.00  0.00    -0.082 N 
HETATM    6  N   UNL     1      24.950  47.195  51.794  1.00  0.00    -0.128 NA
HETATM    7  C   UNL     1      26.044  46.539  52.202  1.00  0.00     0.226 A 
HETATM    8  N   UNL     1      26.331  45.388  51.508  1.00  0.00    -0.035 NA
HETATM    9  C   UNL     1      23.447  46.736  49.853  1.00  0.00     0.203 A 
HETATM   10  C   UNL     1      23.270  45.656  48.793  1.00  0.00     0.070 A 
HETATM   11  H   UNL     1      25.751  43.646  49.536  1.00  0.00     0.184 HD
ENDROOT
BRANCH   7  12
HETATM   12  S   UNL     1      27.091  47.108  53.471  1.00  0.00    -0.083 SA
BRANCH  12  13
HETATM   13  C   UNL     1      26.911  45.797  54.710  1.00  0.00     0.123 C 
BRANCH  13  14
HETATM   14  C   UNL     1      28.243  45.150  55.022  1.00  0.00    -0.027 A 
HETATM   15  C   UNL     1      28.620  43.892  54.526  1.00  0.00     0.041 A 
HETATM   16 CL   UNL     1      27.565  42.945  53.538  1.00  0.00    -0.084 Cl
HETATM   17  C   UNL     1      29.879  43.359  54.823  1.00  0.00     0.024 A 
HETATM   18  C   UNL     1      30.777  44.071  55.616  1.00  0.00     0.002 A 
HETATM   19  C   UNL     1      30.420  45.321  56.114  1.00  0.00     0.001 A 
HETATM   20  C   UNL     1      29.166  45.858  55.817  1.00  0.00     0.009 A 
ENDBRANCH  13  14
ENDBRANCH  12  13
ENDBRANCH   7  12
BRANCH   9  21
HETATM   21  C   UNL     1      23.609  48.131  49.254  1.00  0.00    -0.026 A 
HETATM   22  C   UNL     1      22.491  48.978  49.145  1.00  0.00     0.033 A 
HETATM   23  C   UNL     1      22.620  50.248  48.584  1.00  0.00     0.034 A 
HETATM   24 CL   UNL     1      21.239  51.266  48.451  1.00  0.00    -0.084 Cl
HETATM   25  C   UNL     1      23.857  50.697  48.127  1.00  0.00     0.024 A 
HETATM   26  C   UNL     1      24.973  49.868  48.227  1.00  0.00     0.002 A 
HETATM   27  C   UNL     1      24.851  48.592  48.783  1.00  0.00     0.010 A 
ENDBRANCH   9  21
BRANCH  10  28
HETATM   28  C   UNL     1      22.187  45.863  47.812  1.00  0.00     0.293 C 
HETATM   29  O   UNL     1      22.354  46.275  46.676  1.00  0.00    -0.259 OA
BRANCH  28  30
HETATM   30  O   UNL     1      20.998  45.528  48.376  1.00  0.00    -0.323 OA
HETATM   31  C   UNL     1      19.926  46.398  48.007  1.00  0.00     0.213 C 
ENDBRANCH  28  30
ENDBRANCH  10  28
TORSDOF 6
ENDMDL
MODEL 3
REMARK VINA RESULT:      -7.5     12.129     13.969
REMARK  6 active torsions:
REMARK  status: ('A' for Active; 'I' for Inactive)
REMARK    1  A    between atoms: C_7  and  S_8 
REMARK    2  A    between atoms: S_8  and  C_9 
REMARK    3  A    between atoms: C_9  and  C_10 
REMARK    4  A    between atoms: C_18  and  C_19 
REMARK    5  A    between atoms: C_26  and  C_27 
REMARK    6  A    between atoms: C_27  and  O_28 
ROOT
HETATM    1  C   UNL     1      25.032  44.511  54.848  1.00  0.00     0.070 C 
HETATM    2  C   UNL     1      25.504  44.570  53.415  1.00  0.00     0.037 A 
HETATM    3  N   UNL     1      25.386  43.387  52.696  1.00  0.00    -0.192 N 
HETATM    4  C   UNL     1      25.780  43.253  51.417  1.00  0.00     0.726 A 
HETATM    5  N   UNL     1      26.346  44.318  50.774  1.00  0.00    -0.082 N 
HETATM    6  N   UNL     1      26.716  43.991  49.518  1.00  0.00    -0.128 NA
HETATM    7  C   UNL     1      26.273  42.729  49.445  1.00  0.00     0.226 A 
HETATM    8  N   UNL     1      25.712  42.238  50.600  1.00  0.00    -0.035 NA
HETATM    9  C   UNL     1      26.523  45.645  51.379  1.00  0.00     0.203 A 
HETATM   10  C   UNL     1      26.039  45.667  52.823  1.00  0.00     0.070 A 
HETATM   11  H   UNL     1      24.965  42.588  53.164  1.00  0.00     0.184 HD
ENDROOT
BRANCH   7  12
HETATM   12  S   UNL     1      26.325  41.772  47.992  1.00  0.00    -0.083 SA
BRANCH  12  13
HETATM   13  C   UNL     1      26.009  40.107  48.638  1.00  0.00     0.123 C 
BRANCH  13  14
HETATM   14  C   UNL     1      27.299  39.346  48.848  1.00  0.00    -0.027 A 
HETATM   15  C   UNL     1      27.921  38.598  47.835  1.00  0.00     0.041 A 
HETATM   16 CL   UNL     1      27.237  38.449  46.256  1.00  0.00    -0.084 Cl
HETATM   17  C   UNL     1      29.132  37.940  48.079  1.00  0.00     0.024 A 
HETATM   18  C   UNL     1      29.737  38.019  49.333  1.00  0.00     0.002 A 
HETATM   19  C   UNL     1      29.134  38.757  50.347  1.00  0.00     0.001 A 
HETATM   20  C   UNL     1      27.928  39.418  50.106  1.00  0.00     0.009 A 
ENDBRANCH  13  14
ENDBRANCH  12  13
ENDBRANCH   7  12
BRANCH   9  21
HETATM   21  C   UNL     1      25.850  46.709  50.514  1.00  0.00    -0.026 A 
HETATM   22  C   UNL     1      26.619  47.752  49.967  1.00  0.00     0.033 A 
HETATM   23  C   UNL     1      26.015  48.740  49.190  1.00  0.00     0.034 A 
HETATM   24 CL   UNL     1      26.970  50.014  48.537  1.00  0.00    -0.084 Cl
HETATM   25  C   UNL     1      24.644  48.706  48.942  1.00  0.00     0.024 A 
HETATM   26  C   UNL     1      23.870  47.679  49.479  1.00  0.00     0.002 A 
HETATM   27  C   UNL     1      24.467  46.688  50.263  1.00  0.00     0.010 A 
ENDBRANCH   9  21
BRANCH  10  28
HETATM   28  C   UNL     1      26.130  46.958  53.532  1.00  0.00     0.293 C 
HETATM   29  O   UNL     1      25.276  47.829  53.490  1.00  0.00    -0.259 OA
BRANCH  28  30
HETATM   30  O   UNL     1      27.298  47.015  54.219  1.00  0.00    -0.323 OA
HETATM   31  C   UNL     1      27.226  47.813  55.403  1.00  0.00     0.213 C 
ENDBRANCH  28  30
ENDBRANCH  10  28
TORSDOF 6
ENDMDL
MODEL 4
REMARK VINA RESULT:      -7.4     12.875     15.276
REMARK  6 active torsions:
REMARK  status: ('A' for Active; 'I' for Inactive)
REMARK    1  A    between atoms: C_7  and  S_8 
REMARK    2  A    between atoms: S_8  and  C_9 
REMARK    3  A    between atoms: C_9  and  C_10 
REMARK    4  A    between atoms: C_18  and  C_19 
REMARK    5  A    between atoms: C_26  and  C_27 
REMARK    6  A    between atoms: C_27  and  O_28 
ROOT
HETATM    1  C   UNL     1      29.867  37.508  50.861  1.00  0.00     0.070 C 
HETATM    2  C   UNL     1      28.911  38.621  50.505  1.00  0.00     0.037 A 
HETATM    3  N   UNL     1      29.054  39.792  51.241  1.00  0.00    -0.192 N 
HETATM    4  C   UNL     1      28.272  40.873  51.074  1.00  0.00     0.726 A 
HETATM    5  N   UNL     1      27.264  40.838  50.152  1.00  0.00    -0.082 N 
HETATM    6  N   UNL     1      26.561  41.990  50.150  1.00  0.00    -0.128 NA
HETATM    7  C   UNL     1      27.249  42.706  51.049  1.00  0.00     0.226 A 
HETATM    8  N   UNL     1      28.292  42.044  51.651  1.00  0.00    -0.035 NA
HETATM    9  C   UNL     1      26.991  39.691  49.276  1.00  0.00     0.203 A 
HETATM   10  C   UNL     1      27.942  38.534  49.560  1.00  0.00     0.070 A 
HETATM   11  H   UNL     1      29.801  39.830  51.930  1.00  0.00     0.184 HD
ENDROOT
BRANCH   7  12
HETATM   12  S   UNL     1      26.918  44.377  51.407  1.00  0.00    -0.083 SA
BRANCH  12  13
HETATM   13  C   UNL     1      26.411  44.286  53.146  1.00  0.00     0.123 C 
BRANCH  13  14
HETATM   14  C   UNL     1      27.425  44.954  54.048  1.00  0.00    -0.027 A 
HETATM   15  C   UNL     1      27.302  46.281  54.489  1.00  0.00     0.041 A 
HETATM   16 CL   UNL     1      25.988  47.290  54.000  1.00  0.00    -0.084 Cl
HETATM   17  C   UNL     1      28.256  46.835  55.350  1.00  0.00     0.024 A 
HETATM   18  C   UNL     1      29.342  46.075  55.782  1.00  0.00     0.002 A 
HETATM   19  C   UNL     1      29.477  44.757  55.356  1.00  0.00     0.001 A 
HETATM   20  C   UNL     1      28.526  44.200  54.500  1.00  0.00     0.009 A 
ENDBRANCH  13  14
ENDBRANCH  12  13
ENDBRANCH   7  12
BRANCH   9  21
HETATM   21  C   UNL     1      27.017  40.130  47.813  1.00  0.00    -0.026 A 
HETATM   22  C   UNL     1      25.870  39.967  47.015  1.00  0.00     0.033 A 
HETATM   23  C   UNL     1      25.885  40.347  45.673  1.00  0.00     0.034 A 
HETATM   24 CL   UNL     1      24.475  40.131  44.711  1.00  0.00    -0.084 Cl
HETATM   25  C   UNL     1      27.032  40.898  45.106  1.00  0.00     0.024 A 
HETATM   26  C   UNL     1      28.176  41.064  45.885  1.00  0.00     0.002 A 
HETATM   27  C   UNL     1      28.172  40.680  47.228  1.00  0.00     0.010 A 
ENDBRANCH   9  21
BRANCH  10  28
HETATM   28  C   UNL     1      27.793  37.332  48.717  1.00  0.00     0.293 C 
HETATM   29  O   UNL     1      26.921  36.491  48.865  1.00  0.00    -0.259 OA
BRANCH  28  30
HETATM   30  O   UNL     1      28.767  37.319  47.773  1.00  0.00    -0.323 OA
HETATM   31  C   UNL     1      28.297  36.960  46.472  1.00  0.00     0.213 C 
ENDBRANCH  28  30
ENDBRANCH  10  28
TORSDOF 6
ENDMDL
MODEL 5
REMARK VINA RESULT:      -7.2     13.019     15.282
REMARK  6 active torsions:
REMARK  status: ('A' for Active; 'I' for Inactive)
REMARK    1  A    between atoms: C_7  and  S_8 
REMARK    2  A    between atoms: S_8  and  C_9 
REMARK    3  A    between atoms: C_9  and  C_10 
REMARK    4  A    between atoms: C_18  and  C_19 
REMARK    5  A    between atoms: C_26  and  C_27 
REMARK    6  A    between atoms: C_27  and  O_28 
ROOT
HETATM    1  C   UNL     1      25.701  41.537  48.589  1.00  0.00     0.070 C 
HETATM    2  C   UNL     1      25.487  42.627  49.611  1.00  0.00     0.037 A 
HETATM    3  N   UNL     1      26.267  42.533  50.758  1.00  0.00    -0.192 N 
HETATM    4  C   UNL     1      26.189  43.403  51.781  1.00  0.00     0.726 A 
HETATM    5  N   UNL     1      25.290  44.431  51.722  1.00  0.00    -0.082 N 
HETATM    6  N   UNL     1      25.322  45.175  52.848  1.00  0.00    -0.128 NA
HETATM    7  C   UNL     1      26.320  44.580  53.515  1.00  0.00     0.226 A 
HETATM    8  N   UNL     1      26.860  43.476  52.898  1.00  0.00    -0.035 NA
HETATM    9  C   UNL     1      24.409  44.687  50.575  1.00  0.00     0.203 A 
HETATM   10  C   UNL     1      24.593  43.637  49.486  1.00  0.00     0.070 A 
HETATM   11  H   UNL     1      26.940  41.773  50.813  1.00  0.00     0.184 HD
ENDROOT
BRANCH   7  12
HETATM   12  S   UNL     1      26.958  45.171  55.022  1.00  0.00    -0.083 SA
BRANCH  12  13
HETATM   13  C   UNL     1      28.691  45.486  54.588  1.00  0.00     0.123 C 
BRANCH  13  14
HETATM   14  C   UNL     1      29.629  44.927  55.635  1.00  0.00    -0.027 A 
HETATM   15  C   UNL     1      30.419  43.786  55.425  1.00  0.00     0.041 A 
HETATM   16 CL   UNL     1      30.355  42.888  53.951  1.00  0.00    -0.084 Cl
HETATM   17  C   UNL     1      31.293  43.334  56.419  1.00  0.00     0.024 A 
HETATM   18  C   UNL     1      31.391  44.012  57.633  1.00  0.00     0.002 A 
HETATM   19  C   UNL     1      30.617  45.147  57.857  1.00  0.00     0.001 A 
HETATM   20  C   UNL     1      29.747  45.603  56.866  1.00  0.00     0.009 A 
ENDBRANCH  13  14
ENDBRANCH  12  13
ENDBRANCH   7  12
BRANCH   9  21
HETATM   21  C   UNL     1      24.616  46.112  50.064  1.00  0.00    -0.026 A 
HETATM   22  C   UNL     1      23.511  46.861  49.621  1.00  0.00     0.033 A 
HETATM   23  C   UNL     1      23.687  48.157  49.134  1.00  0.00     0.034 A 
HETATM   24 CL   UNL     1      22.325  49.054  48.588  1.00  0.00    -0.084 Cl
HETATM   25  C   UNL     1      24.958  48.727  49.084  1.00  0.00     0.024 A 
HETATM   26  C   UNL     1      26.061  47.995  49.519  1.00  0.00     0.002 A 
HETATM   27  C   UNL     1      25.894  46.695  50.002  1.00  0.00     0.010 A 
ENDBRANCH   9  21
BRANCH  10  28
HETATM   28  C   UNL     1      23.786  43.807  48.262  1.00  0.00     0.293 C 
HETATM   29  O   UNL     1      24.234  44.167  47.186  1.00  0.00    -0.259 OA
BRANCH  28  30
HETATM   30  O   UNL     1      22.491  43.504  48.529  1.00  0.00    -0.323 OA
HETATM   31  C   UNL     1      21.561  44.152  47.657  1.00  0.00     0.213 C 
ENDBRANCH  28  30
ENDBRANCH  10  28
TORSDOF 6
ENDMDL
MODEL 6
REMARK VINA RESULT:      -7.1     12.796     15.096
REMARK  6 active torsions:
REMARK  status: ('A' for Active; 'I' for Inactive)
REMARK    1  A    between atoms: C_7  and  S_8 
REMARK    2  A    between atoms: S_8  and  C_9 
REMARK    3  A    between atoms: C_9  and  C_10 
REMARK    4  A    between atoms: C_18  and  C_19 
REMARK    5  A    between atoms: C_26  and  C_27 
REMARK    6  A    between atoms: C_27  and  O_28 
ROOT
HETATM    1  C   UNL     1      27.176  39.860  46.076  1.00  0.00     0.070 C 
HETATM    2  C   UNL     1      26.823  40.259  47.489  1.00  0.00     0.037 A 
HETATM    3  N   UNL     1      27.851  40.144  48.417  1.00  0.00    -0.192 N 
HETATM    4  C   UNL     1      27.707  40.431  49.723  1.00  0.00     0.726 A 
HETATM    5  N   UNL     1      26.490  40.841  50.191  1.00  0.00    -0.082 N 
HETATM    6  N   UNL     1      26.519  41.043  51.524  1.00  0.00    -0.128 NA
HETATM    7  C   UNL     1      27.812  40.807  51.786  1.00  0.00     0.226 A 
HETATM    8  N   UNL     1      28.565  40.409  50.707  1.00  0.00    -0.035 NA
HETATM    9  C   UNL     1      25.306  41.037  49.342  1.00  0.00     0.203 A 
HETATM   10  C   UNL     1      25.599  40.680  47.889  1.00  0.00     0.070 A 
HETATM   11  H   UNL     1      28.762  39.841  48.081  1.00  0.00     0.184 HD
ENDROOT
BRANCH   7  12
HETATM   12  S   UNL     1      28.536  41.042  53.351  1.00  0.00    -0.083 SA
BRANCH  12  13
HETATM   13  C   UNL     1      29.763  42.330  52.998  1.00  0.00     0.123 C 
BRANCH  13  14
HETATM   14  C   UNL     1      29.681  43.456  54.005  1.00  0.00    -0.027 A 
HETATM   15  C   UNL     1      28.695  44.455  53.959  1.00  0.00     0.041 A 
HETATM   16 CL   UNL     1      27.502  44.507  52.711  1.00  0.00    -0.084 Cl
HETATM   17  C   UNL     1      28.650  45.454  54.937  1.00  0.00     0.024 A 
HETATM   18  C   UNL     1      29.585  45.471  55.971  1.00  0.00     0.002 A 
HETATM   19  C   UNL     1      30.567  44.488  56.033  1.00  0.00     0.001 A 
HETATM   20  C   UNL     1      30.613  43.487  55.061  1.00  0.00     0.009 A 
ENDBRANCH  13  14
ENDBRANCH  12  13
ENDBRANCH   7  12
BRANCH   9  21
HETATM   21  C   UNL     1      24.774  42.459  49.505  1.00  0.00    -0.026 A 
HETATM   22  C   UNL     1      25.665  43.546  49.467  1.00  0.00     0.033 A 
HETATM   23  C   UNL     1      25.196  44.849  49.632  1.00  0.00     0.034 A 
HETATM   24 CL   UNL     1      26.303  46.166  49.591  1.00  0.00    -0.084 Cl
HETATM   25  C   UNL     1      23.839  45.092  49.834  1.00  0.00     0.024 A 
HETATM   26  C   UNL     1      22.944  44.023  49.876  1.00  0.00     0.002 A 
HETATM   27  C   UNL     1      23.408  42.715  49.717  1.00  0.00     0.010 A 
ENDBRANCH   9  21
BRANCH  10  28
HETATM   28  C   UNL     1      24.496  40.871  46.927  1.00  0.00     0.293 C 
HETATM   29  O   UNL     1      24.463  41.749  46.080  1.00  0.00    -0.259 OA
BRANCH  28  30
HETATM   30  O   UNL     1      23.543  39.928  47.140  1.00  0.00    -0.323 OA
HETATM   31  C   UNL     1      23.546  38.883  46.165  1.00  0.00     0.213 C 
ENDBRANCH  28  30
ENDBRANCH  10  28
TORSDOF 6
ENDMDL
MODEL 7
REMARK VINA RESULT:      -6.9     13.532     16.176
REMARK  6 active torsions:
REMARK  status: ('A' for Active; 'I' for Inactive)
REMARK    1  A    between atoms: C_7  and  S_8 
REMARK    2  A    between atoms: S_8  and  C_9 
REMARK    3  A    between atoms: C_9  and  C_10 
REMARK    4  A    between atoms: C_18  and  C_19 
REMARK    5  A    between atoms: C_26  and  C_27 
REMARK    6  A    between atoms: C_27  and  O_28 
ROOT
HETATM    1  C   UNL     1      23.086  42.665  48.913  1.00  0.00     0.070 C 
HETATM    2  C   UNL     1      24.503  42.256  49.237  1.00  0.00     0.037 A 
HETATM    3  N   UNL     1      24.980  42.679  50.472  1.00  0.00    -0.192 N 
HETATM    4  C   UNL     1      26.226  42.427  50.912  1.00  0.00     0.726 A 
HETATM    5  N   UNL     1      27.094  41.736  50.113  1.00  0.00    -0.082 N 
HETATM    6  N   UNL     1      28.304  41.612  50.696  1.00  0.00    -0.128 NA
HETATM    7  C   UNL     1      28.072  42.189  51.883  1.00  0.00     0.226 A 
HETATM    8  N   UNL     1      26.813  42.719  52.041  1.00  0.00    -0.035 NA
HETATM    9  C   UNL     1      26.744  41.198  48.791  1.00  0.00     0.203 A 
HETATM   10  C   UNL     1      25.311  41.549  48.410  1.00  0.00     0.070 A 
HETATM   11  H   UNL     1      24.343  43.193  51.076  1.00  0.00     0.184 HD
ENDROOT
BRANCH   7  12
HETATM   12  S   UNL     1      29.233  42.227  53.179  1.00  0.00    -0.083 SA
BRANCH  12  13
HETATM   13  C   UNL     1      29.083  43.940  53.756  1.00  0.00     0.123 C 
BRANCH  13  14
HETATM   14  C   UNL     1      29.805  44.142  55.070  1.00  0.00    -0.027 A 
HETATM   15  C   UNL     1      29.646  45.289  55.863  1.00  0.00     0.041 A 
HETATM   16 CL   UNL     1      28.631  46.602  55.382  1.00  0.00    -0.084 Cl
HETATM   17  C   UNL     1      30.317  45.406  57.086  1.00  0.00     0.024 A 
HETATM   18  C   UNL     1      31.153  44.384  57.532  1.00  0.00     0.002 A 
HETATM   19  C   UNL     1      31.320  43.239  56.758  1.00  0.00     0.001 A 
HETATM   20  C   UNL     1      30.650  43.117  55.540  1.00  0.00     0.009 A 
ENDBRANCH  13  14
ENDBRANCH  12  13
ENDBRANCH   7  12
BRANCH   9  21
HETATM   21  C   UNL     1      27.016  39.696  48.748  1.00  0.00    -0.026 A 
HETATM   22  C   UNL     1      27.831  39.163  47.734  1.00  0.00     0.033 A 
HETATM   23  C   UNL     1      28.074  37.791  47.671  1.00  0.00     0.034 A 
HETATM   24 CL   UNL     1      29.067  37.158  46.417  1.00  0.00    -0.084 Cl
HETATM   25  C   UNL     1      27.516  36.930  48.614  1.00  0.00     0.024 A 
HETATM   26  C   UNL     1      26.705  37.445  49.624  1.00  0.00     0.002 A 
HETATM   27  C   UNL     1      26.452  38.817  49.690  1.00  0.00     0.010 A 
ENDBRANCH   9  21
BRANCH  10  28
HETATM   28  C   UNL     1      24.826  41.032  47.115  1.00  0.00     0.293 C 
HETATM   29  O   UNL     1      25.163  41.471  46.027  1.00  0.00    -0.259 OA
BRANCH  28  30
HETATM   30  O   UNL     1      23.960  40.010  47.332  1.00  0.00    -0.323 OA
HETATM   31  C   UNL     1      23.361  39.505  46.137  1.00  0.00     0.213 C 
ENDBRANCH  28  30
ENDBRANCH  10  28
TORSDOF 6
ENDMDL
MODEL 8
REMARK VINA RESULT:      -6.9     12.499     14.139
REMARK  6 active torsions:
REMARK  status: ('A' for Active; 'I' for Inactive)
REMARK    1  A    between atoms: C_7  and  S_8 
REMARK    2  A    between atoms: S_8  and  C_9 
REMARK    3  A    between atoms: C_9  and  C_10 
REMARK    4  A    between atoms: C_18  and  C_19 
REMARK    5  A    between atoms: C_26  and  C_27 
REMARK    6  A    between atoms: C_27  and  O_28 
ROOT
HETATM    1  C   UNL     1      23.204  41.760  47.856  1.00  0.00     0.070 C 
HETATM    2  C   UNL     1      23.715  43.075  48.392  1.00  0.00     0.037 A 
HETATM    3  N   UNL     1      22.865  44.162  48.222  1.00  0.00    -0.192 N 
HETATM    4  C   UNL     1      23.170  45.411  48.616  1.00  0.00     0.726 A 
HETATM    5  N   UNL     1      24.382  45.654  49.200  1.00  0.00    -0.082 N 
HETATM    6  N   UNL     1      24.531  46.963  49.492  1.00  0.00    -0.128 NA
HETATM    7  C   UNL     1      23.336  47.442  49.122  1.00  0.00     0.226 A 
HETATM    8  N   UNL     1      22.484  46.520  48.561  1.00  0.00    -0.035 NA
HETATM    9  C   UNL     1      25.385  44.617  49.475  1.00  0.00     0.203 A 
HETATM   10  C   UNL     1      24.922  43.251  48.984  1.00  0.00     0.070 A 
HETATM   11  H   UNL     1      21.960  43.993  47.789  1.00  0.00     0.184 HD
ENDROOT
BRANCH   7  12
HETATM   12  S   UNL     1      22.836  49.089  49.379  1.00  0.00    -0.083 SA
BRANCH  12  13
HETATM   13  C   UNL     1      21.557  49.286  48.108  1.00  0.00     0.123 C 
BRANCH  13  14
HETATM   14  C   UNL     1      20.405  50.126  48.615  1.00  0.00    -0.027 A 
HETATM   15  C   UNL     1      19.375  49.609  49.418  1.00  0.00     0.041 A 
HETATM   16 CL   UNL     1      19.314  47.942  49.867  1.00  0.00    -0.084 Cl
HETATM   17  C   UNL     1      18.352  50.442  49.883  1.00  0.00     0.024 A 
HETATM   18  C   UNL     1      18.341  51.796  49.555  1.00  0.00     0.002 A 
HETATM   19  C   UNL     1      19.355  52.325  48.762  1.00  0.00     0.001 A 
HETATM   20  C   UNL     1      20.380  51.498  48.299  1.00  0.00     0.009 A 
ENDBRANCH  13  14
ENDBRANCH  12  13
ENDBRANCH   7  12
BRANCH   9  21
HETATM   21  C   UNL     1      25.749  44.620  50.959  1.00  0.00    -0.026 A 
HETATM   22  C   UNL     1      27.068  44.335  51.354  1.00  0.00     0.033 A 
HETATM   23  C   UNL     1      27.411  44.316  52.706  1.00  0.00     0.034 A 
HETATM   24 CL   UNL     1      29.029  43.957  53.170  1.00  0.00    -0.084 Cl
HETATM   25  C   UNL     1      26.454  44.583  53.682  1.00  0.00     0.024 A 
HETATM   26  C   UNL     1      25.142  44.865  53.304  1.00  0.00     0.002 A 
HETATM   27  C   UNL     1      24.789  44.880  51.953  1.00  0.00     0.010 A 
ENDBRANCH   9  21
BRANCH  10  28
HETATM   28  C   UNL     1      25.830  42.115  49.236  1.00  0.00     0.293 C 
HETATM   29  O   UNL     1      26.823  41.866  48.571  1.00  0.00    -0.259 OA
BRANCH  28  30
HETATM   30  O   UNL     1      25.384  41.408  50.305  1.00  0.00    -0.323 OA
HETATM   31  C   UNL     1      26.272  40.365  50.711  1.00  0.00     0.213 C 
ENDBRANCH  28  30
ENDBRANCH  10  28
TORSDOF 6
ENDMDL
MODEL 9
REMARK VINA RESULT:      -6.8     12.332     14.650
REMARK  6 active torsions:
REMARK  status: ('A' for Active; 'I' for Inactive)
REMARK    1  A    between atoms: C_7  and  S_8 
REMARK    2  A    between atoms: S_8  and  C_9 
REMARK    3  A    between atoms: C_9  and  C_10 
REMARK    4  A    between atoms: C_18  and  C_19 
REMARK    5  A    between atoms: C_26  and  C_27 
REMARK    6  A    between atoms: C_27  and  O_28 
ROOT
HETATM    1  C   UNL     1      23.281  43.196  46.272  1.00  0.00     0.070 C 
HETATM    2  C   UNL     1      23.963  43.180  47.619  1.00  0.00     0.037 A 
HETATM    3  N   UNL     1      24.970  42.233  47.769  1.00  0.00    -0.192 N 
HETATM    4  C   UNL     1      25.664  42.061  48.908  1.00  0.00     0.726 A 
HETATM    5  N   UNL     1      25.370  42.835  49.996  1.00  0.00    -0.082 N 
HETATM    6  N   UNL     1      26.134  42.498  51.057  1.00  0.00    -0.128 NA
HETATM    7  C   UNL     1      26.922  41.561  50.513  1.00  0.00     0.226 A 
HETATM    8  N   UNL     1      26.646  41.254  49.201  1.00  0.00    -0.035 NA
HETATM    9  C   UNL     1      24.354  43.895  50.001  1.00  0.00     0.203 A 
HETATM   10  C   UNL     1      23.642  43.990  48.657  1.00  0.00     0.070 A 
HETATM   11  H   UNL     1      25.198  41.652  46.965  1.00  0.00     0.184 HD
ENDROOT
BRANCH   7  12
HETATM   12  S   UNL     1      28.250  40.813  51.352  1.00  0.00    -0.083 SA
BRANCH  12  13
HETATM   13  C   UNL     1      27.766  41.043  53.085  1.00  0.00     0.123 C 
BRANCH  13  14
HETATM   14  C   UNL     1      28.507  42.203  53.712  1.00  0.00    -0.027 A 
HETATM   15  C   UNL     1      27.857  43.294  54.310  1.00  0.00     0.041 A 
HETATM   16 CL   UNL     1      26.135  43.427  54.345  1.00  0.00    -0.084 Cl
HETATM   17  C   UNL     1      28.596  44.324  54.904  1.00  0.00     0.024 A 
HETATM   18  C   UNL     1      29.989  44.279  54.909  1.00  0.00     0.002 A 
HETATM   19  C   UNL     1      30.649  43.203  54.322  1.00  0.00     0.001 A 
HETATM   20  C   UNL     1      29.915  42.172  53.732  1.00  0.00     0.009 A 
ENDBRANCH  13  14
ENDBRANCH  12  13
ENDBRANCH   7  12
BRANCH   9  21
HETATM   21  C   UNL     1      24.981  45.220  50.431  1.00  0.00    -0.026 A 
HETATM   22  C   UNL     1      25.917  45.853  49.594  1.00  0.00     0.033 A 
HETATM   23  C   UNL     1      26.512  47.054  49.982  1.00  0.00     0.034 A 
HETATM   24 CL   UNL     1      27.662  47.808  48.948  1.00  0.00    -0.084 Cl
HETATM   25  C   UNL     1      26.184  47.644  51.200  1.00  0.00     0.024 A 
HETATM   26  C   UNL     1      25.258  47.027  52.040  1.00  0.00     0.002 A 
HETATM   27  C   UNL     1      24.663  45.821  51.662  1.00  0.00     0.010 A 
ENDBRANCH   9  21
BRANCH  10  28
HETATM   28  C   UNL     1      22.620  45.046  48.524  1.00  0.00     0.293 C 
HETATM   29  O   UNL     1      22.831  46.156  48.062  1.00  0.00    -0.259 OA
BRANCH  28  30
HETATM   30  O   UNL     1      21.432  44.587  48.992  1.00  0.00    -0.323 OA
HETATM   31  C   UNL     1      20.300  45.262  48.439  1.00  0.00     0.213 C 
ENDBRANCH  28  30
ENDBRANCH  10  28
TORSDOF 6
ENDMDL
MODEL 10
REMARK VINA RESULT:      -6.8     12.235     13.970
REMARK  6 active torsions:
REMARK  status: ('A' for Active; 'I' for Inactive)
REMARK    1  A    between atoms: C_7  and  S_8 
REMARK    2  A    between atoms: S_8  and  C_9 
REMARK    3  A    between atoms: C_9  and  C_10 
REMARK    4  A    between atoms: C_18  and  C_19 
REMARK    5  A    between atoms: C_26  and  C_27 
REMARK    6  A    between atoms: C_27  and  O_28 
ROOT
HETATM    1  C   UNL     1      24.584  40.781  48.161  1.00  0.00     0.070 C 
HETATM    2  C   UNL     1      24.993  42.141  48.673  1.00  0.00     0.037 A 
HETATM    3  N   UNL     1      24.053  43.152  48.504  1.00  0.00    -0.192 N 
HETATM    4  C   UNL     1      24.259  44.427  48.878  1.00  0.00     0.726 A 
HETATM    5  N   UNL     1      25.455  44.778  49.439  1.00  0.00    -0.082 N 
HETATM    6  N   UNL     1      25.500  46.099  49.712  1.00  0.00    -0.128 NA
HETATM    7  C   UNL     1      24.263  46.471  49.357  1.00  0.00     0.226 A 
HETATM    8  N   UNL     1      23.482  45.475  48.821  1.00  0.00    -0.035 NA
HETATM    9  C   UNL     1      26.546  43.831  49.709  1.00  0.00     0.203 A 
HETATM   10  C   UNL     1      26.190  42.425  49.242  1.00  0.00     0.070 A 
HETATM   11  H   UNL     1      23.159  42.902  48.088  1.00  0.00     0.184 HD
ENDROOT
BRANCH   7  12
HETATM   12  S   UNL     1      23.633  48.075  49.602  1.00  0.00    -0.083 SA
BRANCH  12  13
HETATM   13  C   UNL     1      22.058  47.990  48.706  1.00  0.00     0.123 C 
BRANCH  13  14
HETATM   14  C   UNL     1      21.212  49.217  48.965  1.00  0.00    -0.027 A 
HETATM   15  C   UNL     1      21.517  50.483  48.439  1.00  0.00     0.041 A 
HETATM   16 CL   UNL     1      22.922  50.759  47.474  1.00  0.00    -0.084 Cl
HETATM   17  C   UNL     1      20.679  51.576  48.687  1.00  0.00     0.024 A 
HETATM   18  C   UNL     1      19.529  51.422  49.461  1.00  0.00     0.002 A 
HETATM   19  C   UNL     1      19.212  50.173  49.988  1.00  0.00     0.001 A 
HETATM   20  C   UNL     1      20.043  49.080  49.739  1.00  0.00     0.009 A 
ENDBRANCH  13  14
ENDBRANCH  12  13
ENDBRANCH   7  12
BRANCH   9  21
HETATM   21  C   UNL     1      26.932  43.884  51.186  1.00  0.00    -0.026 A 
HETATM   22  C   UNL     1      25.926  43.912  52.168  1.00  0.00     0.033 A 
HETATM   23  C   UNL     1      26.263  43.978  53.520  1.00  0.00     0.034 A 
HETATM   24 CL   UNL     1      25.018  44.022  54.707  1.00  0.00    -0.084 Cl
HETATM   25  C   UNL     1      27.598  44.013  53.916  1.00  0.00     0.024 A 
HETATM   26  C   UNL     1      28.605  43.986  52.952  1.00  0.00     0.002 A 
HETATM   27  C   UNL     1      28.276  43.926  51.596  1.00  0.00     0.010 A 
ENDBRANCH   9  21
BRANCH  10  28
HETATM   28  C   UNL     1      27.194  41.372  49.492  1.00  0.00     0.293 C 
HETATM   29  O   UNL     1      28.107  41.096  48.732  1.00  0.00    -0.259 OA
BRANCH  28  30
HETATM   30  O   UNL     1      26.933  40.773  50.681  1.00  0.00    -0.323 OA
HETATM   31  C   UNL     1      28.109  40.390  51.398  1.00  0.00     0.213 C 
ENDBRANCH  28  30
ENDBRANCH  10  28
TORSDOF 6
ENDMDL
