MODEL 1
REMARK VINA RESULT:      -9.3      0.000      0.000
REMARK  3 active torsions:
REMARK  status: ('A' for Active; 'I' for Inactive)
REMARK    1  A    between atoms: C_4  and  C_5 
REMARK    2  A    between atoms: C_9  and  C_10 
REMARK       I    between atoms: C_10  and  N_11 
REMARK    3  A    between atoms: N_11  and  N_12 
ROOT
HETATM    1  C   UNL     1      25.396  45.152  51.926  1.00  0.00     0.289 C 
HETATM    2  N   UNL     1      25.508  46.227  51.060  1.00  0.00    -0.241 N 
HETATM    3  O   UNL     1      24.335  44.594  52.195  1.00  0.00    -0.264 OA
HETATM    4  H   UNL     1      26.415  46.654  50.871  1.00  0.00     0.192 HD
ENDROOT
BRANCH   2   5
HETATM    5  N   UNL     1      24.395  46.731  50.444  1.00  0.00    -0.165 NA
HETATM    6  C   UNL     1      24.550  47.803  49.739  1.00  0.00     0.157 A 
HETATM    7  C   UNL     1      25.829  48.607  49.489  1.00  0.00     0.277 A 
HETATM    8  C   UNL     1      23.496  48.493  49.007  1.00  0.00     0.028 A 
HETATM    9  O   UNL     1      26.918  48.326  49.944  1.00  0.00    -0.266 OA
HETATM   10  N   UNL     1      25.456  49.654  48.674  1.00  0.00    -0.321 N 
HETATM   11  C   UNL     1      24.093  49.592  48.390  1.00  0.00     0.048 A 
HETATM   12  H   UNL     1      26.101  50.356  48.342  1.00  0.00     0.169 HD
HETATM   13  C   UNL     1      23.358  50.461  47.612  1.00  0.00     0.032 A 
HETATM   14  C   UNL     1      21.990  50.194  47.469  1.00  0.00     0.021 A 
HETATM   15  C   UNL     1      21.400  49.078  48.100  1.00  0.00     0.012 A 
HETATM   16 BR   UNL     1      19.548  48.762  47.874  1.00  0.00    -0.051 Br
HETATM   17  C   UNL     1      22.153  48.206  48.884  1.00  0.00     0.035 A 
ENDBRANCH   2   5
BRANCH   1  18
HETATM   18  C   UNL     1      26.634  44.708  52.514  1.00  0.00     0.121 A 
HETATM   19  N   UNL     1      27.472  43.867  51.829  1.00  0.00    -0.272 N 
HETATM   20  N   UNL     1      28.588  43.535  52.496  1.00  0.00    -0.172 NA
HETATM   21  H   UNL     1      27.319  43.490  50.897  1.00  0.00     0.189 HD
HETATM   22  C   UNL     1      28.469  44.188  53.658  1.00  0.00     0.113 A 
HETATM   23  C   UNL     1      27.269  44.934  53.720  1.00  0.00     0.073 A 
BRANCH  22  24
HETATM   24  C   UNL     1      29.497  44.114  54.735  1.00  0.00     0.105 A 
HETATM   25  O   UNL     1      29.693  45.072  55.693  1.00  0.00    -0.320 OA
HETATM   26  C   UNL     1      30.711  44.647  56.485  1.00  0.00     0.142 A 
HETATM   27  C   UNL     1      31.180  43.428  56.057  1.00  0.00     0.027 A 
HETATM   28  C   UNL     1      30.399  43.084  54.929  1.00  0.00     0.041 A 
ENDBRANCH  22  24
ENDBRANCH   1  18
TORSDOF 3
ENDMDL
MODEL 2
REMARK VINA RESULT:      -9.3      1.893      2.417
REMARK  3 active torsions:
REMARK  status: ('A' for Active; 'I' for Inactive)
REMARK    1  A    between atoms: C_4  and  C_5 
REMARK    2  A    between atoms: C_9  and  C_10 
REMARK       I    between atoms: C_10  and  N_11 
REMARK    3  A    between atoms: N_11  and  N_12 
ROOT
HETATM    1  C   UNL     1      26.346  46.991  53.372  1.00  0.00     0.289 C 
HETATM    2  N   UNL     1      26.146  46.790  52.016  1.00  0.00    -0.241 N 
HETATM    3  O   UNL     1      25.768  47.852  54.032  1.00  0.00    -0.264 OA
HETATM    4  H   UNL     1      26.652  46.059  51.516  1.00  0.00     0.192 HD
ENDROOT
BRANCH   2   5
HETATM    5  N   UNL     1      25.259  47.574  51.330  1.00  0.00    -0.165 NA
HETATM    6  C   UNL     1      24.553  46.996  50.414  1.00  0.00     0.157 A 
HETATM    7  C   UNL     1      24.569  45.529  49.977  1.00  0.00     0.277 A 
HETATM    8  C   UNL     1      23.558  47.651  49.575  1.00  0.00     0.028 A 
HETATM    9  O   UNL     1      25.282  44.675  50.461  1.00  0.00    -0.266 OA
HETATM   10  N   UNL     1      23.635  45.432  48.969  1.00  0.00    -0.321 N 
HETATM   11  C   UNL     1      23.041  46.670  48.730  1.00  0.00     0.048 A 
HETATM   12  H   UNL     1      23.426  44.570  48.486  1.00  0.00     0.169 HD
HETATM   13  C   UNL     1      22.066  46.968  47.801  1.00  0.00     0.032 A 
HETATM   14  C   UNL     1      21.619  48.294  47.743  1.00  0.00     0.021 A 
HETATM   15  C   UNL     1      22.153  49.277  48.605  1.00  0.00     0.012 A 
HETATM   16 BR   UNL     1      21.515  51.054  48.485  1.00  0.00    -0.051 Br
HETATM   17  C   UNL     1      23.138  48.965  49.540  1.00  0.00     0.035 A 
ENDBRANCH   2   5
BRANCH   1  18
HETATM   18  C   UNL     1      27.301  46.105  53.988  1.00  0.00     0.121 A 
HETATM   19  N   UNL     1      27.425  44.807  53.566  1.00  0.00    -0.272 N 
HETATM   20  N   UNL     1      28.352  44.098  54.227  1.00  0.00    -0.172 NA
HETATM   21  H   UNL     1      26.891  44.360  52.825  1.00  0.00     0.189 HD
HETATM   22  C   UNL     1      28.849  44.971  55.111  1.00  0.00     0.113 A 
HETATM   23  C   UNL     1      28.228  46.238  55.003  1.00  0.00     0.073 A 
BRANCH  22  24
HETATM   24  C   UNL     1      29.927  44.616  56.078  1.00  0.00     0.105 A 
HETATM   25  O   UNL     1      30.129  45.234  57.283  1.00  0.00    -0.320 OA
HETATM   26  C   UNL     1      31.197  44.635  57.869  1.00  0.00     0.142 A 
HETATM   27  C   UNL     1      31.693  43.637  57.065  1.00  0.00     0.027 A 
HETATM   28  C   UNL     1      30.876  43.624  55.910  1.00  0.00     0.041 A 
ENDBRANCH  22  24
ENDBRANCH   1  18
TORSDOF 3
ENDMDL
MODEL 3
REMARK VINA RESULT:      -9.0      3.756      9.264
REMARK  3 active torsions:
REMARK  status: ('A' for Active; 'I' for Inactive)
REMARK    1  A    between atoms: C_4  and  C_5 
REMARK    2  A    between atoms: C_9  and  C_10 
REMARK       I    between atoms: C_10  and  N_11 
REMARK    3  A    between atoms: N_11  and  N_12 
ROOT
HETATM    1  C   UNL     1      25.249  46.694  50.399  1.00  0.00     0.289 C 
HETATM    2  N   UNL     1      25.075  46.172  51.671  1.00  0.00    -0.241 N 
HETATM    3  O   UNL     1      26.315  46.677  49.788  1.00  0.00    -0.264 OA
HETATM    4  H   UNL     1      24.167  46.212  52.133  1.00  0.00     0.192 HD
ENDROOT
BRANCH   2   5
HETATM    5  N   UNL     1      26.130  45.593  52.324  1.00  0.00    -0.165 NA
HETATM    6  C   UNL     1      26.522  46.158  53.418  1.00  0.00     0.157 A 
HETATM    7  C   UNL     1      25.964  47.409  54.103  1.00  0.00     0.277 A 
HETATM    8  C   UNL     1      27.621  45.700  54.258  1.00  0.00     0.028 A 
HETATM    9  O   UNL     1      25.033  48.064  53.685  1.00  0.00    -0.266 OA
HETATM   10  N   UNL     1      26.732  47.586  55.233  1.00  0.00    -0.321 N 
HETATM   11  C   UNL     1      27.703  46.591  55.329  1.00  0.00     0.048 A 
HETATM   12  H   UNL     1      26.591  48.343  55.887  1.00  0.00     0.169 HD
HETATM   13  C   UNL     1      28.652  46.436  56.316  1.00  0.00     0.032 A 
HETATM   14  C   UNL     1      29.529  45.349  56.199  1.00  0.00     0.021 A 
HETATM   15  C   UNL     1      29.434  44.456  55.110  1.00  0.00     0.012 A 
HETATM   16 BR   UNL     1      30.642  43.004  54.998  1.00  0.00    -0.051 Br
HETATM   17  C   UNL     1      28.470  44.622  54.117  1.00  0.00     0.035 A 
ENDBRANCH   2   5
BRANCH   1  18
HETATM   18  C   UNL     1      24.069  47.276  49.811  1.00  0.00     0.121 A 
HETATM   19  N   UNL     1      23.122  46.487  49.213  1.00  0.00    -0.272 N 
HETATM   20  N   UNL     1      22.078  47.162  48.709  1.00  0.00    -0.172 NA
HETATM   21  H   UNL     1      23.149  45.474  49.124  1.00  0.00     0.189 HD
HETATM   22  C   UNL     1      22.359  48.440  48.992  1.00  0.00     0.113 A 
HETATM   23  C   UNL     1      23.590  48.565  49.680  1.00  0.00     0.073 A 
BRANCH  22  24
HETATM   24  C   UNL     1      21.461  49.567  48.614  1.00  0.00     0.105 A 
HETATM   25  O   UNL     1      20.389  49.462  47.769  1.00  0.00    -0.320 OA
HETATM   26  C   UNL     1      19.827  50.694  47.675  1.00  0.00     0.142 A 
HETATM   27  C   UNL     1      20.516  51.599  48.446  1.00  0.00     0.027 A 
HETATM   28  C   UNL     1      21.570  50.875  49.052  1.00  0.00     0.041 A 
ENDBRANCH  22  24
ENDBRANCH   1  18
TORSDOF 3
ENDMDL
MODEL 4
REMARK VINA RESULT:      -8.8      3.812      9.221
REMARK  3 active torsions:
REMARK  status: ('A' for Active; 'I' for Inactive)
REMARK    1  A    between atoms: C_4  and  C_5 
REMARK    2  A    between atoms: C_9  and  C_10 
REMARK       I    between atoms: C_10  and  N_11 
REMARK    3  A    between atoms: N_11  and  N_12 
ROOT
HETATM    1  C   UNL     1      25.328  46.926  51.157  1.00  0.00     0.289 C 
HETATM    2  N   UNL     1      25.291  45.903  52.089  1.00  0.00    -0.241 N 
HETATM    3  O   UNL     1      26.176  47.815  51.145  1.00  0.00    -0.264 OA
HETATM    4  H   UNL     1      24.564  45.188  52.053  1.00  0.00     0.192 HD
ENDROOT
BRANCH   2   5
HETATM    5  N   UNL     1      26.237  45.839  53.076  1.00  0.00    -0.165 NA
HETATM    6  C   UNL     1      27.123  44.903  52.978  1.00  0.00     0.157 A 
HETATM    7  C   UNL     1      27.266  43.831  51.894  1.00  0.00     0.277 A 
HETATM    8  C   UNL     1      28.209  44.666  53.920  1.00  0.00     0.028 A 
HETATM    9  O   UNL     1      26.531  43.718  50.936  1.00  0.00    -0.266 OA
HETATM   10  N   UNL     1      28.366  43.083  52.255  1.00  0.00    -0.321 N 
HETATM   11  C   UNL     1      28.920  43.567  53.439  1.00  0.00     0.048 A 
HETATM   12  H   UNL     1      28.704  42.298  51.719  1.00  0.00     0.169 HD
HETATM   13  C   UNL     1      30.023  43.081  54.109  1.00  0.00     0.032 A 
HETATM   14  C   UNL     1      30.397  43.736  55.290  1.00  0.00     0.021 A 
HETATM   15  C   UNL     1      29.667  44.847  55.765  1.00  0.00     0.012 A 
HETATM   16 BR   UNL     1      30.213  45.697  57.364  1.00  0.00    -0.051 Br
HETATM   17  C   UNL     1      28.553  45.330  55.079  1.00  0.00     0.035 A 
ENDBRANCH   2   5
BRANCH   1  18
HETATM   18  C   UNL     1      24.282  46.889  50.165  1.00  0.00     0.121 A 
HETATM   19  N   UNL     1      23.467  47.972  49.968  1.00  0.00    -0.272 N 
HETATM   20  N   UNL     1      22.539  47.798  49.014  1.00  0.00    -0.172 NA
HETATM   21  H   UNL     1      23.508  48.858  50.465  1.00  0.00     0.189 HD
HETATM   22  C   UNL     1      22.762  46.553  48.577  1.00  0.00     0.113 A 
HETATM   23  C   UNL     1      23.839  45.942  49.262  1.00  0.00     0.073 A 
BRANCH  22  24
HETATM   24  C   UNL     1      21.954  45.919  47.497  1.00  0.00     0.105 A 
HETATM   25  O   UNL     1      22.071  46.207  46.164  1.00  0.00    -0.320 OA
HETATM   26  C   UNL     1      21.172  45.431  45.504  1.00  0.00     0.142 A 
HETATM   27  C   UNL     1      20.474  44.643  46.387  1.00  0.00     0.027 A 
HETATM   28  C   UNL     1      20.976  44.957  47.672  1.00  0.00     0.041 A 
ENDBRANCH  22  24
ENDBRANCH   1  18
TORSDOF 3
ENDMDL
MODEL 5
REMARK VINA RESULT:      -8.8      3.517      9.492
REMARK  3 active torsions:
REMARK  status: ('A' for Active; 'I' for Inactive)
REMARK    1  A    between atoms: C_4  and  C_5 
REMARK    2  A    between atoms: C_9  and  C_10 
REMARK       I    between atoms: C_10  and  N_11 
REMARK    3  A    between atoms: N_11  and  N_12 
ROOT
HETATM    1  C   UNL     1      25.233  47.206  50.705  1.00  0.00     0.289 C 
HETATM    2  N   UNL     1      25.054  46.334  51.766  1.00  0.00    -0.241 N 
HETATM    3  O   UNL     1      26.305  47.737  50.424  1.00  0.00    -0.264 OA
HETATM    4  H   UNL     1      24.142  45.919  51.954  1.00  0.00     0.192 HD
ENDROOT
BRANCH   2   5
HETATM    5  N   UNL     1      26.110  46.016  52.577  1.00  0.00    -0.165 NA
HETATM    6  C   UNL     1      26.485  44.778  52.592  1.00  0.00     0.157 A 
HETATM    7  C   UNL     1      25.903  43.593  51.817  1.00  0.00     0.277 A 
HETATM    8  C   UNL     1      27.582  44.238  53.384  1.00  0.00     0.028 A 
HETATM    9  O   UNL     1      24.969  43.666  51.047  1.00  0.00    -0.266 OA
HETATM   10  N   UNL     1      26.659  42.502  52.188  1.00  0.00    -0.321 N 
HETATM   11  C   UNL     1      27.641  42.873  53.104  1.00  0.00     0.048 A 
HETATM   12  H   UNL     1      26.502  41.571  51.830  1.00  0.00     0.169 HD
HETATM   13  C   UNL     1      28.582  42.061  53.700  1.00  0.00     0.032 A 
HETATM   14  C   UNL     1      29.475  42.665  54.597  1.00  0.00     0.021 A 
HETATM   15  C   UNL     1      29.403  44.047  54.871  1.00  0.00     0.012 A 
HETATM   16 BR   UNL     1      30.631  44.813  56.089  1.00  0.00    -0.051 Br
HETATM   17  C   UNL     1      28.446  44.859  54.262  1.00  0.00     0.035 A 
ENDBRANCH   2   5
BRANCH   1  18
HETATM   18  C   UNL     1      24.051  47.464  49.920  1.00  0.00     0.121 A 
HETATM   19  N   UNL     1      23.331  46.432  49.379  1.00  0.00    -0.272 N 
HETATM   20  N   UNL     1      22.257  46.818  48.674  1.00  0.00    -0.172 NA
HETATM   21  H   UNL     1      23.539  45.441  49.466  1.00  0.00     0.189 HD
HETATM   22  C   UNL     1      22.282  48.153  48.763  1.00  0.00     0.113 A 
HETATM   23  C   UNL     1      23.381  48.607  49.530  1.00  0.00     0.073 A 
BRANCH  22  24
HETATM   24  C   UNL     1      21.259  49.025  48.118  1.00  0.00     0.105 A 
HETATM   25  O   UNL     1      20.245  48.576  47.315  1.00  0.00    -0.320 OA
HETATM   26  C   UNL     1      19.530  49.661  46.924  1.00  0.00     0.142 A 
HETATM   27  C   UNL     1      20.062  50.809  47.461  1.00  0.00     0.027 A 
HETATM   28  C   UNL     1      21.176  50.401  48.230  1.00  0.00     0.041 A 
ENDBRANCH  22  24
ENDBRANCH   1  18
TORSDOF 3
ENDMDL
MODEL 6
REMARK VINA RESULT:      -8.7      2.152      2.555
REMARK  3 active torsions:
REMARK  status: ('A' for Active; 'I' for Inactive)
REMARK    1  A    between atoms: C_4  and  C_5 
REMARK    2  A    between atoms: C_9  and  C_10 
REMARK       I    between atoms: C_10  and  N_11 
REMARK    3  A    between atoms: N_11  and  N_12 
ROOT
HETATM    1  C   UNL     1      26.042  44.603  52.849  1.00  0.00     0.289 C 
HETATM    2  N   UNL     1      26.284  44.985  51.540  1.00  0.00    -0.241 N 
HETATM    3  O   UNL     1      24.991  44.096  53.234  1.00  0.00    -0.264 OA
HETATM    4  H   UNL     1      27.176  45.402  51.273  1.00  0.00     0.192 HD
ENDROOT
BRANCH   2   5
HETATM    5  N   UNL     1      25.321  44.805  50.584  1.00  0.00    -0.165 NA
HETATM    6  C   UNL     1      24.676  45.857  50.198  1.00  0.00     0.157 A 
HETATM    7  C   UNL     1      24.838  47.305  50.668  1.00  0.00     0.277 A 
HETATM    8  C   UNL     1      23.618  45.878  49.196  1.00  0.00     0.028 A 
HETATM    9  O   UNL     1      25.635  47.672  51.505  1.00  0.00    -0.266 OA
HETATM   10  N   UNL     1      23.916  48.033  49.948  1.00  0.00    -0.321 N 
HETATM   11  C   UNL     1      23.200  47.204  49.086  1.00  0.00     0.048 A 
HETATM   12  H   UNL     1      23.795  49.031  50.049  1.00  0.00     0.169 HD
HETATM   13  C   UNL     1      22.198  47.567  48.212  1.00  0.00     0.032 A 
HETATM   14  C   UNL     1      21.620  46.550  47.440  1.00  0.00     0.021 A 
HETATM   15  C   UNL     1      22.053  45.212  47.562  1.00  0.00     0.012 A 
HETATM   16 BR   UNL     1      21.240  43.877  46.497  1.00  0.00    -0.051 Br
HETATM   17  C   UNL     1      23.068  44.857  48.450  1.00  0.00     0.035 A 
ENDBRANCH   2   5
BRANCH   1  18
HETATM   18  C   UNL     1      27.128  44.840  53.766  1.00  0.00     0.121 A 
HETATM   19  N   UNL     1      27.448  46.113  54.158  1.00  0.00    -0.272 N 
HETATM   20  N   UNL     1      28.480  46.185  55.014  1.00  0.00    -0.172 NA
HETATM   21  H   UNL     1      26.986  46.969  53.864  1.00  0.00     0.189 HD
HETATM   22  C   UNL     1      28.841  44.907  55.183  1.00  0.00     0.113 A 
HETATM   23  C   UNL     1      28.030  44.028  54.427  1.00  0.00     0.073 A 
BRANCH  22  24
HETATM   24  C   UNL     1      29.968  44.497  56.068  1.00  0.00     0.105 A 
HETATM   25  O   UNL     1      30.302  45.117  57.243  1.00  0.00    -0.320 OA
HETATM   26  C   UNL     1      31.374  44.458  57.755  1.00  0.00     0.142 A 
HETATM   27  C   UNL     1      31.741  43.420  56.932  1.00  0.00     0.027 A 
HETATM   28  C   UNL     1      30.836  43.445  55.845  1.00  0.00     0.041 A 
ENDBRANCH  22  24
ENDBRANCH   1  18
TORSDOF 3
ENDMDL
MODEL 7
REMARK VINA RESULT:      -8.4      3.576      9.452
REMARK  3 active torsions:
REMARK  status: ('A' for Active; 'I' for Inactive)
REMARK    1  A    between atoms: C_4  and  C_5 
REMARK    2  A    between atoms: C_9  and  C_10 
REMARK       I    between atoms: C_10  and  N_11 
REMARK    3  A    between atoms: N_11  and  N_12 
ROOT
HETATM    1  C   UNL     1      23.901  46.701  49.550  1.00  0.00     0.289 C 
HETATM    2  N   UNL     1      24.930  46.832  50.468  1.00  0.00    -0.241 N 
HETATM    3  O   UNL     1      23.581  45.638  49.023  1.00  0.00    -0.264 OA
HETATM    4  H   UNL     1      25.154  47.739  50.877  1.00  0.00     0.192 HD
ENDROOT
BRANCH   2   5
HETATM    5  N   UNL     1      25.661  45.736  50.840  1.00  0.00    -0.165 NA
HETATM    6  C   UNL     1      26.109  45.715  52.053  1.00  0.00     0.157 A 
HETATM    7  C   UNL     1      25.935  46.763  53.155  1.00  0.00     0.277 A 
HETATM    8  C   UNL     1      26.903  44.644  52.641  1.00  0.00     0.028 A 
HETATM    9  O   UNL     1      25.322  47.802  53.027  1.00  0.00    -0.266 OA
HETATM   10  N   UNL     1      26.602  46.262  54.252  1.00  0.00    -0.321 N 
HETATM   11  C   UNL     1      27.171  45.024  53.956  1.00  0.00     0.048 A 
HETATM   12  H   UNL     1      26.657  46.744  55.137  1.00  0.00     0.169 HD
HETATM   13  C   UNL     1      27.911  44.219  54.795  1.00  0.00     0.032 A 
HETATM   14  C   UNL     1      28.382  43.007  54.272  1.00  0.00     0.021 A 
HETATM   15  C   UNL     1      28.104  42.637  52.938  1.00  0.00     0.012 A 
HETATM   16 BR   UNL     1      28.763  40.990  52.280  1.00  0.00    -0.051 Br
HETATM   17  C   UNL     1      27.354  43.459  52.099  1.00  0.00     0.035 A 
ENDBRANCH   2   5
BRANCH   1  18
HETATM   18  C   UNL     1      23.202  47.922  49.237  1.00  0.00     0.121 A 
HETATM   19  N   UNL     1      23.860  49.124  49.234  1.00  0.00    -0.272 N 
HETATM   20  N   UNL     1      23.086  50.176  48.925  1.00  0.00    -0.172 NA
HETATM   21  H   UNL     1      24.844  49.274  49.440  1.00  0.00     0.189 HD
HETATM   22  C   UNL     1      21.880  49.634  48.719  1.00  0.00     0.113 A 
HETATM   23  C   UNL     1      21.898  48.231  48.901  1.00  0.00     0.073 A 
BRANCH  22  24
HETATM   24  C   UNL     1      20.685  50.442  48.345  1.00  0.00     0.105 A 
HETATM   25  O   UNL     1      19.829  50.140  47.320  1.00  0.00    -0.320 OA
HETATM   26  C   UNL     1      18.874  51.105  47.295  1.00  0.00     0.142 A 
HETATM   27  C   UNL     1      19.095  52.028  48.288  1.00  0.00     0.027 A 
HETATM   28  C   UNL     1      20.262  51.603  48.965  1.00  0.00     0.041 A 
ENDBRANCH  22  24
ENDBRANCH   1  18
TORSDOF 3
ENDMDL
MODEL 8
REMARK VINA RESULT:      -8.0     12.643     15.012
REMARK  3 active torsions:
REMARK  status: ('A' for Active; 'I' for Inactive)
REMARK    1  A    between atoms: C_4  and  C_5 
REMARK    2  A    between atoms: C_9  and  C_10 
REMARK       I    between atoms: C_10  and  N_11 
REMARK    3  A    between atoms: N_11  and  N_12 
ROOT
HETATM    1  C   UNL     1      30.925  52.516  41.719  1.00  0.00     0.289 C 
HETATM    2  N   UNL     1      31.581  51.683  42.610  1.00  0.00    -0.241 N 
HETATM    3  O   UNL     1      31.369  53.594  41.330  1.00  0.00    -0.264 OA
HETATM    4  H   UNL     1      31.167  50.797  42.900  1.00  0.00     0.192 HD
ENDROOT
BRANCH   2   5
HETATM    5  N   UNL     1      32.802  52.043  43.113  1.00  0.00    -0.165 NA
HETATM    6  C   UNL     1      33.823  51.355  42.719  1.00  0.00     0.157 A 
HETATM    7  C   UNL     1      33.862  50.170  41.750  1.00  0.00     0.277 A 
HETATM    8  C   UNL     1      35.202  51.577  43.135  1.00  0.00     0.028 A 
HETATM    9  O   UNL     1      32.891  49.700  41.198  1.00  0.00    -0.266 OA
HETATM   10  N   UNL     1      35.188  49.801  41.670  1.00  0.00    -0.321 N 
HETATM   11  C   UNL     1      35.975  50.619  42.478  1.00  0.00     0.048 A 
HETATM   12  H   UNL     1      35.518  49.038  41.097  1.00  0.00     0.169 HD
HETATM   13  C   UNL     1      37.340  50.557  42.658  1.00  0.00     0.032 A 
HETATM   14  C   UNL     1      37.917  51.494  43.526  1.00  0.00     0.021 A 
HETATM   15  C   UNL     1      37.121  52.457  44.184  1.00  0.00     0.012 A 
HETATM   16 BR   UNL     1      37.948  53.700  45.347  1.00  0.00    -0.051 Br
HETATM   17  C   UNL     1      35.741  52.510  43.995  1.00  0.00     0.035 A 
ENDBRANCH   2   5
BRANCH   1  18
HETATM   18  C   UNL     1      29.648  52.032  41.257  1.00  0.00     0.121 A 
HETATM   19  N   UNL     1      28.482  52.562  41.742  1.00  0.00    -0.272 N 
HETATM   20  N   UNL     1      27.370  52.017  41.223  1.00  0.00    -0.172 NA
HETATM   21  H   UNL     1      28.396  53.302  42.434  1.00  0.00     0.189 HD
HETATM   22  C   UNL     1      27.836  51.099  40.368  1.00  0.00     0.113 A 
HETATM   23  C   UNL     1      29.250  51.068  40.351  1.00  0.00     0.073 A 
BRANCH  22  24
HETATM   24  C   UNL     1      26.942  50.232  39.549  1.00  0.00     0.105 A 
HETATM   25  O   UNL     1      26.237  49.162  40.031  1.00  0.00    -0.320 OA
HETATM   26  C   UNL     1      25.547  48.631  38.989  1.00  0.00     0.142 A 
HETATM   27  C   UNL     1      25.791  49.340  37.837  1.00  0.00     0.027 A 
HETATM   28  C   UNL     1      26.690  50.371  38.197  1.00  0.00     0.041 A 
ENDBRANCH  22  24
ENDBRANCH   1  18
TORSDOF 3
ENDMDL
MODEL 9
REMARK VINA RESULT:      -8.0      3.307      4.031
REMARK  3 active torsions:
REMARK  status: ('A' for Active; 'I' for Inactive)
REMARK    1  A    between atoms: C_4  and  C_5 
REMARK    2  A    between atoms: C_9  and  C_10 
REMARK       I    between atoms: C_10  and  N_11 
REMARK    3  A    between atoms: N_11  and  N_12 
ROOT
HETATM    1  C   UNL     1      27.231  43.649  51.956  1.00  0.00     0.289 C 
HETATM    2  N   UNL     1      25.894  43.332  52.133  1.00  0.00    -0.241 N 
HETATM    3  O   UNL     1      27.812  43.603  50.875  1.00  0.00    -0.264 OA
HETATM    4  H   UNL     1      25.460  43.388  53.054  1.00  0.00     0.192 HD
ENDROOT
BRANCH   2   5
HETATM    5  N   UNL     1      25.136  42.939  51.063  1.00  0.00    -0.165 NA
HETATM    6  C   UNL     1      24.443  43.854  50.469  1.00  0.00     0.157 A 
HETATM    7  C   UNL     1      24.347  45.346  50.798  1.00  0.00     0.277 A 
HETATM    8  C   UNL     1      23.576  43.643  49.317  1.00  0.00     0.028 A 
HETATM    9  O   UNL     1      24.940  45.890  51.705  1.00  0.00    -0.266 OA
HETATM   10  N   UNL     1      23.479  45.875  49.868  1.00  0.00    -0.321 N 
HETATM   11  C   UNL     1      23.025  44.884  49.000  1.00  0.00     0.048 A 
HETATM   12  H   UNL     1      23.223  46.852  49.840  1.00  0.00     0.169 HD
HETATM   13  C   UNL     1      22.149  45.028  47.945  1.00  0.00     0.032 A 
HETATM   14  C   UNL     1      21.838  43.878  47.207  1.00  0.00     0.021 A 
HETATM   15  C   UNL     1      22.403  42.628  47.540  1.00  0.00     0.012 A 
HETATM   16 BR   UNL     1      21.950  41.106  46.513  1.00  0.00    -0.051 Br
HETATM   17  C   UNL     1      23.288  42.494  48.609  1.00  0.00     0.035 A 
ENDBRANCH   2   5
BRANCH   1  18
HETATM   18  C   UNL     1      27.927  44.051  53.153  1.00  0.00     0.121 A 
HETATM   19  N   UNL     1      27.598  45.215  53.796  1.00  0.00    -0.272 N 
HETATM   20  N   UNL     1      28.327  45.464  54.896  1.00  0.00    -0.172 NA
HETATM   21  H   UNL     1      26.878  45.876  53.517  1.00  0.00     0.189 HD
HETATM   22  C   UNL     1      29.160  44.419  54.967  1.00  0.00     0.113 A 
HETATM   23  C   UNL     1      28.952  43.508  53.904  1.00  0.00     0.073 A 
BRANCH  22  24
HETATM   24  C   UNL     1      30.172  44.266  56.050  1.00  0.00     0.105 A 
HETATM   25  O   UNL     1      30.284  45.093  57.136  1.00  0.00    -0.320 OA
HETATM   26  C   UNL     1      31.316  44.631  57.889  1.00  0.00     0.142 A 
HETATM   27  C   UNL     1      31.875  43.517  57.311  1.00  0.00     0.027 A 
HETATM   28  C   UNL     1      31.139  43.281  56.126  1.00  0.00     0.041 A 
ENDBRANCH  22  24
ENDBRANCH   1  18
TORSDOF 3
ENDMDL
MODEL 10
REMARK VINA RESULT:      -8.0      2.667      3.785
REMARK  3 active torsions:
REMARK  status: ('A' for Active; 'I' for Inactive)
REMARK    1  A    between atoms: C_4  and  C_5 
REMARK    2  A    between atoms: C_9  and  C_10 
REMARK       I    between atoms: C_10  and  N_11 
REMARK    3  A    between atoms: N_11  and  N_12 
ROOT
HETATM    1  C   UNL     1      24.904  46.927  50.240  1.00  0.00     0.289 C 
HETATM    2  N   UNL     1      23.791  46.735  49.439  1.00  0.00    -0.241 N 
HETATM    3  O   UNL     1      25.171  47.986  50.805  1.00  0.00    -0.264 OA
HETATM    4  H   UNL     1      23.616  45.834  48.993  1.00  0.00     0.192 HD
ENDROOT
BRANCH   2   5
HETATM    5  N   UNL     1      22.907  47.761  49.236  1.00  0.00    -0.165 NA
HETATM    6  C   UNL     1      22.000  47.581  48.332  1.00  0.00     0.157 A 
HETATM    7  C   UNL     1      21.769  46.361  47.438  1.00  0.00     0.277 A 
HETATM    8  C   UNL     1      20.971  48.545  47.967  1.00  0.00     0.028 A 
HETATM    9  O   UNL     1      22.441  45.352  47.463  1.00  0.00    -0.266 OA
HETATM   10  N   UNL     1      20.681  46.677  46.654  1.00  0.00    -0.321 N 
HETATM   11  C   UNL     1      20.211  47.953  46.958  1.00  0.00     0.048 A 
HETATM   12  H   UNL     1      20.296  46.051  45.960  1.00  0.00     0.169 HD
HETATM   13  C   UNL     1      19.143  48.612  46.387  1.00  0.00     0.032 A 
HETATM   14  C   UNL     1      18.856  49.900  46.861  1.00  0.00     0.021 A 
HETATM   15  C   UNL     1      19.635  50.487  47.881  1.00  0.00     0.012 A 
HETATM   16 BR   UNL     1      19.206  52.227  48.485  1.00  0.00    -0.051 Br
HETATM   17  C   UNL     1      20.712  49.810  48.452  1.00  0.00     0.035 A 
ENDBRANCH   2   5
BRANCH   1  18
HETATM   18  C   UNL     1      25.762  45.777  50.381  1.00  0.00     0.121 A 
HETATM   19  N   UNL     1      26.020  44.962  49.311  1.00  0.00    -0.272 N 
HETATM   20  N   UNL     1      26.834  43.931  49.586  1.00  0.00    -0.172 NA
HETATM   21  H   UNL     1      25.659  45.071  48.367  1.00  0.00     0.189 HD
HETATM   22  C   UNL     1      27.114  44.086  50.886  1.00  0.00     0.113 A 
HETATM   23  C   UNL     1      26.471  45.223  51.429  1.00  0.00     0.073 A 
BRANCH  22  24
HETATM   24  C   UNL     1      28.001  43.153  51.638  1.00  0.00     0.105 A 
HETATM   25  O   UNL     1      27.970  41.789  51.529  1.00  0.00    -0.320 OA
HETATM   26  C   UNL     1      28.921  41.296  52.365  1.00  0.00     0.142 A 
HETATM   27  C   UNL     1      29.570  42.319  53.014  1.00  0.00     0.027 A 
HETATM   28  C   UNL     1      28.978  43.516  52.547  1.00  0.00     0.041 A 
ENDBRANCH  22  24
ENDBRANCH   1  18
TORSDOF 3
ENDMDL
