MODEL 1
REMARK VINA RESULT:      -7.2      0.000      0.000
REMARK  8 active torsions:
REMARK  status: ('A' for Active; 'I' for Inactive)
REMARK    1  A    between atoms: C_2  and  C_3 
REMARK    2  A    between atoms: C_3  and  N_4 
REMARK    3  A    between atoms: C_7  and  C_8 
REMARK       I    between atoms: C_8  and  N_9 
REMARK    4  A    between atoms: N_9  and  C_10 
REMARK    5  A    between atoms: C_13  and  O_14 
REMARK    6  A    between atoms: O_14  and  C_15 
REMARK    7  A    between atoms: C_15  and  C_16 
REMARK       I    between atoms: C_16  and  N_17 
REMARK    8  A    between atoms: C_23  and  C_24 
ROOT
HETATM    1  C   UNL     1      24.219  49.399  48.359  1.00  0.00     0.259 C 
HETATM    2  N   UNL     1      25.028  48.415  48.870  1.00  0.00    -0.323 N 
HETATM    3  O   UNL     1      24.674  50.047  47.413  1.00  0.00    -0.267 OA
HETATM    4  H   UNL     1      25.929  48.458  48.407  1.00  0.00     0.169 HD
ENDROOT
BRANCH   2   5
HETATM    5  C   UNL     1      24.865  47.367  49.787  1.00  0.00     0.035 A 
HETATM    6  C   UNL     1      24.219  46.159  49.530  1.00  0.00     0.032 A 
HETATM    7  C   UNL     1      24.163  45.166  50.520  1.00  0.00     0.039 A 
HETATM    8  C   UNL     1      24.784  45.364  51.752  1.00  0.00     0.069 A 
HETATM    9  C   UNL     1      25.415  46.569  52.028  1.00  0.00     0.039 A 
HETATM   10  C   UNL     1      25.460  47.560  51.046  1.00  0.00     0.032 A 
BRANCH   8  11
HETATM   11  O   UNL     1      24.712  44.361  52.679  1.00  0.00    -0.342 OA
BRANCH  11  12
HETATM   12  C   UNL     1      25.918  44.254  53.442  1.00  0.00     0.278 C 
BRANCH  12  13
HETATM   13  C   UNL     1      27.031  43.491  52.722  1.00  0.00     0.241 C 
HETATM   14  N   UNL     1      26.697  42.200  52.372  1.00  0.00    -0.364 N 
HETATM   15  C   UNL     1      27.642  41.326  51.726  1.00  0.00     0.149 C 
HETATM   16  H   UNL     1      25.864  41.808  52.798  1.00  0.00     0.161 HD
HETATM   17  O   UNL     1      28.109  44.011  52.444  1.00  0.00    -0.271 OA
ENDBRANCH  12  13
ENDBRANCH  11  12
ENDBRANCH   8  11
ENDBRANCH   2   5
BRANCH   1  18
HETATM   18  C   UNL     1      22.966  49.770  48.975  1.00  0.00     0.076 C 
HETATM   19  C   UNL     1      22.796  50.709  50.018  1.00  0.00     0.158 C 
HETATM   20  N   UNL     1      21.517  51.001  50.255  1.00  0.00    -0.183 NA
HETATM   21  N   UNL     1      20.855  50.331  49.287  1.00  0.00    -0.268 N 
HETATM   22  C   UNL     1      21.669  49.467  48.583  1.00  0.00     0.052 C 
BRANCH  21  23
HETATM   23  C   UNL     1      19.432  50.592  49.060  1.00  0.00     0.106 C 
HETATM   24  C   UNL     1      19.156  51.988  48.486  1.00  0.00     0.034 C 
BRANCH  23  25
HETATM   25  C   UNL     1      18.563  50.277  50.292  1.00  0.00     0.022 C 
HETATM   26  C   UNL     1      18.670  48.852  50.813  1.00  0.00     0.007 C 
ENDBRANCH  23  25
ENDBRANCH  21  23
BRANCH  22  27
HETATM   27  C   UNL     1      21.151  48.417  47.596  1.00  0.00     0.038 A 
HETATM   28  C   UNL     1      21.810  47.093  47.319  1.00  0.00     0.011 A 
HETATM   29  C   UNL     1      20.613  47.136  48.204  1.00  0.00     0.011 A 
ENDBRANCH  22  27
ENDBRANCH   1  18
TORSDOF 8
ENDMDL
MODEL 2
REMARK VINA RESULT:      -7.1     10.613     13.840
REMARK  8 active torsions:
REMARK  status: ('A' for Active; 'I' for Inactive)
REMARK    1  A    between atoms: C_2  and  C_3 
REMARK    2  A    between atoms: C_3  and  N_4 
REMARK    3  A    between atoms: C_7  and  C_8 
REMARK       I    between atoms: C_8  and  N_9 
REMARK    4  A    between atoms: N_9  and  C_10 
REMARK    5  A    between atoms: C_13  and  O_14 
REMARK    6  A    between atoms: O_14  and  C_15 
REMARK    7  A    between atoms: C_15  and  C_16 
REMARK       I    between atoms: C_16  and  N_17 
REMARK    8  A    between atoms: C_23  and  C_24 
ROOT
HETATM    1  C   UNL     1      30.841  53.588  40.786  1.00  0.00     0.259 C 
HETATM    2  N   UNL     1      29.755  53.490  39.953  1.00  0.00    -0.323 N 
HETATM    3  O   UNL     1      31.411  54.681  40.819  1.00  0.00    -0.267 OA
HETATM    4  H   UNL     1      29.665  54.353  39.428  1.00  0.00     0.169 HD
ENDROOT
BRANCH   2   5
HETATM    5  C   UNL     1      28.747  52.539  39.736  1.00  0.00     0.035 A 
HETATM    6  C   UNL     1      28.402  51.991  38.502  1.00  0.00     0.032 A 
HETATM    7  C   UNL     1      27.403  51.009  38.423  1.00  0.00     0.039 A 
HETATM    8  C   UNL     1      26.775  50.548  39.578  1.00  0.00     0.069 A 
HETATM    9  C   UNL     1      27.095  51.099  40.812  1.00  0.00     0.039 A 
HETATM   10  C   UNL     1      28.082  52.083  40.887  1.00  0.00     0.032 A 
BRANCH   8  11
HETATM   11  O   UNL     1      25.816  49.582  39.450  1.00  0.00    -0.342 OA
BRANCH  11  12
HETATM   12  C   UNL     1      25.107  49.696  38.212  1.00  0.00     0.278 C 
BRANCH  12  13
HETATM   13  C   UNL     1      23.619  50.007  38.386  1.00  0.00     0.241 C 
HETATM   14  N   UNL     1      23.316  50.705  39.536  1.00  0.00    -0.364 N 
HETATM   15  C   UNL     1      21.959  51.043  39.878  1.00  0.00     0.149 C 
HETATM   16  H   UNL     1      24.039  50.756  40.247  1.00  0.00     0.161 HD
HETATM   17  O   UNL     1      22.782  49.697  37.542  1.00  0.00    -0.271 OA
ENDBRANCH  12  13
ENDBRANCH  11  12
ENDBRANCH   8  11
ENDBRANCH   2   5
BRANCH   1  18
HETATM   18  C   UNL     1      31.392  52.446  41.479  1.00  0.00     0.076 C 
HETATM   19  C   UNL     1      31.446  52.269  42.881  1.00  0.00     0.158 C 
HETATM   20  N   UNL     1      31.822  51.041  43.238  1.00  0.00    -0.183 NA
HETATM   21  N   UNL     1      31.909  50.382  42.063  1.00  0.00    -0.268 N 
HETATM   22  C   UNL     1      31.797  51.219  40.971  1.00  0.00     0.052 C 
BRANCH  21  23
HETATM   23  C   UNL     1      32.065  48.926  42.051  1.00  0.00     0.106 C 
HETATM   24  C   UNL     1      33.400  48.465  41.452  1.00  0.00     0.034 C 
BRANCH  23  25
HETATM   25  C   UNL     1      30.856  48.200  41.432  1.00  0.00     0.022 C 
HETATM   26  C   UNL     1      29.508  48.548  42.045  1.00  0.00     0.007 C 
ENDBRANCH  23  25
ENDBRANCH  21  23
BRANCH  22  27
HETATM   27  C   UNL     1      32.089  50.790  39.530  1.00  0.00     0.038 A 
HETATM   28  C   UNL     1      32.141  51.718  38.347  1.00  0.00     0.011 A 
HETATM   29  C   UNL     1      33.416  51.245  38.953  1.00  0.00     0.011 A 
ENDBRANCH  22  27
ENDBRANCH   1  18
TORSDOF 8
ENDMDL
MODEL 3
REMARK VINA RESULT:      -6.8     10.519     12.650
REMARK  8 active torsions:
REMARK  status: ('A' for Active; 'I' for Inactive)
REMARK    1  A    between atoms: C_2  and  C_3 
REMARK    2  A    between atoms: C_3  and  N_4 
REMARK    3  A    between atoms: C_7  and  C_8 
REMARK       I    between atoms: C_8  and  N_9 
REMARK    4  A    between atoms: N_9  and  C_10 
REMARK    5  A    between atoms: C_13  and  O_14 
REMARK    6  A    between atoms: O_14  and  C_15 
REMARK    7  A    between atoms: C_15  and  C_16 
REMARK       I    between atoms: C_16  and  N_17 
REMARK    8  A    between atoms: C_23  and  C_24 
ROOT
HETATM    1  C   UNL     1      28.816  52.135  38.871  1.00  0.00     0.259 C 
HETATM    2  N   UNL     1      28.257  50.981  38.383  1.00  0.00    -0.323 N 
HETATM    3  O   UNL     1      28.722  53.136  38.156  1.00  0.00    -0.267 OA
HETATM    4  H   UNL     1      27.924  51.151  37.440  1.00  0.00     0.169 HD
ENDROOT
BRANCH   2   5
HETATM    5  C   UNL     1      27.986  49.707  38.902  1.00  0.00     0.035 A 
HETATM    6  C   UNL     1      28.847  48.612  38.852  1.00  0.00     0.032 A 
HETATM    7  C   UNL     1      28.478  47.399  39.452  1.00  0.00     0.039 A 
HETATM    8  C   UNL     1      27.267  47.289  40.133  1.00  0.00     0.069 A 
HETATM    9  C   UNL     1      26.391  48.366  40.174  1.00  0.00     0.039 A 
HETATM   10  C   UNL     1      26.756  49.569  39.568  1.00  0.00     0.032 A 
BRANCH   8  11
HETATM   11  O   UNL     1      26.958  46.089  40.711  1.00  0.00    -0.342 OA
BRANCH  11  12
HETATM   12  C   UNL     1      27.123  45.000  39.799  1.00  0.00     0.278 C 
BRANCH  12  13
HETATM   13  C   UNL     1      27.757  43.761  40.434  1.00  0.00     0.241 C 
HETATM   14  N   UNL     1      27.156  43.355  41.606  1.00  0.00    -0.364 N 
HETATM   15  C   UNL     1      27.652  42.232  42.359  1.00  0.00     0.149 C 
HETATM   16  H   UNL     1      26.519  44.010  42.048  1.00  0.00     0.161 HD
HETATM   17  O   UNL     1      28.691  43.160  39.909  1.00  0.00    -0.271 OA
ENDBRANCH  12  13
ENDBRANCH  11  12
ENDBRANCH   8  11
ENDBRANCH   2   5
BRANCH   1  18
HETATM   18  C   UNL     1      29.604  52.163  40.081  1.00  0.00     0.076 C 
HETATM   19  C   UNL     1      29.200  52.695  41.327  1.00  0.00     0.158 C 
HETATM   20  N   UNL     1      30.045  52.408  42.317  1.00  0.00    -0.183 NA
HETATM   21  N   UNL     1      30.950  51.592  41.734  1.00  0.00    -0.268 N 
HETATM   22  C   UNL     1      30.807  51.529  40.363  1.00  0.00     0.052 C 
BRANCH  21  23
HETATM   23  C   UNL     1      31.916  50.864  42.560  1.00  0.00     0.106 C 
HETATM   24  C   UNL     1      31.535  49.394  42.783  1.00  0.00     0.034 C 
BRANCH  23  25
HETATM   25  C   UNL     1      32.250  51.595  43.874  1.00  0.00     0.022 C 
HETATM   26  C   UNL     1      33.723  51.910  44.082  1.00  0.00     0.007 C 
ENDBRANCH  23  25
ENDBRANCH  21  23
BRANCH  22  27
HETATM   27  C   UNL     1      31.827  50.876  39.425  1.00  0.00     0.038 A 
HETATM   28  C   UNL     1      31.995  51.208  37.968  1.00  0.00     0.011 A 
HETATM   29  C   UNL     1      32.964  51.762  38.953  1.00  0.00     0.011 A 
ENDBRANCH  22  27
ENDBRANCH   1  18
TORSDOF 8
ENDMDL
MODEL 4
REMARK VINA RESULT:      -6.8      2.980      4.615
REMARK  8 active torsions:
REMARK  status: ('A' for Active; 'I' for Inactive)
REMARK    1  A    between atoms: C_2  and  C_3 
REMARK    2  A    between atoms: C_3  and  N_4 
REMARK    3  A    between atoms: C_7  and  C_8 
REMARK       I    between atoms: C_8  and  N_9 
REMARK    4  A    between atoms: N_9  and  C_10 
REMARK    5  A    between atoms: C_13  and  O_14 
REMARK    6  A    between atoms: O_14  and  C_15 
REMARK    7  A    between atoms: C_15  and  C_16 
REMARK       I    between atoms: C_16  and  N_17 
REMARK    8  A    between atoms: C_23  and  C_24 
ROOT
HETATM    1  C   UNL     1      18.082  46.865  48.643  1.00  0.00     0.259 C 
HETATM    2  N   UNL     1      19.199  46.222  48.173  1.00  0.00    -0.323 N 
HETATM    3  O   UNL     1      16.994  46.380  48.322  1.00  0.00    -0.267 OA
HETATM    4  H   UNL     1      18.911  45.478  47.548  1.00  0.00     0.169 HD
ENDROOT
BRANCH   2   5
HETATM    5  C   UNL     1      20.578  46.312  48.415  1.00  0.00     0.035 A 
HETATM    6  C   UNL     1      21.319  47.492  48.449  1.00  0.00     0.032 A 
HETATM    7  C   UNL     1      22.689  47.454  48.751  1.00  0.00     0.039 A 
HETATM    8  C   UNL     1      23.310  46.244  49.054  1.00  0.00     0.069 A 
HETATM    9  C   UNL     1      22.588  45.059  49.005  1.00  0.00     0.039 A 
HETATM   10  C   UNL     1      21.228  45.098  48.696  1.00  0.00     0.032 A 
BRANCH   8  11
HETATM   11  O   UNL     1      24.644  46.261  49.353  1.00  0.00    -0.342 OA
BRANCH  11  12
HETATM   12  C   UNL     1      24.900  45.775  50.674  1.00  0.00     0.278 C 
BRANCH  12  13
HETATM   13  C   UNL     1      25.542  46.815  51.595  1.00  0.00     0.241 C 
HETATM   14  N   UNL     1      25.480  46.501  52.935  1.00  0.00    -0.364 N 
HETATM   15  C   UNL     1      25.997  47.389  53.943  1.00  0.00     0.149 C 
HETATM   16  H   UNL     1      24.847  45.754  53.204  1.00  0.00     0.161 HD
HETATM   17  O   UNL     1      26.104  47.818  51.159  1.00  0.00    -0.271 OA
ENDBRANCH  12  13
ENDBRANCH  11  12
ENDBRANCH   8  11
ENDBRANCH   2   5
BRANCH   1  18
HETATM   18  C   UNL     1      18.151  48.122  49.350  1.00  0.00     0.076 C 
HETATM   19  C   UNL     1      18.583  48.307  50.683  1.00  0.00     0.158 C 
HETATM   20  N   UNL     1      18.733  49.590  51.012  1.00  0.00    -0.183 NA
HETATM   21  N   UNL     1      18.503  50.242  49.852  1.00  0.00    -0.268 N 
HETATM   22  C   UNL     1      18.011  49.415  48.862  1.00  0.00     0.052 C 
BRANCH  21  23
HETATM   23  C   UNL     1      18.810  51.670  49.743  1.00  0.00     0.106 C 
HETATM   24  C   UNL     1      17.561  52.561  49.760  1.00  0.00     0.034 C 
BRANCH  23  25
HETATM   25  C   UNL     1      19.751  51.991  48.567  1.00  0.00     0.022 C 
HETATM   26  C   UNL     1      21.078  51.247  48.578  1.00  0.00     0.007 C 
ENDBRANCH  23  25
ENDBRANCH  21  23
BRANCH  22  27
HETATM   27  C   UNL     1      17.444  49.917  47.532  1.00  0.00     0.038 A 
HETATM   28  C   UNL     1      16.481  49.155  46.662  1.00  0.00     0.011 A 
HETATM   29  C   UNL     1      15.965  50.257  47.522  1.00  0.00     0.011 A 
ENDBRANCH  22  27
ENDBRANCH   1  18
TORSDOF 8
ENDMDL
MODEL 5
REMARK VINA RESULT:      -6.7     11.034     13.259
REMARK  8 active torsions:
REMARK  status: ('A' for Active; 'I' for Inactive)
REMARK    1  A    between atoms: C_2  and  C_3 
REMARK    2  A    between atoms: C_3  and  N_4 
REMARK    3  A    between atoms: C_7  and  C_8 
REMARK       I    between atoms: C_8  and  N_9 
REMARK    4  A    between atoms: N_9  and  C_10 
REMARK    5  A    between atoms: C_13  and  O_14 
REMARK    6  A    between atoms: O_14  and  C_15 
REMARK    7  A    between atoms: C_15  and  C_16 
REMARK       I    between atoms: C_16  and  N_17 
REMARK    8  A    between atoms: C_23  and  C_24 
ROOT
HETATM    1  C   UNL     1      28.602  52.169  41.550  1.00  0.00     0.259 C 
HETATM    2  N   UNL     1      29.713  52.630  42.212  1.00  0.00    -0.323 N 
HETATM    3  O   UNL     1      27.631  52.928  41.513  1.00  0.00    -0.267 OA
HETATM    4  H   UNL     1      29.492  53.521  42.642  1.00  0.00     0.169 HD
ENDROOT
BRANCH   2   5
HETATM    5  C   UNL     1      31.041  52.201  42.351  1.00  0.00     0.035 A 
HETATM    6  C   UNL     1      31.663  51.868  43.553  1.00  0.00     0.032 A 
HETATM    7  C   UNL     1      32.987  51.405  43.555  1.00  0.00     0.039 A 
HETATM    8  C   UNL     1      33.678  51.238  42.356  1.00  0.00     0.069 A 
HETATM    9  C   UNL     1      33.076  51.583  41.153  1.00  0.00     0.039 A 
HETATM   10  C   UNL     1      31.762  52.053  41.154  1.00  0.00     0.032 A 
BRANCH   8  11
HETATM   11  O   UNL     1      34.962  50.772  42.409  1.00  0.00    -0.342 OA
BRANCH  11  12
HETATM   12  C   UNL     1      35.892  51.710  41.859  1.00  0.00     0.278 C 
BRANCH  12  13
HETATM   13  C   UNL     1      36.569  52.590  42.912  1.00  0.00     0.241 C 
HETATM   14  N   UNL     1      36.914  51.924  44.069  1.00  0.00    -0.364 N 
HETATM   15  C   UNL     1      37.521  52.609  45.181  1.00  0.00     0.149 C 
HETATM   16  H   UNL     1      36.508  51.004  44.210  1.00  0.00     0.161 HD
HETATM   17  O   UNL     1      36.821  53.775  42.712  1.00  0.00    -0.271 OA
ENDBRANCH  12  13
ENDBRANCH  11  12
ENDBRANCH   8  11
ENDBRANCH   2   5
BRANCH   1  18
HETATM   18  C   UNL     1      28.504  50.818  41.048  1.00  0.00     0.076 C 
HETATM   19  C   UNL     1      28.352  49.649  41.827  1.00  0.00     0.158 C 
HETATM   20  N   UNL     1      28.089  48.565  41.096  1.00  0.00    -0.183 NA
HETATM   21  N   UNL     1      27.962  49.051  39.843  1.00  0.00    -0.268 N 
HETATM   22  C   UNL     1      28.341  50.374  39.742  1.00  0.00     0.052 C 
BRANCH  21  23
HETATM   23  C   UNL     1      27.431  48.197  38.778  1.00  0.00     0.106 C 
HETATM   24  C   UNL     1      25.903  48.056  38.820  1.00  0.00     0.034 C 
BRANCH  23  25
HETATM   25  C   UNL     1      28.149  46.837  38.689  1.00  0.00     0.022 C 
HETATM   26  C   UNL     1      29.632  46.909  38.359  1.00  0.00     0.007 C 
ENDBRANCH  23  25
ENDBRANCH  21  23
BRANCH  22  27
HETATM   27  C   UNL     1      28.524  51.113  38.413  1.00  0.00     0.038 A 
HETATM   28  C   UNL     1      29.029  52.523  38.272  1.00  0.00     0.011 A 
HETATM   29  C   UNL     1      29.955  51.391  37.994  1.00  0.00     0.011 A 
ENDBRANCH  22  27
ENDBRANCH   1  18
TORSDOF 8
ENDMDL
MODEL 6
REMARK VINA RESULT:      -6.7     12.726     15.398
REMARK  8 active torsions:
REMARK  status: ('A' for Active; 'I' for Inactive)
REMARK    1  A    between atoms: C_2  and  C_3 
REMARK    2  A    between atoms: C_3  and  N_4 
REMARK    3  A    between atoms: C_7  and  C_8 
REMARK       I    between atoms: C_8  and  N_9 
REMARK    4  A    between atoms: N_9  and  C_10 
REMARK    5  A    between atoms: C_13  and  O_14 
REMARK    6  A    between atoms: O_14  and  C_15 
REMARK    7  A    between atoms: C_15  and  C_16 
REMARK       I    between atoms: C_16  and  N_17 
REMARK    8  A    between atoms: C_23  and  C_24 
ROOT
HETATM    1  C   UNL     1      33.077  48.543  41.294  1.00  0.00     0.259 C 
HETATM    2  N   UNL     1      34.389  48.903  41.108  1.00  0.00    -0.323 N 
HETATM    3  O   UNL     1      32.821  47.340  41.208  1.00  0.00    -0.267 OA
HETATM    4  H   UNL     1      34.919  48.082  40.838  1.00  0.00     0.169 HD
ENDROOT
BRANCH   2   5
HETATM    5  C   UNL     1      35.134  50.079  41.277  1.00  0.00     0.035 A 
HETATM    6  C   UNL     1      35.170  50.856  42.434  1.00  0.00     0.032 A 
HETATM    7  C   UNL     1      35.995  51.989  42.495  1.00  0.00     0.039 A 
HETATM    8  C   UNL     1      36.811  52.325  41.417  1.00  0.00     0.069 A 
HETATM    9  C   UNL     1      36.771  51.571  40.251  1.00  0.00     0.039 A 
HETATM   10  C   UNL     1      35.942  50.450  40.189  1.00  0.00     0.032 A 
BRANCH   8  11
HETATM   11  O   UNL     1      37.606  53.432  41.530  1.00  0.00    -0.342 OA
BRANCH  11  12
HETATM   12  C   UNL     1      37.635  54.192  40.318  1.00  0.00     0.278 C 
BRANCH  12  13
HETATM   13  C   UNL     1      36.719  55.417  40.343  1.00  0.00     0.241 C 
HETATM   14  N   UNL     1      35.943  55.568  39.213  1.00  0.00    -0.364 N 
HETATM   15  C   UNL     1      35.056  56.690  39.051  1.00  0.00     0.149 C 
HETATM   16  H   UNL     1      36.195  55.008  38.404  1.00  0.00     0.161 HD
HETATM   17  O   UNL     1      36.655  56.168  41.313  1.00  0.00    -0.271 OA
ENDBRANCH  12  13
ENDBRANCH  11  12
ENDBRANCH   8  11
ENDBRANCH   2   5
BRANCH   1  18
HETATM   18  C   UNL     1      32.019  49.516  41.436  1.00  0.00     0.076 C 
HETATM   19  C   UNL     1      31.492  50.002  42.653  1.00  0.00     0.158 C 
HETATM   20  N   UNL     1      30.665  51.035  42.490  1.00  0.00    -0.183 NA
HETATM   21  N   UNL     1      30.740  51.293  41.167  1.00  0.00    -0.268 N 
HETATM   22  C   UNL     1      31.429  50.321  40.470  1.00  0.00     0.052 C 
BRANCH  21  23
HETATM   23  C   UNL     1      30.153  52.522  40.627  1.00  0.00     0.106 C 
HETATM   24  C   UNL     1      31.002  53.770  40.903  1.00  0.00     0.034 C 
BRANCH  23  25
HETATM   25  C   UNL     1      28.679  52.708  41.032  1.00  0.00     0.022 C 
HETATM   26  C   UNL     1      27.735  51.612  40.562  1.00  0.00     0.007 C 
ENDBRANCH  23  25
ENDBRANCH  21  23
BRANCH  22  27
HETATM   27  C   UNL     1      31.469  50.229  38.942  1.00  0.00     0.038 A 
HETATM   28  C   UNL     1      31.069  51.332  38.001  1.00  0.00     0.011 A 
HETATM   29  C   UNL     1      32.515  51.081  38.249  1.00  0.00     0.011 A 
ENDBRANCH  22  27
ENDBRANCH   1  18
TORSDOF 8
ENDMDL
MODEL 7
REMARK VINA RESULT:      -6.7     11.112     13.321
REMARK  8 active torsions:
REMARK  status: ('A' for Active; 'I' for Inactive)
REMARK    1  A    between atoms: C_2  and  C_3 
REMARK    2  A    between atoms: C_3  and  N_4 
REMARK    3  A    between atoms: C_7  and  C_8 
REMARK       I    between atoms: C_8  and  N_9 
REMARK    4  A    between atoms: N_9  and  C_10 
REMARK    5  A    between atoms: C_13  and  O_14 
REMARK    6  A    between atoms: O_14  and  C_15 
REMARK    7  A    between atoms: C_15  and  C_16 
REMARK       I    between atoms: C_16  and  N_17 
REMARK    8  A    between atoms: C_23  and  C_24 
ROOT
HETATM    1  C   UNL     1      29.231  53.244  40.063  1.00  0.00     0.259 C 
HETATM    2  N   UNL     1      28.228  52.460  39.550  1.00  0.00    -0.323 N 
HETATM    3  O   UNL     1      29.150  54.455  39.841  1.00  0.00    -0.267 OA
HETATM    4  H   UNL     1      27.617  53.038  38.985  1.00  0.00     0.169 HD
ENDROOT
BRANCH   2   5
HETATM    5  C   UNL     1      27.836  51.121  39.694  1.00  0.00     0.035 A 
HETATM    6  C   UNL     1      27.639  50.460  40.905  1.00  0.00     0.032 A 
HETATM    7  C   UNL     1      27.199  49.128  40.916  1.00  0.00     0.039 A 
HETATM    8  C   UNL     1      26.921  48.468  39.721  1.00  0.00     0.069 A 
HETATM    9  C   UNL     1      27.130  49.108  38.507  1.00  0.00     0.039 A 
HETATM   10  C   UNL     1      27.577  50.430  38.498  1.00  0.00     0.032 A 
BRANCH   8  11
HETATM   11  O   UNL     1      26.483  47.174  39.785  1.00  0.00    -0.342 OA
BRANCH  11  12
HETATM   12  C   UNL     1      27.310  46.374  40.635  1.00  0.00     0.278 C 
BRANCH  12  13
HETATM   13  C   UNL     1      28.529  45.783  39.924  1.00  0.00     0.241 C 
HETATM   14  N   UNL     1      28.243  44.711  39.106  1.00  0.00    -0.364 N 
HETATM   15  C   UNL     1      29.279  44.008  38.395  1.00  0.00     0.149 C 
HETATM   16  H   UNL     1      27.330  44.281  39.212  1.00  0.00     0.161 HD
HETATM   17  O   UNL     1      29.653  46.263  40.044  1.00  0.00    -0.271 OA
ENDBRANCH  12  13
ENDBRANCH  11  12
ENDBRANCH   8  11
ENDBRANCH   2   5
BRANCH   1  18
HETATM   18  C   UNL     1      30.401  52.687  40.700  1.00  0.00     0.076 C 
HETATM   19  C   UNL     1      30.887  53.016  41.985  1.00  0.00     0.158 C 
HETATM   20  N   UNL     1      31.864  52.208  42.399  1.00  0.00    -0.183 NA
HETATM   21  N   UNL     1      31.940  51.279  41.422  1.00  0.00    -0.268 N 
HETATM   22  C   UNL     1      31.181  51.603  40.315  1.00  0.00     0.052 C 
BRANCH  21  23
HETATM   23  C   UNL     1      32.740  50.069  41.625  1.00  0.00     0.106 C 
HETATM   24  C   UNL     1      32.058  49.038  42.533  1.00  0.00     0.034 C 
BRANCH  23  25
HETATM   25  C   UNL     1      34.186  50.375  42.058  1.00  0.00     0.022 C 
HETATM   26  C   UNL     1      35.082  50.944  40.969  1.00  0.00     0.007 C 
ENDBRANCH  23  25
ENDBRANCH  21  23
BRANCH  22  27
HETATM   27  C   UNL     1      31.258  50.862  38.978  1.00  0.00     0.038 A 
HETATM   28  C   UNL     1      31.033  51.490  37.629  1.00  0.00     0.011 A 
HETATM   29  C   UNL     1      32.427  51.222  38.081  1.00  0.00     0.011 A 
ENDBRANCH  22  27
ENDBRANCH   1  18
TORSDOF 8
ENDMDL
MODEL 8
REMARK VINA RESULT:      -6.6     12.327     14.851
REMARK  8 active torsions:
REMARK  status: ('A' for Active; 'I' for Inactive)
REMARK    1  A    between atoms: C_2  and  C_3 
REMARK    2  A    between atoms: C_3  and  N_4 
REMARK    3  A    between atoms: C_7  and  C_8 
REMARK       I    between atoms: C_8  and  N_9 
REMARK    4  A    between atoms: N_9  and  C_10 
REMARK    5  A    between atoms: C_13  and  O_14 
REMARK    6  A    between atoms: O_14  and  C_15 
REMARK    7  A    between atoms: C_15  and  C_16 
REMARK       I    between atoms: C_16  and  N_17 
REMARK    8  A    between atoms: C_23  and  C_24 
ROOT
HETATM    1  C   UNL     1      32.990  48.411  41.133  1.00  0.00     0.259 C 
HETATM    2  N   UNL     1      34.286  48.860  41.189  1.00  0.00    -0.323 N 
HETATM    3  O   UNL     1      32.811  47.218  41.388  1.00  0.00    -0.267 OA
HETATM    4  H   UNL     1      34.900  48.071  41.357  1.00  0.00     0.169 HD
ENDROOT
BRANCH   2   5
HETATM    5  C   UNL     1      34.910  50.115  41.146  1.00  0.00     0.035 A 
HETATM    6  C   UNL     1      34.701  51.091  40.174  1.00  0.00     0.032 A 
HETATM    7  C   UNL     1      35.352  52.331  40.269  1.00  0.00     0.039 A 
HETATM    8  C   UNL     1      36.181  52.609  41.353  1.00  0.00     0.069 A 
HETATM    9  C   UNL     1      36.413  51.640  42.320  1.00  0.00     0.039 A 
HETATM   10  C   UNL     1      35.772  50.404  42.218  1.00  0.00     0.032 A 
BRANCH   8  11
HETATM   11  O   UNL     1      36.784  53.836  41.407  1.00  0.00    -0.342 OA
BRANCH  11  12
HETATM   12  C   UNL     1      37.960  53.816  42.222  1.00  0.00     0.278 C 
BRANCH  12  13
HETATM   13  C   UNL     1      38.084  55.028  43.147  1.00  0.00     0.241 C 
HETATM   14  N   UNL     1      38.494  54.724  44.427  1.00  0.00    -0.364 N 
HETATM   15  C   UNL     1      38.622  55.739  45.440  1.00  0.00     0.149 C 
HETATM   16  H   UNL     1      38.463  53.747  44.700  1.00  0.00     0.161 HD
HETATM   17  O   UNL     1      37.880  56.175  42.756  1.00  0.00    -0.271 OA
ENDBRANCH  12  13
ENDBRANCH  11  12
ENDBRANCH   8  11
ENDBRANCH   2   5
BRANCH   1  18
HETATM   18  C   UNL     1      31.904  49.237  40.660  1.00  0.00     0.076 C 
HETATM   19  C   UNL     1      31.339  49.209  39.365  1.00  0.00     0.158 C 
HETATM   20  N   UNL     1      30.224  49.933  39.265  1.00  0.00    -0.183 NA
HETATM   21  N   UNL     1      30.002  50.348  40.530  1.00  0.00    -0.268 N 
HETATM   22  C   UNL     1      31.058  50.074  41.376  1.00  0.00     0.052 C 
BRANCH  21  23
HETATM   23  C   UNL     1      28.727  50.978  40.880  1.00  0.00     0.106 C 
HETATM   24  C   UNL     1      27.553  49.991  40.913  1.00  0.00     0.034 C 
BRANCH  23  25
HETATM   25  C   UNL     1      28.426  52.228  40.032  1.00  0.00     0.022 C 
HETATM   26  C   UNL     1      29.399  53.383  40.212  1.00  0.00     0.007 C 
ENDBRANCH  23  25
ENDBRANCH  21  23
BRANCH  22  27
HETATM   27  C   UNL     1      31.184  50.632  42.796  1.00  0.00     0.038 A 
HETATM   28  C   UNL     1      32.482  50.966  43.480  1.00  0.00     0.011 A 
HETATM   29  C   UNL     1      31.658  52.068  42.911  1.00  0.00     0.011 A 
ENDBRANCH  22  27
ENDBRANCH   1  18
TORSDOF 8
ENDMDL
MODEL 9
REMARK VINA RESULT:      -6.6     10.584     13.304
REMARK  8 active torsions:
REMARK  status: ('A' for Active; 'I' for Inactive)
REMARK    1  A    between atoms: C_2  and  C_3 
REMARK    2  A    between atoms: C_3  and  N_4 
REMARK    3  A    between atoms: C_7  and  C_8 
REMARK       I    between atoms: C_8  and  N_9 
REMARK    4  A    between atoms: N_9  and  C_10 
REMARK    5  A    between atoms: C_13  and  O_14 
REMARK    6  A    between atoms: O_14  and  C_15 
REMARK    7  A    between atoms: C_15  and  C_16 
REMARK       I    between atoms: C_16  and  N_17 
REMARK    8  A    between atoms: C_23  and  C_24 
ROOT
HETATM    1  C   UNL     1      31.125  47.994  40.188  1.00  0.00     0.259 C 
HETATM    2  N   UNL     1      29.982  47.265  40.406  1.00  0.00    -0.323 N 
HETATM    3  O   UNL     1      32.194  47.412  40.387  1.00  0.00    -0.267 OA
HETATM    4  H   UNL     1      30.238  46.362  40.790  1.00  0.00     0.169 HD
ENDROOT
BRANCH   2   5
HETATM    5  C   UNL     1      28.616  47.454  40.155  1.00  0.00     0.035 A 
HETATM    6  C   UNL     1      27.713  48.082  41.011  1.00  0.00     0.032 A 
HETATM    7  C   UNL     1      26.376  48.252  40.622  1.00  0.00     0.039 A 
HETATM    8  C   UNL     1      25.948  47.828  39.365  1.00  0.00     0.069 A 
HETATM    9  C   UNL     1      26.832  47.183  38.510  1.00  0.00     0.039 A 
HETATM   10  C   UNL     1      28.160  47.007  38.902  1.00  0.00     0.032 A 
BRANCH   8  11
HETATM   11  O   UNL     1      24.638  48.026  39.028  1.00  0.00    -0.342 OA
BRANCH  11  12
HETATM   12  C   UNL     1      24.471  49.174  38.191  1.00  0.00     0.278 C 
BRANCH  12  13
HETATM   13  C   UNL     1      23.157  49.920  38.429  1.00  0.00     0.241 C 
HETATM   14  N   UNL     1      23.074  50.545  39.655  1.00  0.00    -0.364 N 
HETATM   15  C   UNL     1      21.890  51.256  40.061  1.00  0.00     0.149 C 
HETATM   16  H   UNL     1      23.765  50.284  40.352  1.00  0.00     0.161 HD
HETATM   17  O   UNL     1      22.278  49.988  37.574  1.00  0.00    -0.271 OA
ENDBRANCH  12  13
ENDBRANCH  11  12
ENDBRANCH   8  11
ENDBRANCH   2   5
BRANCH   1  18
HETATM   18  C   UNL     1      31.097  49.407  39.887  1.00  0.00     0.076 C 
HETATM   19  C   UNL     1      31.085  49.984  38.597  1.00  0.00     0.158 C 
HETATM   20  N   UNL     1      30.858  51.297  38.613  1.00  0.00    -0.183 NA
HETATM   21  N   UNL     1      30.612  51.559  39.915  1.00  0.00    -0.268 N 
HETATM   22  C   UNL     1      30.882  50.484  40.737  1.00  0.00     0.052 C 
BRANCH  21  23
HETATM   23  C   UNL     1      30.078  52.865  40.309  1.00  0.00     0.106 C 
HETATM   24  C   UNL     1      31.158  53.839  40.797  1.00  0.00     0.034 C 
BRANCH  23  25
HETATM   25  C   UNL     1      28.894  52.755  41.288  1.00  0.00     0.022 C 
HETATM   26  C   UNL     1      27.714  51.935  40.789  1.00  0.00     0.007 C 
ENDBRANCH  23  25
ENDBRANCH  21  23
BRANCH  22  27
HETATM   27  C   UNL     1      30.920  50.564  42.265  1.00  0.00     0.038 A 
HETATM   28  C   UNL     1      31.761  49.689  43.155  1.00  0.00     0.011 A 
HETATM   29  C   UNL     1      32.208  51.082  42.876  1.00  0.00     0.011 A 
ENDBRANCH  22  27
ENDBRANCH   1  18
TORSDOF 8
ENDMDL
MODEL 10
REMARK VINA RESULT:      -6.6      3.193      8.603
REMARK  8 active torsions:
REMARK  status: ('A' for Active; 'I' for Inactive)
REMARK    1  A    between atoms: C_2  and  C_3 
REMARK    2  A    between atoms: C_3  and  N_4 
REMARK    3  A    between atoms: C_7  and  C_8 
REMARK       I    between atoms: C_8  and  N_9 
REMARK    4  A    between atoms: N_9  and  C_10 
REMARK    5  A    between atoms: C_13  and  O_14 
REMARK    6  A    between atoms: O_14  and  C_15 
REMARK    7  A    between atoms: C_15  and  C_16 
REMARK       I    between atoms: C_16  and  N_17 
REMARK    8  A    between atoms: C_23  and  C_24 
ROOT
HETATM    1  C   UNL     1      26.769  42.522  48.981  1.00  0.00     0.259 C 
HETATM    2  N   UNL     1      25.507  42.346  48.469  1.00  0.00    -0.323 N 
HETATM    3  O   UNL     1      27.684  41.935  48.399  1.00  0.00    -0.267 OA
HETATM    4  H   UNL     1      25.550  41.666  47.719  1.00  0.00     0.169 HD
ENDROOT
BRANCH   2   5
HETATM    5  C   UNL     1      24.251  42.928  48.691  1.00  0.00     0.035 A 
HETATM    6  C   UNL     1      23.625  43.059  49.929  1.00  0.00     0.032 A 
HETATM    7  C   UNL     1      22.385  43.706  50.027  1.00  0.00     0.039 A 
HETATM    8  C   UNL     1      21.786  44.255  48.894  1.00  0.00     0.069 A 
HETATM    9  C   UNL     1      22.389  44.116  47.651  1.00  0.00     0.039 A 
HETATM   10  C   UNL     1      23.618  43.463  47.555  1.00  0.00     0.032 A 
BRANCH   8  11
HETATM   11  O   UNL     1      20.582  44.886  49.042  1.00  0.00    -0.342 OA
BRANCH  11  12
HETATM   12  C   UNL     1      20.487  46.053  48.219  1.00  0.00     0.278 C 
BRANCH  12  13
HETATM   13  C   UNL     1      20.303  47.348  49.012  1.00  0.00     0.241 C 
HETATM   14  N   UNL     1      19.151  47.390  49.768  1.00  0.00    -0.364 N 
HETATM   15  C   UNL     1      18.798  48.552  50.541  1.00  0.00     0.149 C 
HETATM   16  H   UNL     1      18.444  46.689  49.570  1.00  0.00     0.161 HD
HETATM   17  O   UNL     1      21.141  48.246  49.005  1.00  0.00    -0.271 OA
ENDBRANCH  12  13
ENDBRANCH  11  12
ENDBRANCH   8  11
ENDBRANCH   2   5
BRANCH   1  18
HETATM   18  C   UNL     1      27.012  43.229  50.217  1.00  0.00     0.076 C 
HETATM   19  C   UNL     1      26.941  44.628  50.405  1.00  0.00     0.158 C 
HETATM   20  N   UNL     1      27.016  44.988  51.686  1.00  0.00    -0.183 NA
HETATM   21  N   UNL     1      27.027  43.810  52.346  1.00  0.00    -0.268 N 
HETATM   22  C   UNL     1      27.168  42.726  51.502  1.00  0.00     0.052 C 
BRANCH  21  23
HETATM   23  C   UNL     1      26.859  43.785  53.801  1.00  0.00     0.106 C 
HETATM   24  C   UNL     1      25.437  44.140  54.253  1.00  0.00     0.034 C 
BRANCH  23  25
HETATM   25  C   UNL     1      27.936  44.601  54.540  1.00  0.00     0.022 C 
HETATM   26  C   UNL     1      29.314  43.958  54.593  1.00  0.00     0.007 C 
ENDBRANCH  23  25
ENDBRANCH  21  23
BRANCH  22  27
HETATM   27  C   UNL     1      27.444  41.299  51.982  1.00  0.00     0.038 A 
HETATM   28  C   UNL     1      28.393  40.335  51.322  1.00  0.00     0.011 A 
HETATM   29  C   UNL     1      28.824  41.043  52.559  1.00  0.00     0.011 A 
ENDBRANCH  22  27
ENDBRANCH   1  18
TORSDOF 8
ENDMDL
