MODEL 1
REMARK VINA RESULT:      -8.5      0.000      0.000
REMARK  6 active torsions:
REMARK  status: ('A' for Active; 'I' for Inactive)
REMARK    1  A    between atoms: O_2  and  C_3 
REMARK    2  A    between atoms: C_6  and  S_7 
REMARK    3  A    between atoms: S_7  and  C_8 
REMARK    4  A    between atoms: C_11  and  N_12 
REMARK       I    between atoms: N_12  and  C_13 
REMARK    5  A    between atoms: C_13  and  C_14 
REMARK    6  A    between atoms: C_14  and  C_15 
ROOT
HETATM    1  C   UNL     1      26.658  44.715  51.639  1.00  0.00     0.005 A 
HETATM    2  C   UNL     1      27.093  44.945  50.333  1.00  0.00     0.021 A 
HETATM    3  C   UNL     1      26.728  46.114  49.653  1.00  0.00     0.031 A 
HETATM    4  C   UNL     1      25.907  47.061  50.265  1.00  0.00     0.034 A 
HETATM    5  C   UNL     1      25.479  46.832  51.579  1.00  0.00     0.031 A 
HETATM    6  C   UNL     1      25.852  45.668  52.263  1.00  0.00     0.021 A 
ENDROOT
BRANCH   4   7
HETATM    7  N   UNL     1      25.432  48.224  49.622  1.00  0.00    -0.327 N 
HETATM    8  C   UNL     1      24.129  48.504  49.246  1.00  0.00     0.227 C 
HETATM    9  O   UNL     1      23.184  47.715  49.262  1.00  0.00    -0.273 OA
HETATM   10  H   UNL     1      26.131  48.922  49.398  1.00  0.00     0.169 HD
BRANCH   8  11
HETATM   11  C   UNL     1      23.931  49.944  48.776  1.00  0.00     0.159 C 
BRANCH  11  12
HETATM   12  C   UNL     1      22.537  50.422  49.022  1.00  0.00     0.017 A 
HETATM   13  N   UNL     1      21.958  50.385  50.272  1.00  0.00    -0.369 N 
HETATM   14  H   UNL     1      22.404  50.010  51.104  1.00  0.00     0.165 HD
HETATM   15  C   UNL     1      20.694  50.909  50.208  1.00  0.00     0.088 A 
HETATM   16  C   UNL     1      20.461  51.304  48.911  1.00  0.00     0.019 A 
HETATM   17  C   UNL     1      21.622  50.999  48.162  1.00  0.00     0.027 A 
ENDBRANCH  11  12
ENDBRANCH   8  11
ENDBRANCH   4   7
BRANCH   1  18
HETATM   18  S   UNL     1      27.041  43.176  52.444  1.00  0.00    -0.091 SA
BRANCH  18  19
HETATM   19  C   UNL     1      28.215  43.625  53.710  1.00  0.00     0.005 A 
HETATM   20  C   UNL     1      29.329  42.799  53.891  1.00  0.00     0.021 A 
HETATM   21  C   UNL     1      30.323  43.134  54.815  1.00  0.00     0.038 A 
HETATM   22  C   UNL     1      30.228  44.307  55.564  1.00  0.00     0.068 A 
HETATM   23  C   UNL     1      29.115  45.130  55.399  1.00  0.00     0.038 A 
HETATM   24  C   UNL     1      28.118  44.793  54.472  1.00  0.00     0.021 A 
BRANCH  22  25
HETATM   25  O   UNL     1      31.276  44.531  56.413  1.00  0.00    -0.356 OA
HETATM   26  C   UNL     1      31.763  43.408  57.136  1.00  0.00     0.210 C 
ENDBRANCH  22  25
ENDBRANCH  18  19
ENDBRANCH   1  18
TORSDOF 6
ENDMDL
MODEL 2
REMARK VINA RESULT:      -8.5      1.387      1.593
REMARK  6 active torsions:
REMARK  status: ('A' for Active; 'I' for Inactive)
REMARK    1  A    between atoms: O_2  and  C_3 
REMARK    2  A    between atoms: C_6  and  S_7 
REMARK    3  A    between atoms: S_7  and  C_8 
REMARK    4  A    between atoms: C_11  and  N_12 
REMARK       I    between atoms: N_12  and  C_13 
REMARK    5  A    between atoms: C_13  and  C_14 
REMARK    6  A    between atoms: C_14  and  C_15 
ROOT
HETATM    1  C   UNL     1      27.042  43.631  51.795  1.00  0.00     0.005 A 
HETATM    2  C   UNL     1      27.452  44.367  50.682  1.00  0.00     0.021 A 
HETATM    3  C   UNL     1      26.532  45.123  49.946  1.00  0.00     0.031 A 
HETATM    4  C   UNL     1      25.183  45.140  50.304  1.00  0.00     0.034 A 
HETATM    5  C   UNL     1      24.775  44.408  51.426  1.00  0.00     0.031 A 
HETATM    6  C   UNL     1      25.697  43.659  52.168  1.00  0.00     0.021 A 
ENDROOT
BRANCH   4   7
HETATM    7  N   UNL     1      24.183  45.813  49.570  1.00  0.00    -0.327 N 
HETATM    8  C   UNL     1      23.899  47.168  49.581  1.00  0.00     0.227 C 
HETATM    9  O   UNL     1      24.364  48.000  50.360  1.00  0.00    -0.273 OA
HETATM   10  H   UNL     1      23.601  45.230  48.981  1.00  0.00     0.169 HD
BRANCH   8  11
HETATM   11  C   UNL     1      22.904  47.586  48.501  1.00  0.00     0.159 C 
BRANCH  11  12
HETATM   12  C   UNL     1      22.444  48.997  48.685  1.00  0.00     0.017 A 
HETATM   13  N   UNL     1      21.760  49.404  49.810  1.00  0.00    -0.369 N 
HETATM   14  H   UNL     1      21.489  48.793  50.575  1.00  0.00     0.165 HD
HETATM   15  C   UNL     1      21.491  50.745  49.722  1.00  0.00     0.088 A 
HETATM   16  C   UNL     1      22.020  51.210  48.541  1.00  0.00     0.019 A 
HETATM   17  C   UNL     1      22.622  50.109  47.885  1.00  0.00     0.027 A 
ENDBRANCH  11  12
ENDBRANCH   8  11
ENDBRANCH   4   7
BRANCH   1  18
HETATM   18  S   UNL     1      28.203  42.590  52.649  1.00  0.00    -0.091 SA
BRANCH  18  19
HETATM   19  C   UNL     1      28.793  43.604  53.993  1.00  0.00     0.005 A 
HETATM   20  C   UNL     1      29.983  43.225  54.624  1.00  0.00     0.021 A 
HETATM   21  C   UNL     1      30.537  44.017  55.635  1.00  0.00     0.038 A 
HETATM   22  C   UNL     1      29.920  45.206  56.023  1.00  0.00     0.068 A 
HETATM   23  C   UNL     1      28.727  45.584  55.408  1.00  0.00     0.038 A 
HETATM   24  C   UNL     1      28.172  44.790  54.395  1.00  0.00     0.021 A 
BRANCH  22  25
HETATM   25  O   UNL     1      30.575  45.898  57.003  1.00  0.00    -0.356 OA
HETATM   26  C   UNL     1      30.512  45.358  58.317  1.00  0.00     0.210 C 
ENDBRANCH  22  25
ENDBRANCH  18  19
ENDBRANCH   1  18
TORSDOF 6
ENDMDL
MODEL 3
REMARK VINA RESULT:      -7.8      3.135      9.886
REMARK  6 active torsions:
REMARK  status: ('A' for Active; 'I' for Inactive)
REMARK    1  A    between atoms: O_2  and  C_3 
REMARK    2  A    between atoms: C_6  and  S_7 
REMARK    3  A    between atoms: S_7  and  C_8 
REMARK    4  A    between atoms: C_11  and  N_12 
REMARK       I    between atoms: N_12  and  C_13 
REMARK    5  A    between atoms: C_13  and  C_14 
REMARK    6  A    between atoms: C_14  and  C_15 
ROOT
HETATM    1  C   UNL     1      24.564  49.032  48.825  1.00  0.00     0.005 A 
HETATM    2  C   UNL     1      25.934  49.056  49.092  1.00  0.00     0.021 A 
HETATM    3  C   UNL     1      26.517  48.093  49.924  1.00  0.00     0.031 A 
HETATM    4  C   UNL     1      25.734  47.100  50.515  1.00  0.00     0.034 A 
HETATM    5  C   UNL     1      24.361  47.073  50.239  1.00  0.00     0.031 A 
HETATM    6  C   UNL     1      23.779  48.030  49.399  1.00  0.00     0.021 A 
ENDROOT
BRANCH   4   7
HETATM    7  N   UNL     1      26.231  46.143  51.425  1.00  0.00    -0.327 N 
HETATM    8  C   UNL     1      26.167  46.185  52.808  1.00  0.00     0.227 C 
HETATM    9  O   UNL     1      25.808  47.145  53.489  1.00  0.00    -0.273 OA
HETATM   10  H   UNL     1      26.701  45.346  51.014  1.00  0.00     0.169 HD
BRANCH   8  11
HETATM   11  C   UNL     1      26.604  44.881  53.473  1.00  0.00     0.159 C 
BRANCH  11  12
HETATM   12  C   UNL     1      27.782  45.083  54.372  1.00  0.00     0.017 A 
HETATM   13  N   UNL     1      27.876  46.159  55.227  1.00  0.00    -0.369 N 
HETATM   14  H   UNL     1      27.188  46.904  55.297  1.00  0.00     0.165 HD
HETATM   15  C   UNL     1      29.039  46.074  55.945  1.00  0.00     0.088 A 
HETATM   16  C   UNL     1      29.694  44.925  55.563  1.00  0.00     0.019 A 
HETATM   17  C   UNL     1      28.902  44.298  54.571  1.00  0.00     0.027 A 
ENDBRANCH  11  12
ENDBRANCH   8  11
ENDBRANCH   4   7
BRANCH   1  18
HETATM   18  S   UNL     1      23.825  50.326  47.856  1.00  0.00    -0.091 SA
BRANCH  18  19
HETATM   19  C   UNL     1      22.169  50.468  48.503  1.00  0.00     0.005 A 
HETATM   20  C   UNL     1      22.021  50.844  49.842  1.00  0.00     0.021 A 
HETATM   21  C   UNL     1      20.750  51.044  50.390  1.00  0.00     0.038 A 
HETATM   22  C   UNL     1      19.607  50.884  49.606  1.00  0.00     0.068 A 
HETATM   23  C   UNL     1      19.746  50.497  48.274  1.00  0.00     0.038 A 
HETATM   24  C   UNL     1      21.020  50.296  47.725  1.00  0.00     0.021 A 
BRANCH  22  25
HETATM   25  O   UNL     1      18.429  51.132  50.253  1.00  0.00    -0.356 OA
HETATM   26  C   UNL     1      17.730  52.312  49.877  1.00  0.00     0.210 C 
ENDBRANCH  22  25
ENDBRANCH  18  19
ENDBRANCH   1  18
TORSDOF 6
ENDMDL
MODEL 4
REMARK VINA RESULT:      -7.5      1.902      2.206
REMARK  6 active torsions:
REMARK  status: ('A' for Active; 'I' for Inactive)
REMARK    1  A    between atoms: O_2  and  C_3 
REMARK    2  A    between atoms: C_6  and  S_7 
REMARK    3  A    between atoms: S_7  and  C_8 
REMARK    4  A    between atoms: C_11  and  N_12 
REMARK       I    between atoms: N_12  and  C_13 
REMARK    5  A    between atoms: C_13  and  C_14 
REMARK    6  A    between atoms: C_14  and  C_15 
ROOT
HETATM    1  C   UNL     1      26.507  43.968  51.109  1.00  0.00     0.005 A 
HETATM    2  C   UNL     1      27.034  44.839  50.154  1.00  0.00     0.021 A 
HETATM    3  C   UNL     1      26.303  45.952  49.720  1.00  0.00     0.031 A 
HETATM    4  C   UNL     1      25.027  46.202  50.226  1.00  0.00     0.034 A 
HETATM    5  C   UNL     1      24.503  45.332  51.191  1.00  0.00     0.031 A 
HETATM    6  C   UNL     1      25.237  44.223  51.632  1.00  0.00     0.021 A 
ENDROOT
BRANCH   4   7
HETATM    7  N   UNL     1      24.198  47.255  49.784  1.00  0.00    -0.327 N 
HETATM    8  C   UNL     1      23.129  47.173  48.909  1.00  0.00     0.227 C 
HETATM    9  O   UNL     1      22.816  46.191  48.235  1.00  0.00    -0.273 OA
HETATM   10  H   UNL     1      24.426  48.175  50.140  1.00  0.00     0.169 HD
BRANCH   8  11
HETATM   11  C   UNL     1      22.316  48.464  48.824  1.00  0.00     0.159 C 
BRANCH  11  12
HETATM   12  C   UNL     1      20.849  48.191  48.731  1.00  0.00     0.017 A 
HETATM   13  N   UNL     1      20.042  48.123  49.846  1.00  0.00    -0.369 N 
HETATM   14  H   UNL     1      20.370  48.218  50.803  1.00  0.00     0.165 HD
HETATM   15  C   UNL     1      18.748  47.891  49.462  1.00  0.00     0.088 A 
HETATM   16  C   UNL     1      18.715  47.826  48.089  1.00  0.00     0.019 A 
HETATM   17  C   UNL     1      20.039  48.016  47.625  1.00  0.00     0.027 A 
ENDBRANCH  11  12
ENDBRANCH   8  11
ENDBRANCH   4   7
BRANCH   1  18
HETATM   18  S   UNL     1      27.402  42.501  51.565  1.00  0.00    -0.091 SA
BRANCH  18  19
HETATM   19  C   UNL     1      28.498  43.042  52.864  1.00  0.00     0.005 A 
HETATM   20  C   UNL     1      28.042  44.041  53.730  1.00  0.00     0.021 A 
HETATM   21  C   UNL     1      28.823  44.458  54.812  1.00  0.00     0.038 A 
HETATM   22  C   UNL     1      30.066  43.873  55.056  1.00  0.00     0.068 A 
HETATM   23  C   UNL     1      30.533  42.885  54.190  1.00  0.00     0.038 A 
HETATM   24  C   UNL     1      29.750  42.469  53.105  1.00  0.00     0.021 A 
BRANCH  22  25
HETATM   25  O   UNL     1      30.718  44.351  56.158  1.00  0.00    -0.356 OA
HETATM   26  C   UNL     1      30.373  45.664  56.584  1.00  0.00     0.210 C 
ENDBRANCH  22  25
ENDBRANCH  18  19
ENDBRANCH   1  18
TORSDOF 6
ENDMDL
MODEL 5
REMARK VINA RESULT:      -7.3      6.872     11.135
REMARK  6 active torsions:
REMARK  status: ('A' for Active; 'I' for Inactive)
REMARK    1  A    between atoms: O_2  and  C_3 
REMARK    2  A    between atoms: C_6  and  S_7 
REMARK    3  A    between atoms: S_7  and  C_8 
REMARK    4  A    between atoms: C_11  and  N_12 
REMARK       I    between atoms: N_12  and  C_13 
REMARK    5  A    between atoms: C_13  and  C_14 
REMARK    6  A    between atoms: C_14  and  C_15 
ROOT
HETATM    1  C   UNL     1      17.799  51.305  47.837  1.00  0.00     0.005 A 
HETATM    2  C   UNL     1      16.404  51.253  47.840  1.00  0.00     0.021 A 
HETATM    3  C   UNL     1      15.665  51.954  48.801  1.00  0.00     0.031 A 
HETATM    4  C   UNL     1      16.312  52.705  49.784  1.00  0.00     0.034 A 
HETATM    5  C   UNL     1      17.712  52.762  49.773  1.00  0.00     0.031 A 
HETATM    6  C   UNL     1      18.451  52.069  48.807  1.00  0.00     0.021 A 
ENDROOT
BRANCH   4   7
HETATM    7  N   UNL     1      15.644  53.374  50.831  1.00  0.00    -0.327 N 
HETATM    8  C   UNL     1      15.149  54.667  50.822  1.00  0.00     0.227 C 
HETATM    9  O   UNL     1      15.352  55.515  49.953  1.00  0.00    -0.273 OA
HETATM   10  H   UNL     1      15.529  52.848  51.688  1.00  0.00     0.169 HD
BRANCH   8  11
HETATM   11  C   UNL     1      14.287  54.993  52.040  1.00  0.00     0.159 C 
BRANCH  11  12
HETATM   12  C   UNL     1      14.891  56.076  52.874  1.00  0.00     0.017 A 
HETATM   13  N   UNL     1      15.752  55.807  53.915  1.00  0.00    -0.369 N 
HETATM   14  H   UNL     1      16.020  54.875  54.218  1.00  0.00     0.165 HD
HETATM   15  C   UNL     1      16.170  56.982  54.481  1.00  0.00     0.088 A 
HETATM   16  C   UNL     1      15.587  58.019  53.790  1.00  0.00     0.019 A 
HETATM   17  C   UNL     1      14.781  57.450  52.775  1.00  0.00     0.027 A 
ENDBRANCH  11  12
ENDBRANCH   8  11
ENDBRANCH   4   7
BRANCH   1  18
HETATM   18  S   UNL     1      18.721  50.321  46.679  1.00  0.00    -0.091 SA
BRANCH  18  19
HETATM   19  C   UNL     1      20.168  49.814  47.589  1.00  0.00     0.005 A 
HETATM   20  C   UNL     1      21.252  50.696  47.639  1.00  0.00     0.021 A 
HETATM   21  C   UNL     1      22.387  50.390  48.396  1.00  0.00     0.038 A 
HETATM   22  C   UNL     1      22.452  49.204  49.128  1.00  0.00     0.068 A 
HETATM   23  C   UNL     1      21.381  48.313  49.074  1.00  0.00     0.038 A 
HETATM   24  C   UNL     1      20.244  48.620  48.314  1.00  0.00     0.021 A 
BRANCH  22  25
HETATM   25  O   UNL     1      23.604  49.035  49.844  1.00  0.00    -0.356 OA
HETATM   26  C   UNL     1      24.735  48.550  49.131  1.00  0.00     0.210 C 
ENDBRANCH  22  25
ENDBRANCH  18  19
ENDBRANCH   1  18
TORSDOF 6
ENDMDL
MODEL 6
REMARK VINA RESULT:      -7.3      3.246      9.927
REMARK  6 active torsions:
REMARK  status: ('A' for Active; 'I' for Inactive)
REMARK    1  A    between atoms: O_2  and  C_3 
REMARK    2  A    between atoms: C_6  and  S_7 
REMARK    3  A    between atoms: S_7  and  C_8 
REMARK    4  A    between atoms: C_11  and  N_12 
REMARK       I    between atoms: N_12  and  C_13 
REMARK    5  A    between atoms: C_13  and  C_14 
REMARK    6  A    between atoms: C_14  and  C_15 
ROOT
HETATM    1  C   UNL     1      23.648  46.543  49.536  1.00  0.00     0.005 A 
HETATM    2  C   UNL     1      23.699  45.212  49.953  1.00  0.00     0.021 A 
HETATM    3  C   UNL     1      24.477  44.838  51.056  1.00  0.00     0.031 A 
HETATM    4  C   UNL     1      25.229  45.789  51.747  1.00  0.00     0.034 A 
HETATM    5  C   UNL     1      25.169  47.125  51.332  1.00  0.00     0.031 A 
HETATM    6  C   UNL     1      24.384  47.502  50.235  1.00  0.00     0.021 A 
ENDROOT
BRANCH   4   7
HETATM    7  N   UNL     1      26.096  45.480  52.816  1.00  0.00    -0.327 N 
HETATM    8  C   UNL     1      25.809  44.726  53.941  1.00  0.00     0.227 C 
HETATM    9  O   UNL     1      24.695  44.329  54.284  1.00  0.00    -0.273 OA
HETATM   10  H   UNL     1      27.029  45.870  52.755  1.00  0.00     0.169 HD
BRANCH   8  11
HETATM   11  C   UNL     1      27.041  44.404  54.785  1.00  0.00     0.159 C 
BRANCH  11  12
HETATM   12  C   UNL     1      27.858  43.308  54.180  1.00  0.00     0.017 A 
HETATM   13  N   UNL     1      27.288  42.149  53.697  1.00  0.00    -0.369 N 
HETATM   14  H   UNL     1      26.297  41.932  53.738  1.00  0.00     0.165 HD
HETATM   15  C   UNL     1      28.264  41.340  53.179  1.00  0.00     0.088 A 
HETATM   16  C   UNL     1      29.471  41.988  53.311  1.00  0.00     0.019 A 
HETATM   17  C   UNL     1      29.216  43.229  53.941  1.00  0.00     0.027 A 
ENDBRANCH  11  12
ENDBRANCH   8  11
ENDBRANCH   4   7
BRANCH   1  18
HETATM   18  S   UNL     1      22.743  46.979  48.069  1.00  0.00    -0.091 SA
BRANCH  18  19
HETATM   19  C   UNL     1      21.837  48.444  48.532  1.00  0.00     0.005 A 
HETATM   20  C   UNL     1      22.365  49.685  48.162  1.00  0.00     0.021 A 
HETATM   21  C   UNL     1      21.667  50.866  48.430  1.00  0.00     0.038 A 
HETATM   22  C   UNL     1      20.424  50.827  49.062  1.00  0.00     0.068 A 
HETATM   23  C   UNL     1      19.896  49.595  49.446  1.00  0.00     0.038 A 
HETATM   24  C   UNL     1      20.596  48.411  49.177  1.00  0.00     0.021 A 
BRANCH  22  25
HETATM   25  O   UNL     1      19.835  52.047  49.244  1.00  0.00    -0.356 OA
HETATM   26  C   UNL     1      18.880  52.447  48.270  1.00  0.00     0.210 C 
ENDBRANCH  22  25
ENDBRANCH  18  19
ENDBRANCH   1  18
TORSDOF 6
ENDMDL
MODEL 7
REMARK VINA RESULT:      -7.1      3.249      9.842
REMARK  6 active torsions:
REMARK  status: ('A' for Active; 'I' for Inactive)
REMARK    1  A    between atoms: O_2  and  C_3 
REMARK    2  A    between atoms: C_6  and  S_7 
REMARK    3  A    between atoms: S_7  and  C_8 
REMARK    4  A    between atoms: C_11  and  N_12 
REMARK       I    between atoms: N_12  and  C_13 
REMARK    5  A    between atoms: C_13  and  C_14 
REMARK    6  A    between atoms: C_14  and  C_15 
ROOT
HETATM    1  C   UNL     1      24.539  48.838  48.846  1.00  0.00     0.005 A 
HETATM    2  C   UNL     1      25.833  48.657  49.339  1.00  0.00     0.021 A 
HETATM    3  C   UNL     1      26.186  47.476  50.004  1.00  0.00     0.031 A 
HETATM    4  C   UNL     1      25.244  46.465  50.199  1.00  0.00     0.034 A 
HETATM    5  C   UNL     1      23.949  46.645  49.695  1.00  0.00     0.031 A 
HETATM    6  C   UNL     1      23.598  47.822  49.022  1.00  0.00     0.021 A 
ENDROOT
BRANCH   4   7
HETATM    7  N   UNL     1      25.498  45.281  50.924  1.00  0.00    -0.327 N 
HETATM    8  C   UNL     1      26.539  44.387  50.736  1.00  0.00     0.227 C 
HETATM    9  O   UNL     1      27.331  44.384  49.794  1.00  0.00    -0.273 OA
HETATM   10  H   UNL     1      24.833  45.059  51.654  1.00  0.00     0.169 HD
BRANCH   8  11
HETATM   11  C   UNL     1      26.640  43.336  51.840  1.00  0.00     0.159 C 
BRANCH  11  12
HETATM   12  C   UNL     1      27.581  43.757  52.923  1.00  0.00     0.017 A 
HETATM   13  N   UNL     1      28.758  43.086  53.173  1.00  0.00    -0.369 N 
HETATM   14  H   UNL     1      29.066  42.253  52.679  1.00  0.00     0.165 HD
HETATM   15  C   UNL     1      29.430  43.704  54.194  1.00  0.00     0.088 A 
HETATM   16  C   UNL     1      28.689  44.792  54.596  1.00  0.00     0.019 A 
HETATM   17  C   UNL     1      27.523  44.827  53.794  1.00  0.00     0.027 A 
ENDBRANCH  11  12
ENDBRANCH   8  11
ENDBRANCH   4   7
BRANCH   1  18
HETATM   18  S   UNL     1      24.081  50.387  48.104  1.00  0.00    -0.091 SA
BRANCH  18  19
HETATM   19  C   UNL     1      22.407  50.659  48.657  1.00  0.00     0.005 A 
HETATM   20  C   UNL     1      21.384  50.580  47.707  1.00  0.00     0.021 A 
HETATM   21  C   UNL     1      20.045  50.710  48.088  1.00  0.00     0.038 A 
HETATM   22  C   UNL     1      19.705  50.908  49.426  1.00  0.00     0.068 A 
HETATM   23  C   UNL     1      20.719  51.001  50.378  1.00  0.00     0.038 A 
HETATM   24  C   UNL     1      22.061  50.871  49.995  1.00  0.00     0.021 A 
BRANCH  22  25
HETATM   25  O   UNL     1      18.363  50.995  49.669  1.00  0.00    -0.356 OA
HETATM   26  C   UNL     1      17.530  50.055  49.001  1.00  0.00     0.210 C 
ENDBRANCH  22  25
ENDBRANCH  18  19
ENDBRANCH   1  18
TORSDOF 6
ENDMDL
MODEL 8
REMARK VINA RESULT:      -7.0      8.404     13.384
REMARK  6 active torsions:
REMARK  status: ('A' for Active; 'I' for Inactive)
REMARK    1  A    between atoms: O_2  and  C_3 
REMARK    2  A    between atoms: C_6  and  S_7 
REMARK    3  A    between atoms: S_7  and  C_8 
REMARK    4  A    between atoms: C_11  and  N_12 
REMARK       I    between atoms: N_12  and  C_13 
REMARK    5  A    between atoms: C_13  and  C_14 
REMARK    6  A    between atoms: C_14  and  C_15 
ROOT
HETATM    1  C   UNL     1      15.608  52.873  49.030  1.00  0.00     0.005 A 
HETATM    2  C   UNL     1      15.548  51.657  48.347  1.00  0.00     0.021 A 
HETATM    3  C   UNL     1      16.634  50.773  48.363  1.00  0.00     0.031 A 
HETATM    4  C   UNL     1      17.804  51.101  49.051  1.00  0.00     0.034 A 
HETATM    5  C   UNL     1      17.858  52.318  49.743  1.00  0.00     0.031 A 
HETATM    6  C   UNL     1      16.769  53.198  49.735  1.00  0.00     0.021 A 
ENDROOT
BRANCH   4   7
HETATM    7  N   UNL     1      18.967  50.302  49.050  1.00  0.00    -0.327 N 
HETATM    8  C   UNL     1      19.208  49.168  49.807  1.00  0.00     0.227 C 
HETATM    9  O   UNL     1      18.512  48.752  50.734  1.00  0.00    -0.273 OA
HETATM   10  H   UNL     1      19.711  50.607  48.435  1.00  0.00     0.169 HD
BRANCH   8  11
HETATM   11  C   UNL     1      20.477  48.424  49.394  1.00  0.00     0.159 C 
BRANCH  11  12
HETATM   12  C   UNL     1      21.562  49.365  48.980  1.00  0.00     0.017 A 
HETATM   13  N   UNL     1      22.194  50.198  49.878  1.00  0.00    -0.369 N 
HETATM   14  H   UNL     1      21.962  50.266  50.865  1.00  0.00     0.165 HD
HETATM   15  C   UNL     1      23.158  50.923  49.231  1.00  0.00     0.088 A 
HETATM   16  C   UNL     1      23.163  50.543  47.908  1.00  0.00     0.019 A 
HETATM   17  C   UNL     1      22.158  49.560  47.748  1.00  0.00     0.027 A 
ENDBRANCH  11  12
ENDBRANCH   8  11
ENDBRANCH   4   7
BRANCH   1  18
HETATM   18  S   UNL     1      14.263  54.028  48.907  1.00  0.00    -0.091 SA
BRANCH  18  19
HETATM   19  C   UNL     1      14.469  55.094  50.322  1.00  0.00     0.005 A 
HETATM   20  C   UNL     1      14.082  54.603  51.572  1.00  0.00     0.021 A 
HETATM   21  C   UNL     1      14.285  55.359  52.731  1.00  0.00     0.038 A 
HETATM   22  C   UNL     1      14.891  56.614  52.660  1.00  0.00     0.068 A 
HETATM   23  C   UNL     1      15.269  57.117  51.416  1.00  0.00     0.038 A 
HETATM   24  C   UNL     1      15.064  56.358  50.255  1.00  0.00     0.021 A 
BRANCH  22  25
HETATM   25  O   UNL     1      15.054  57.240  53.864  1.00  0.00    -0.356 OA
HETATM   26  C   UNL     1      16.262  56.971  54.565  1.00  0.00     0.210 C 
ENDBRANCH  22  25
ENDBRANCH  18  19
ENDBRANCH   1  18
TORSDOF 6
ENDMDL
MODEL 9
REMARK VINA RESULT:      -6.9      3.481      9.913
REMARK  6 active torsions:
REMARK  status: ('A' for Active; 'I' for Inactive)
REMARK    1  A    between atoms: O_2  and  C_3 
REMARK    2  A    between atoms: C_6  and  S_7 
REMARK    3  A    between atoms: S_7  and  C_8 
REMARK    4  A    between atoms: C_11  and  N_12 
REMARK       I    between atoms: N_12  and  C_13 
REMARK    5  A    between atoms: C_13  and  C_14 
REMARK    6  A    between atoms: C_14  and  C_15 
ROOT
HETATM    1  C   UNL     1      22.071  46.840  48.338  1.00  0.00     0.005 A 
HETATM    2  C   UNL     1      22.855  47.804  48.974  1.00  0.00     0.021 A 
HETATM    3  C   UNL     1      23.998  47.435  49.695  1.00  0.00     0.031 A 
HETATM    4  C   UNL     1      24.363  46.093  49.803  1.00  0.00     0.034 A 
HETATM    5  C   UNL     1      23.580  45.128  49.156  1.00  0.00     0.031 A 
HETATM    6  C   UNL     1      22.443  45.497  48.428  1.00  0.00     0.021 A 
ENDROOT
BRANCH   4   7
HETATM    7  N   UNL     1      25.453  45.634  50.573  1.00  0.00    -0.327 N 
HETATM    8  C   UNL     1      25.403  44.929  51.763  1.00  0.00     0.227 C 
HETATM    9  O   UNL     1      24.398  44.720  52.442  1.00  0.00    -0.273 OA
HETATM   10  H   UNL     1      26.373  45.864  50.217  1.00  0.00     0.169 HD
BRANCH   8  11
HETATM   11  C   UNL     1      26.765  44.398  52.209  1.00  0.00     0.159 C 
BRANCH  11  12
HETATM   12  C   UNL     1      27.264  45.104  53.429  1.00  0.00     0.017 A 
HETATM   13  N   UNL     1      26.721  46.295  53.861  1.00  0.00    -0.369 N 
HETATM   14  H   UNL     1      25.979  46.798  53.385  1.00  0.00     0.165 HD
HETATM   15  C   UNL     1      27.350  46.695  55.010  1.00  0.00     0.088 A 
HETATM   16  C   UNL     1      28.294  45.747  55.333  1.00  0.00     0.019 A 
HETATM   17  C   UNL     1      28.240  44.743  54.337  1.00  0.00     0.027 A 
ENDBRANCH  11  12
ENDBRANCH   8  11
ENDBRANCH   4   7
BRANCH   1  18
HETATM   18  S   UNL     1      20.565  47.317  47.523  1.00  0.00    -0.091 SA
BRANCH  18  19
HETATM   19  C   UNL     1      20.007  48.746  48.433  1.00  0.00     0.005 A 
HETATM   20  C   UNL     1      20.080  49.992  47.802  1.00  0.00     0.021 A 
HETATM   21  C   UNL     1      19.592  51.140  48.433  1.00  0.00     0.038 A 
HETATM   22  C   UNL     1      19.009  51.061  49.698  1.00  0.00     0.068 A 
HETATM   23  C   UNL     1      18.944  49.824  50.339  1.00  0.00     0.038 A 
HETATM   24  C   UNL     1      19.435  48.674  49.706  1.00  0.00     0.021 A 
BRANCH  22  25
HETATM   25  O   UNL     1      18.550  52.249  50.193  1.00  0.00    -0.356 OA
HETATM   26  C   UNL     1      17.350  52.757  49.622  1.00  0.00     0.210 C 
ENDBRANCH  22  25
ENDBRANCH  18  19
ENDBRANCH   1  18
TORSDOF 6
ENDMDL
MODEL 10
REMARK VINA RESULT:      -6.9     18.673     21.647
REMARK  6 active torsions:
REMARK  status: ('A' for Active; 'I' for Inactive)
REMARK    1  A    between atoms: O_2  and  C_3 
REMARK    2  A    between atoms: C_6  and  S_7 
REMARK    3  A    between atoms: S_7  and  C_8 
REMARK    4  A    between atoms: C_11  and  N_12 
REMARK       I    between atoms: N_12  and  C_13 
REMARK    5  A    between atoms: C_13  and  C_14 
REMARK    6  A    between atoms: C_14  and  C_15 
ROOT
HETATM    1  C   UNL     1      38.345  41.570  63.575  1.00  0.00     0.005 A 
HETATM    2  C   UNL     1      38.878  40.992  62.422  1.00  0.00     0.021 A 
HETATM    3  C   UNL     1      39.648  39.825  62.498  1.00  0.00     0.031 A 
HETATM    4  C   UNL     1      39.911  39.229  63.732  1.00  0.00     0.034 A 
HETATM    5  C   UNL     1      39.368  39.806  64.887  1.00  0.00     0.031 A 
HETATM    6  C   UNL     1      38.590  40.968  64.811  1.00  0.00     0.021 A 
ENDROOT
BRANCH   4   7
HETATM    7  N   UNL     1      40.741  38.100  63.899  1.00  0.00    -0.327 N 
HETATM    8  C   UNL     1      41.997  38.058  64.481  1.00  0.00     0.227 C 
HETATM    9  O   UNL     1      42.678  39.031  64.807  1.00  0.00    -0.273 OA
HETATM   10  H   UNL     1      40.377  37.227  63.537  1.00  0.00     0.169 HD
BRANCH   8  11
HETATM   11  C   UNL     1      42.515  36.638  64.699  1.00  0.00     0.159 C 
BRANCH  11  12
HETATM   12  C   UNL     1      41.622  35.853  65.604  1.00  0.00     0.017 A 
HETATM   13  N   UNL     1      41.590  34.476  65.590  1.00  0.00    -0.369 N 
HETATM   14  H   UNL     1      42.132  33.891  64.960  1.00  0.00     0.165 HD
HETATM   15  C   UNL     1      40.707  34.028  66.537  1.00  0.00     0.088 A 
HETATM   16  C   UNL     1      40.178  35.123  67.180  1.00  0.00     0.019 A 
HETATM   17  C   UNL     1      40.754  36.275  66.594  1.00  0.00     0.027 A 
ENDBRANCH  11  12
ENDBRANCH   8  11
ENDBRANCH   4   7
BRANCH   1  18
HETATM   18  S   UNL     1      37.463  43.110  63.471  1.00  0.00    -0.091 SA
BRANCH  18  19
HETATM   19  C   UNL     1      38.672  44.339  63.928  1.00  0.00     0.005 A 
HETATM   20  C   UNL     1      39.974  44.188  63.441  1.00  0.00     0.021 A 
HETATM   21  C   UNL     1      40.950  45.155  63.702  1.00  0.00     0.038 A 
HETATM   22  C   UNL     1      40.638  46.295  64.442  1.00  0.00     0.068 A 
HETATM   23  C   UNL     1      39.345  46.448  64.942  1.00  0.00     0.038 A 
HETATM   24  C   UNL     1      38.368  45.477  64.681  1.00  0.00     0.021 A 
BRANCH  22  25
HETATM   25  O   UNL     1      41.672  47.174  64.606  1.00  0.00    -0.356 OA
HETATM   26  C   UNL     1      42.067  47.453  65.943  1.00  0.00     0.210 C 
ENDBRANCH  22  25
ENDBRANCH  18  19
ENDBRANCH   1  18
TORSDOF 6
ENDMDL
