MODEL 1
REMARK VINA RESULT:      -9.1      0.000      0.000
REMARK  8 active torsions:
REMARK  status: ('A' for Active; 'I' for Inactive)
REMARK    1  A    between atoms: C_5  and  C_6 
REMARK    2  A    between atoms: N_7  and  N_8 
REMARK       I    between atoms: N_8  and  C_9 
REMARK    3  A    between atoms: C_9  and  C_10 
REMARK    4  A    between atoms: N_11  and  C_12 
REMARK    5  A    between atoms: C_16  and  N_17 
REMARK    6  A    between atoms: C_20  and  C_21 
REMARK    7  A    between atoms: C_21  and  N_22 
REMARK    8  A    between atoms: C_30  and  O_31 
ROOT
HETATM    1  C   UNL     1      27.106  42.712  51.980  1.00  0.00     0.159 A 
HETATM    2  N   UNL     1      27.852  41.618  51.532  1.00  0.00    -0.184 N 
HETATM    3  N   UNL     1      28.432  41.022  52.615  1.00  0.00    -0.058 NA
HETATM    4  N   UNL     1      28.059  41.637  53.719  1.00  0.00    -0.132 NA
HETATM    5  C   UNL     1      27.258  42.674  53.368  1.00  0.00     0.118 A 
ENDROOT
BRANCH   1   6
HETATM    6  C   UNL     1      26.305  43.697  51.289  1.00  0.00     0.292 C 
HETATM    7  N   UNL     1      26.930  44.689  50.561  1.00  0.00    -0.242 N 
HETATM    8  H   UNL     1      27.929  44.666  50.369  1.00  0.00     0.192 HD
HETATM    9  O   UNL     1      25.077  43.657  51.415  1.00  0.00    -0.264 OA
BRANCH   7  10
HETATM   10  N   UNL     1      26.175  45.648  49.950  1.00  0.00    -0.183 NA
HETATM   11  C   UNL     1      26.638  46.857  50.030  1.00  0.00     0.153 C 
BRANCH  11  12
HETATM   12  C   UNL     1      25.920  47.991  49.415  1.00  0.00     0.017 A 
HETATM   13  C   UNL     1      24.522  47.995  49.482  1.00  0.00     0.034 A 
HETATM   14  C   UNL     1      23.813  49.050  48.907  1.00  0.00     0.012 A 
HETATM   15  C   UNL     1      24.480  50.096  48.270  1.00  0.00     0.022 A 
HETATM   16 BR   UNL     1      21.924  49.059  48.994  1.00  0.00    -0.051 Br
HETATM   17  C   UNL     1      25.874  50.090  48.205  1.00  0.00     0.039 A 
HETATM   18  C   UNL     1      26.592  49.042  48.775  1.00  0.00     0.077 A 
BRANCH  18  19
HETATM   19  O   UNL     1      27.955  49.106  48.671  1.00  0.00    -0.360 OA
HETATM   20  H   UNL     1      28.184  49.048  47.719  1.00  0.00     0.217 HD
ENDBRANCH  18  19
ENDBRANCH  11  12
ENDBRANCH   7  10
ENDBRANCH   1   6
BRANCH   2  21
HETATM   21  C   UNL     1      28.036  41.074  50.236  1.00  0.00     0.230 A 
HETATM   22  N   UNL     1      27.647  41.744  49.152  1.00  0.00    -0.081 NA
HETATM   23  O   UNL     1      27.960  40.891  48.093  1.00  0.00    -0.103 OA
HETATM   24  N   UNL     1      28.558  39.728  48.550  1.00  0.00    -0.083 NA
HETATM   25  C   UNL     1      28.602  39.836  49.876  1.00  0.00     0.201 A 
BRANCH  25  26
HETATM   26  N   UNL     1      29.121  38.907  50.694  1.00  0.00    -0.379 N 
HETATM   27  H   UNL     1      30.128  38.793  50.770  1.00  0.00     0.158 HD
HETATM   28  H   UNL     1      28.570  38.191  51.161  1.00  0.00     0.158 HD
ENDBRANCH  25  26
ENDBRANCH   2  21
BRANCH   5  29
HETATM   29  C   UNL     1      26.719  43.579  54.433  1.00  0.00     0.298 C 
BRANCH  29  30
HETATM   30  N   UNL     1      27.094  45.041  54.316  1.00  0.00    -0.066 N 
HETATM   31  H   UNL     1      27.632  45.100  53.425  1.00  0.00     0.280 HD
HETATM   32  C   UNL     1      25.904  45.955  54.195  1.00  0.00     0.235 C 
HETATM   33  C   UNL     1      26.380  47.376  53.926  1.00  0.00     0.028 C 
HETATM   34  C   UNL     1      27.358  47.856  54.993  1.00  0.00     0.003 C 
HETATM   35  C   UNL     1      28.522  46.884  55.146  1.00  0.00     0.028 C 
HETATM   36  C   UNL     1      28.040  45.464  55.408  1.00  0.00     0.235 C 
ENDBRANCH  29  30
ENDBRANCH   5  29
TORSDOF 8
ENDMDL
MODEL 2
REMARK VINA RESULT:      -8.8      1.348      1.855
REMARK  8 active torsions:
REMARK  status: ('A' for Active; 'I' for Inactive)
REMARK    1  A    between atoms: C_5  and  C_6 
REMARK    2  A    between atoms: N_7  and  N_8 
REMARK       I    between atoms: N_8  and  C_9 
REMARK    3  A    between atoms: C_9  and  C_10 
REMARK    4  A    between atoms: N_11  and  C_12 
REMARK    5  A    between atoms: C_16  and  N_17 
REMARK    6  A    between atoms: C_20  and  C_21 
REMARK    7  A    between atoms: C_21  and  N_22 
REMARK    8  A    between atoms: C_30  and  O_31 
ROOT
HETATM    1  C   UNL     1      27.341  42.591  51.189  1.00  0.00     0.159 A 
HETATM    2  N   UNL     1      27.715  41.268  50.931  1.00  0.00    -0.184 N 
HETATM    3  N   UNL     1      28.105  40.696  52.108  1.00  0.00    -0.058 NA
HETATM    4  N   UNL     1      27.952  41.553  53.096  1.00  0.00    -0.132 NA
HETATM    5  C   UNL     1      27.495  42.718  52.571  1.00  0.00     0.118 A 
ENDROOT
BRANCH   1   6
HETATM    6  C   UNL     1      26.864  43.655  50.335  1.00  0.00     0.292 C 
HETATM    7  N   UNL     1      27.562  44.844  50.280  1.00  0.00    -0.242 N 
HETATM    8  H   UNL     1      28.482  44.947  50.702  1.00  0.00     0.192 HD
HETATM    9  O   UNL     1      25.808  43.491  49.716  1.00  0.00    -0.264 OA
BRANCH   7  10
HETATM   10  N   UNL     1      27.085  45.866  49.512  1.00  0.00    -0.183 NA
HETATM   11  C   UNL     1      26.442  46.793  50.153  1.00  0.00     0.153 C 
BRANCH  11  12
HETATM   12  C   UNL     1      25.870  47.955  49.444  1.00  0.00     0.017 A 
HETATM   13  C   UNL     1      24.479  48.109  49.455  1.00  0.00     0.034 A 
HETATM   14  C   UNL     1      23.907  49.195  48.790  1.00  0.00     0.012 A 
HETATM   15  C   UNL     1      24.703  50.123  48.120  1.00  0.00     0.022 A 
HETATM   16 BR   UNL     1      22.028  49.406  48.800  1.00  0.00    -0.051 Br
HETATM   17  C   UNL     1      26.090  49.967  48.112  1.00  0.00     0.039 A 
HETATM   18  C   UNL     1      26.672  48.887  48.772  1.00  0.00     0.077 A 
BRANCH  18  19
HETATM   19  O   UNL     1      28.037  48.802  48.720  1.00  0.00    -0.360 OA
HETATM   20  H   UNL     1      28.267  48.101  48.073  1.00  0.00     0.217 HD
ENDBRANCH  18  19
ENDBRANCH  11  12
ENDBRANCH   7  10
ENDBRANCH   1   6
BRANCH   2  21
HETATM   21  C   UNL     1      27.706  40.506  49.736  1.00  0.00     0.230 A 
HETATM   22  N   UNL     1      28.395  40.903  48.666  1.00  0.00    -0.081 NA
HETATM   23  O   UNL     1      28.118  39.932  47.703  1.00  0.00    -0.103 OA
HETATM   24  N   UNL     1      27.288  38.946  48.212  1.00  0.00    -0.083 NA
HETATM   25  C   UNL     1      27.026  39.302  49.469  1.00  0.00     0.201 A 
BRANCH  25  26
HETATM   26  N   UNL     1      26.254  38.596  50.310  1.00  0.00    -0.379 N 
HETATM   27  H   UNL     1      26.676  38.004  51.020  1.00  0.00     0.158 HD
HETATM   28  H   UNL     1      25.248  38.495  50.207  1.00  0.00     0.158 HD
ENDBRANCH  25  26
ENDBRANCH   2  21
BRANCH   5  29
HETATM   29  C   UNL     1      27.271  43.893  53.473  1.00  0.00     0.298 C 
BRANCH  29  30
HETATM   30  N   UNL     1      28.277  44.077  54.589  1.00  0.00    -0.066 N 
HETATM   31  H   UNL     1      27.910  43.488  55.368  1.00  0.00     0.280 HD
HETATM   32  C   UNL     1      29.653  43.575  54.242  1.00  0.00     0.235 C 
HETATM   33  C   UNL     1      30.548  43.657  55.471  1.00  0.00     0.028 C 
HETATM   34  C   UNL     1      30.587  45.068  56.049  1.00  0.00     0.003 C 
HETATM   35  C   UNL     1      29.181  45.583  56.332  1.00  0.00     0.028 C 
HETATM   36  C   UNL     1      28.289  45.492  55.102  1.00  0.00     0.235 C 
ENDBRANCH  29  30
ENDBRANCH   5  29
TORSDOF 8
ENDMDL
MODEL 3
REMARK VINA RESULT:      -8.8      3.093      7.171
REMARK  8 active torsions:
REMARK  status: ('A' for Active; 'I' for Inactive)
REMARK    1  A    between atoms: C_5  and  C_6 
REMARK    2  A    between atoms: N_7  and  N_8 
REMARK       I    between atoms: N_8  and  C_9 
REMARK    3  A    between atoms: C_9  and  C_10 
REMARK    4  A    between atoms: N_11  and  C_12 
REMARK    5  A    between atoms: C_16  and  N_17 
REMARK    6  A    between atoms: C_20  and  C_21 
REMARK    7  A    between atoms: C_21  and  N_22 
REMARK    8  A    between atoms: C_30  and  O_31 
ROOT
HETATM    1  C   UNL     1      26.262  45.794  51.550  1.00  0.00     0.159 A 
HETATM    2  N   UNL     1      25.712  47.073  51.426  1.00  0.00    -0.184 N 
HETATM    3  N   UNL     1      25.458  47.553  52.679  1.00  0.00    -0.058 NA
HETATM    4  N   UNL     1      25.859  46.683  53.583  1.00  0.00    -0.132 NA
HETATM    5  C   UNL     1      26.347  45.599  52.931  1.00  0.00     0.118 A 
ENDROOT
BRANCH   1   6
HETATM    6  C   UNL     1      26.707  44.823  50.576  1.00  0.00     0.292 C 
HETATM    7  N   UNL     1      26.208  43.538  50.623  1.00  0.00    -0.242 N 
HETATM    8  H   UNL     1      25.426  43.286  51.225  1.00  0.00     0.192 HD
HETATM    9  O   UNL     1      27.568  45.158  49.756  1.00  0.00    -0.264 OA
BRANCH   7  10
HETATM   10  N   UNL     1      26.664  42.608  49.734  1.00  0.00    -0.183 NA
HETATM   11  C   UNL     1      27.237  41.568  50.258  1.00  0.00     0.153 C 
BRANCH  11  12
HETATM   12  C   UNL     1      27.779  40.488  49.411  1.00  0.00     0.017 A 
HETATM   13  C   UNL     1      27.409  40.465  48.062  1.00  0.00     0.034 A 
HETATM   14  C   UNL     1      27.901  39.454  47.235  1.00  0.00     0.012 A 
HETATM   15  C   UNL     1      28.754  38.472  47.737  1.00  0.00     0.022 A 
HETATM   16 BR   UNL     1      27.402  39.419  45.411  1.00  0.00    -0.051 Br
HETATM   17  C   UNL     1      29.123  38.498  49.083  1.00  0.00     0.039 A 
HETATM   18  C   UNL     1      28.637  39.502  49.918  1.00  0.00     0.077 A 
BRANCH  18  19
HETATM   19  O   UNL     1      29.042  39.460  51.224  1.00  0.00    -0.360 OA
HETATM   20  H   UNL     1      28.720  40.277  51.662  1.00  0.00     0.217 HD
ENDBRANCH  18  19
ENDBRANCH  11  12
ENDBRANCH   7  10
ENDBRANCH   1   6
BRANCH   2  21
HETATM   21  C   UNL     1      25.447  47.875  50.289  1.00  0.00     0.230 A 
HETATM   22  N   UNL     1      24.196  48.191  49.950  1.00  0.00    -0.081 NA
HETATM   23  O   UNL     1      24.339  48.946  48.786  1.00  0.00    -0.103 OA
HETATM   24  N   UNL     1      25.674  49.100  48.451  1.00  0.00    -0.083 NA
HETATM   25  C   UNL     1      26.362  48.433  49.376  1.00  0.00     0.201 A 
BRANCH  25  26
HETATM   26  N   UNL     1      27.701  48.347  49.406  1.00  0.00    -0.379 N 
HETATM   27  H   UNL     1      28.154  47.479  49.680  1.00  0.00     0.158 HD
HETATM   28  H   UNL     1      28.324  49.144  49.305  1.00  0.00     0.158 HD
ENDBRANCH  25  26
ENDBRANCH   2  21
BRANCH   5  29
HETATM   29  C   UNL     1      26.838  44.425  53.721  1.00  0.00     0.298 C 
BRANCH  29  30
HETATM   30  N   UNL     1      28.272  44.496  54.200  1.00  0.00    -0.066 N 
HETATM   31  H   UNL     1      28.779  44.980  53.427  1.00  0.00     0.280 HD
HETATM   32  C   UNL     1      28.445  45.319  55.448  1.00  0.00     0.235 C 
HETATM   33  C   UNL     1      29.928  45.462  55.760  1.00  0.00     0.028 C 
HETATM   34  C   UNL     1      30.615  44.105  55.874  1.00  0.00     0.003 C 
HETATM   35  C   UNL     1      30.373  43.263  54.628  1.00  0.00     0.028 C 
HETATM   36  C   UNL     1      28.889  43.128  54.317  1.00  0.00     0.235 C 
ENDBRANCH  29  30
ENDBRANCH   5  29
TORSDOF 8
ENDMDL
MODEL 4
REMARK VINA RESULT:      -8.8      3.324      7.315
REMARK  8 active torsions:
REMARK  status: ('A' for Active; 'I' for Inactive)
REMARK    1  A    between atoms: C_5  and  C_6 
REMARK    2  A    between atoms: N_7  and  N_8 
REMARK       I    between atoms: N_8  and  C_9 
REMARK    3  A    between atoms: C_9  and  C_10 
REMARK    4  A    between atoms: N_11  and  C_12 
REMARK    5  A    between atoms: C_16  and  N_17 
REMARK    6  A    between atoms: C_20  and  C_21 
REMARK    7  A    between atoms: C_21  and  N_22 
REMARK    8  A    between atoms: C_30  and  O_31 
ROOT
HETATM    1  C   UNL     1      26.244  45.847  51.673  1.00  0.00     0.159 A 
HETATM    2  N   UNL     1      25.780  47.142  51.423  1.00  0.00    -0.184 N 
HETATM    3  N   UNL     1      25.472  47.725  52.619  1.00  0.00    -0.058 NA
HETATM    4  N   UNL     1      25.760  46.901  53.607  1.00  0.00    -0.132 NA
HETATM    5  C   UNL     1      26.225  45.748  53.066  1.00  0.00     0.118 A 
ENDROOT
BRANCH   1   6
HETATM    6  C   UNL     1      26.693  44.785  50.801  1.00  0.00     0.292 C 
HETATM    7  N   UNL     1      26.091  43.546  50.874  1.00  0.00    -0.242 N 
HETATM    8  H   UNL     1      25.241  43.393  51.414  1.00  0.00     0.192 HD
HETATM    9  O   UNL     1      27.647  45.002  50.047  1.00  0.00    -0.264 OA
BRANCH   7  10
HETATM   10  N   UNL     1      26.548  42.531  50.086  1.00  0.00    -0.183 NA
HETATM   11  C   UNL     1      27.460  41.778  50.619  1.00  0.00     0.153 C 
BRANCH  11  12
HETATM   12  C   UNL     1      28.045  40.644  49.875  1.00  0.00     0.017 A 
HETATM   13  C   UNL     1      28.543  39.565  50.611  1.00  0.00     0.034 A 
HETATM   14  C   UNL     1      29.106  38.479  49.938  1.00  0.00     0.012 A 
HETATM   15  C   UNL     1      29.175  38.460  48.545  1.00  0.00     0.022 A 
HETATM   16 BR   UNL     1      29.783  37.018  50.929  1.00  0.00    -0.051 Br
HETATM   17  C   UNL     1      28.675  39.538  47.813  1.00  0.00     0.039 A 
HETATM   18  C   UNL     1      28.112  40.627  48.475  1.00  0.00     0.077 A 
BRANCH  18  19
HETATM   19  O   UNL     1      27.644  41.645  47.689  1.00  0.00    -0.360 OA
HETATM   20  H   UNL     1      28.240  42.415  47.814  1.00  0.00     0.217 HD
ENDBRANCH  18  19
ENDBRANCH  11  12
ENDBRANCH   7  10
ENDBRANCH   1   6
BRANCH   2  21
HETATM   21  C   UNL     1      25.640  47.873  50.218  1.00  0.00     0.230 A 
HETATM   22  N   UNL     1      26.710  48.295  49.544  1.00  0.00    -0.081 NA
HETATM   23  O   UNL     1      26.178  48.986  48.455  1.00  0.00    -0.103 OA
HETATM   24  N   UNL     1      24.793  48.950  48.470  1.00  0.00    -0.083 NA
HETATM   25  C   UNL     1      24.457  48.267  49.563  1.00  0.00     0.201 A 
BRANCH  25  26
HETATM   26  N   UNL     1      23.193  48.005  49.932  1.00  0.00    -0.379 N 
HETATM   27  H   UNL     1      22.643  47.315  49.429  1.00  0.00     0.158 HD
HETATM   28  H   UNL     1      22.676  48.555  50.614  1.00  0.00     0.158 HD
ENDBRANCH  25  26
ENDBRANCH   2  21
BRANCH   5  29
HETATM   29  C   UNL     1      26.590  44.609  53.967  1.00  0.00     0.298 C 
BRANCH  29  30
HETATM   30  N   UNL     1      28.066  44.437  54.259  1.00  0.00    -0.066 N 
HETATM   31  H   UNL     1      28.544  44.924  53.470  1.00  0.00     0.280 HD
HETATM   32  C   UNL     1      28.502  45.098  55.539  1.00  0.00     0.235 C 
HETATM   33  C   UNL     1      30.017  45.008  55.666  1.00  0.00     0.028 C 
HETATM   34  C   UNL     1      30.507  43.566  55.575  1.00  0.00     0.003 C 
HETATM   35  C   UNL     1      30.000  42.895  54.305  1.00  0.00     0.028 C 
HETATM   36  C   UNL     1      28.486  42.994  54.180  1.00  0.00     0.235 C 
ENDBRANCH  29  30
ENDBRANCH   5  29
TORSDOF 8
ENDMDL
MODEL 5
REMARK VINA RESULT:      -8.7      3.001      7.435
REMARK  8 active torsions:
REMARK  status: ('A' for Active; 'I' for Inactive)
REMARK    1  A    between atoms: C_5  and  C_6 
REMARK    2  A    between atoms: N_7  and  N_8 
REMARK       I    between atoms: N_8  and  C_9 
REMARK    3  A    between atoms: C_9  and  C_10 
REMARK    4  A    between atoms: N_11  and  C_12 
REMARK    5  A    between atoms: C_16  and  N_17 
REMARK    6  A    between atoms: C_20  and  C_21 
REMARK    7  A    between atoms: C_21  and  N_22 
REMARK    8  A    between atoms: C_30  and  O_31 
ROOT
HETATM    1  C   UNL     1      26.525  45.459  51.827  1.00  0.00     0.159 A 
HETATM    2  N   UNL     1      26.996  45.606  53.135  1.00  0.00    -0.184 N 
HETATM    3  N   UNL     1      26.398  46.704  53.685  1.00  0.00    -0.058 NA
HETATM    4  N   UNL     1      25.545  47.226  52.828  1.00  0.00    -0.132 NA
HETATM    5  C   UNL     1      25.602  46.498  51.685  1.00  0.00     0.118 A 
ENDROOT
BRANCH   1   6
HETATM    6  C   UNL     1      26.815  44.498  50.787  1.00  0.00     0.292 C 
HETATM    7  N   UNL     1      26.447  43.180  50.960  1.00  0.00    -0.242 N 
HETATM    8  H   UNL     1      25.846  42.886  51.728  1.00  0.00     0.192 HD
HETATM    9  O   UNL     1      27.436  44.875  49.787  1.00  0.00    -0.264 OA
BRANCH   7  10
HETATM   10  N   UNL     1      26.763  42.263  50.000  1.00  0.00    -0.183 NA
HETATM   11  C   UNL     1      27.548  41.303  50.382  1.00  0.00     0.153 C 
BRANCH  11  12
HETATM   12  C   UNL     1      27.973  40.246  49.443  1.00  0.00     0.017 A 
HETATM   13  C   UNL     1      27.530  40.330  48.119  1.00  0.00     0.034 A 
HETATM   14  C   UNL     1      27.911  39.343  47.207  1.00  0.00     0.012 A 
HETATM   15  C   UNL     1      28.724  38.282  47.601  1.00  0.00     0.022 A 
HETATM   16 BR   UNL     1      27.313  39.451  45.417  1.00  0.00    -0.051 Br
HETATM   17  C   UNL     1      29.166  38.202  48.923  1.00  0.00     0.039 A 
HETATM   18  C   UNL     1      28.792  39.180  49.842  1.00  0.00     0.077 A 
BRANCH  18  19
HETATM   19  O   UNL     1      29.264  39.033  51.117  1.00  0.00    -0.360 OA
HETATM   20  H   UNL     1      30.206  38.766  51.057  1.00  0.00     0.217 HD
ENDBRANCH  18  19
ENDBRANCH  11  12
ENDBRANCH   7  10
ENDBRANCH   1   6
BRANCH   2  21
HETATM   21  C   UNL     1      27.891  44.822  53.904  1.00  0.00     0.230 A 
HETATM   22  N   UNL     1      27.950  43.499  53.748  1.00  0.00    -0.081 NA
HETATM   23  O   UNL     1      28.904  43.088  54.680  1.00  0.00    -0.103 OA
HETATM   24  N   UNL     1      29.428  44.170  55.369  1.00  0.00    -0.083 NA
HETATM   25  C   UNL     1      28.800  45.244  54.894  1.00  0.00     0.201 A 
BRANCH  25  26
HETATM   26  N   UNL     1      29.033  46.500  55.306  1.00  0.00    -0.379 N 
HETATM   27  H   UNL     1      29.403  47.192  54.660  1.00  0.00     0.158 HD
HETATM   28  H   UNL     1      28.997  46.795  56.278  1.00  0.00     0.158 HD
ENDBRANCH  25  26
ENDBRANCH   2  21
BRANCH   5  29
HETATM   29  C   UNL     1      24.759  46.900  50.514  1.00  0.00     0.298 C 
BRANCH  29  30
HETATM   30  N   UNL     1      25.125  48.208  49.847  1.00  0.00    -0.066 N 
HETATM   31  H   UNL     1      25.075  48.913  50.615  1.00  0.00     0.280 HD
HETATM   32  C   UNL     1      26.526  48.226  49.297  1.00  0.00     0.235 C 
HETATM   33  C   UNL     1      26.854  49.624  48.790  1.00  0.00     0.028 C 
HETATM   34  C   UNL     1      25.834  50.108  47.765  1.00  0.00     0.003 C 
HETATM   35  C   UNL     1      24.417  50.020  48.318  1.00  0.00     0.028 C 
HETATM   36  C   UNL     1      24.097  48.622  48.828  1.00  0.00     0.235 C 
ENDBRANCH  29  30
ENDBRANCH   5  29
TORSDOF 8
ENDMDL
MODEL 6
REMARK VINA RESULT:      -8.6      1.802      5.451
REMARK  8 active torsions:
REMARK  status: ('A' for Active; 'I' for Inactive)
REMARK    1  A    between atoms: C_5  and  C_6 
REMARK    2  A    between atoms: N_7  and  N_8 
REMARK       I    between atoms: N_8  and  C_9 
REMARK    3  A    between atoms: C_9  and  C_10 
REMARK    4  A    between atoms: N_11  and  C_12 
REMARK    5  A    between atoms: C_16  and  N_17 
REMARK    6  A    between atoms: C_20  and  C_21 
REMARK    7  A    between atoms: C_21  and  N_22 
REMARK    8  A    between atoms: C_30  and  O_31 
ROOT
HETATM    1  C   UNL     1      27.317  43.176  51.977  1.00  0.00     0.159 A 
HETATM    2  N   UNL     1      27.849  43.256  53.267  1.00  0.00    -0.184 N 
HETATM    3  N   UNL     1      28.033  41.985  53.734  1.00  0.00    -0.058 NA
HETATM    4  N   UNL     1      27.701  41.114  52.804  1.00  0.00    -0.132 NA
HETATM    5  C   UNL     1      27.255  41.804  51.725  1.00  0.00     0.118 A 
ENDROOT
BRANCH   1   6
HETATM    6  C   UNL     1      26.917  44.184  51.021  1.00  0.00     0.292 C 
HETATM    7  N   UNL     1      25.838  44.996  51.302  1.00  0.00    -0.242 N 
HETATM    8  H   UNL     1      25.403  45.013  52.223  1.00  0.00     0.192 HD
HETATM    9  O   UNL     1      27.523  44.257  49.947  1.00  0.00    -0.264 OA
BRANCH   7  10
HETATM   10  N   UNL     1      25.430  45.914  50.379  1.00  0.00    -0.183 NA
HETATM   11  C   UNL     1      25.925  47.106  50.522  1.00  0.00     0.153 C 
BRANCH  11  12
HETATM   12  C   UNL     1      25.565  48.197  49.594  1.00  0.00     0.017 A 
HETATM   13  C   UNL     1      24.207  48.443  49.368  1.00  0.00     0.034 A 
HETATM   14  C   UNL     1      23.834  49.465  48.493  1.00  0.00     0.012 A 
HETATM   15  C   UNL     1      24.797  50.239  47.847  1.00  0.00     0.022 A 
HETATM   16 BR   UNL     1      21.999  49.800  48.184  1.00  0.00    -0.051 Br
HETATM   17  C   UNL     1      26.151  49.992  48.075  1.00  0.00     0.039 A 
HETATM   18  C   UNL     1      26.535  48.974  48.946  1.00  0.00     0.077 A 
BRANCH  18  19
HETATM   19  O   UNL     1      27.880  48.792  49.118  1.00  0.00    -0.360 OA
HETATM   20  H   UNL     1      28.187  49.448  49.780  1.00  0.00     0.217 HD
ENDBRANCH  18  19
ENDBRANCH  11  12
ENDBRANCH   7  10
ENDBRANCH   1   6
BRANCH   2  21
HETATM   21  C   UNL     1      28.223  44.368  54.062  1.00  0.00     0.230 A 
HETATM   22  N   UNL     1      27.492  45.483  54.066  1.00  0.00    -0.081 NA
HETATM   23  O   UNL     1      28.182  46.339  54.925  1.00  0.00    -0.103 OA
HETATM   24  N   UNL     1      29.306  45.722  55.448  1.00  0.00    -0.083 NA
HETATM   25  C   UNL     1      29.337  44.504  54.912  1.00  0.00     0.201 A 
BRANCH  25  26
HETATM   26  N   UNL     1      30.280  43.584  55.176  1.00  0.00    -0.379 N 
HETATM   27  H   UNL     1      30.073  42.796  55.783  1.00  0.00     0.158 HD
HETATM   28  H   UNL     1      31.258  43.685  54.918  1.00  0.00     0.158 HD
ENDBRANCH  25  26
ENDBRANCH   2  21
BRANCH   5  29
HETATM   29  C   UNL     1      26.766  41.054  50.524  1.00  0.00     0.298 C 
BRANCH  29  30
HETATM   30  N   UNL     1      27.495  39.768  50.199  1.00  0.00    -0.066 N 
HETATM   31  H   UNL     1      27.845  39.429  51.121  1.00  0.00     0.280 HD
HETATM   32  C   UNL     1      26.600  38.702  49.627  1.00  0.00     0.235 C 
HETATM   33  C   UNL     1      27.384  37.405  49.481  1.00  0.00     0.028 C 
HETATM   34  C   UNL     1      28.644  37.597  48.644  1.00  0.00     0.003 C 
HETATM   35  C   UNL     1      29.504  38.725  49.201  1.00  0.00     0.028 C 
HETATM   36  C   UNL     1      28.714  40.017  49.351  1.00  0.00     0.235 C 
ENDBRANCH  29  30
ENDBRANCH   5  29
TORSDOF 8
ENDMDL
MODEL 7
REMARK VINA RESULT:      -8.4      4.435      7.219
REMARK  8 active torsions:
REMARK  status: ('A' for Active; 'I' for Inactive)
REMARK    1  A    between atoms: C_5  and  C_6 
REMARK    2  A    between atoms: N_7  and  N_8 
REMARK       I    between atoms: N_8  and  C_9 
REMARK    3  A    between atoms: C_9  and  C_10 
REMARK    4  A    between atoms: N_11  and  C_12 
REMARK    5  A    between atoms: C_16  and  N_17 
REMARK    6  A    between atoms: C_20  and  C_21 
REMARK    7  A    between atoms: C_21  and  N_22 
REMARK    8  A    between atoms: C_30  and  O_31 
ROOT
HETATM    1  C   UNL     1      24.598  46.624  49.916  1.00  0.00     0.159 A 
HETATM    2  N   UNL     1      25.257  47.849  49.767  1.00  0.00    -0.184 N 
HETATM    3  N   UNL     1      26.178  47.964  50.768  1.00  0.00    -0.058 NA
HETATM    4  N   UNL     1      26.178  46.873  51.506  1.00  0.00    -0.132 NA
HETATM    5  C   UNL     1      25.225  46.041  51.019  1.00  0.00     0.118 A 
ENDROOT
BRANCH   1   6
HETATM    6  C   UNL     1      23.539  45.987  49.167  1.00  0.00     0.292 C 
HETATM    7  N   UNL     1      22.267  46.520  49.203  1.00  0.00    -0.242 N 
HETATM    8  H   UNL     1      22.077  47.430  49.618  1.00  0.00     0.192 HD
HETATM    9  O   UNL     1      23.791  44.945  48.553  1.00  0.00    -0.264 OA
BRANCH   7  10
HETATM   10  N   UNL     1      21.257  45.890  48.536  1.00  0.00    -0.183 NA
HETATM   11  C   UNL     1      20.769  46.539  47.523  1.00  0.00     0.153 C 
BRANCH  11  12
HETATM   12  C   UNL     1      19.669  45.975  46.715  1.00  0.00     0.017 A 
HETATM   13  C   UNL     1      19.612  46.316  45.359  1.00  0.00     0.034 A 
HETATM   14  C   UNL     1      18.582  45.802  44.568  1.00  0.00     0.012 A 
HETATM   15  C   UNL     1      17.617  44.957  45.113  1.00  0.00     0.022 A 
HETATM   16 BR   UNL     1      18.499  46.262  42.736  1.00  0.00    -0.051 Br
HETATM   17  C   UNL     1      17.677  44.617  46.466  1.00  0.00     0.039 A 
HETATM   18  C   UNL     1      18.700  45.124  47.265  1.00  0.00     0.077 A 
BRANCH  18  19
HETATM   19  O   UNL     1      18.693  44.746  48.579  1.00  0.00    -0.360 OA
HETATM   20  H   UNL     1      19.143  45.451  49.094  1.00  0.00     0.217 HD
ENDBRANCH  18  19
ENDBRANCH  11  12
ENDBRANCH   7  10
ENDBRANCH   1   6
BRANCH   2  21
HETATM   21  C   UNL     1      25.136  48.866  48.788  1.00  0.00     0.230 A 
HETATM   22  N   UNL     1      23.961  49.132  48.219  1.00  0.00    -0.081 NA
HETATM   23  O   UNL     1      24.245  50.150  47.308  1.00  0.00    -0.103 OA
HETATM   24  N   UNL     1      25.584  50.505  47.358  1.00  0.00    -0.083 NA
HETATM   25  C   UNL     1      26.139  49.709  48.270  1.00  0.00     0.201 A 
BRANCH  25  26
HETATM   26  N   UNL     1      27.435  49.745  48.618  1.00  0.00    -0.379 N 
HETATM   27  H   UNL     1      27.884  50.630  48.836  1.00  0.00     0.158 HD
HETATM   28  H   UNL     1      28.064  48.948  48.550  1.00  0.00     0.158 HD
ENDBRANCH  25  26
ENDBRANCH   2  21
BRANCH   5  29
HETATM   29  C   UNL     1      24.975  44.731  51.702  1.00  0.00     0.298 C 
BRANCH  29  30
HETATM   30  N   UNL     1      26.182  44.066  52.330  1.00  0.00    -0.066 N 
HETATM   31  H   UNL     1      26.969  44.721  52.134  1.00  0.00     0.280 HD
HETATM   32  C   UNL     1      26.070  43.916  53.823  1.00  0.00     0.235 C 
HETATM   33  C   UNL     1      27.385  43.387  54.380  1.00  0.00     0.028 C 
HETATM   34  C   UNL     1      27.800  42.083  53.707  1.00  0.00     0.003 C 
HETATM   35  C   UNL     1      27.843  42.238  52.192  1.00  0.00     0.028 C 
HETATM   36  C   UNL     1      26.528  42.773  51.642  1.00  0.00     0.235 C 
ENDBRANCH  29  30
ENDBRANCH   5  29
TORSDOF 8
ENDMDL
MODEL 8
REMARK VINA RESULT:      -8.4      4.223      7.366
REMARK  8 active torsions:
REMARK  status: ('A' for Active; 'I' for Inactive)
REMARK    1  A    between atoms: C_5  and  C_6 
REMARK    2  A    between atoms: N_7  and  N_8 
REMARK       I    between atoms: N_8  and  C_9 
REMARK    3  A    between atoms: C_9  and  C_10 
REMARK    4  A    between atoms: N_11  and  C_12 
REMARK    5  A    between atoms: C_16  and  N_17 
REMARK    6  A    between atoms: C_20  and  C_21 
REMARK    7  A    between atoms: C_21  and  N_22 
REMARK    8  A    between atoms: C_30  and  O_31 
ROOT
HETATM    1  C   UNL     1      22.664  45.757  48.276  1.00  0.00     0.159 A 
HETATM    2  N   UNL     1      21.774  45.302  47.298  1.00  0.00    -0.184 N 
HETATM    3  N   UNL     1      21.121  46.383  46.777  1.00  0.00    -0.058 NA
HETATM    4  N   UNL     1      21.578  47.490  47.326  1.00  0.00    -0.132 NA
HETATM    5  C   UNL     1      22.512  47.145  48.246  1.00  0.00     0.118 A 
ENDROOT
BRANCH   1   6
HETATM    6  C   UNL     1      23.590  45.072  49.149  1.00  0.00     0.292 C 
HETATM    7  N   UNL     1      23.322  45.001  50.501  1.00  0.00    -0.242 N 
HETATM    8  H   UNL     1      22.422  45.282  50.886  1.00  0.00     0.192 HD
HETATM    9  O   UNL     1      24.630  44.612  48.667  1.00  0.00    -0.264 OA
BRANCH   7  10
HETATM   10  N   UNL     1      24.219  44.396  51.332  1.00  0.00    -0.183 NA
HETATM   11  C   UNL     1      24.953  45.200  52.039  1.00  0.00     0.153 C 
BRANCH  11  12
HETATM   12  C   UNL     1      25.968  44.679  52.977  1.00  0.00     0.017 A 
HETATM   13  C   UNL     1      26.594  43.469  52.659  1.00  0.00     0.034 A 
HETATM   14  C   UNL     1      27.555  42.947  53.527  1.00  0.00     0.012 A 
HETATM   15  C   UNL     1      27.896  43.618  54.701  1.00  0.00     0.022 A 
HETATM   16 BR   UNL     1      28.402  41.312  53.102  1.00  0.00    -0.051 Br
HETATM   17  C   UNL     1      27.271  44.826  55.015  1.00  0.00     0.039 A 
HETATM   18  C   UNL     1      26.310  45.355  54.156  1.00  0.00     0.077 A 
BRANCH  18  19
HETATM   19  O   UNL     1      25.742  46.542  54.532  1.00  0.00    -0.360 OA
HETATM   20  H   UNL     1      26.166  46.822  55.371  1.00  0.00     0.217 HD
ENDBRANCH  18  19
ENDBRANCH  11  12
ENDBRANCH   7  10
ENDBRANCH   1   6
BRANCH   2  21
HETATM   21  C   UNL     1      21.515  44.003  46.796  1.00  0.00     0.230 A 
HETATM   22  N   UNL     1      20.290  43.479  46.852  1.00  0.00    -0.081 NA
HETATM   23  O   UNL     1      20.438  42.205  46.302  1.00  0.00    -0.103 OA
HETATM   24  N   UNL     1      21.745  41.986  45.896  1.00  0.00    -0.083 NA
HETATM   25  C   UNL     1      22.415  43.094  46.205  1.00  0.00     0.201 A 
BRANCH  25  26
HETATM   26  N   UNL     1      23.722  43.281  45.963  1.00  0.00    -0.379 N 
HETATM   27  H   UNL     1      24.350  42.486  45.888  1.00  0.00     0.158 HD
HETATM   28  H   UNL     1      24.179  44.190  45.982  1.00  0.00     0.158 HD
ENDBRANCH  25  26
ENDBRANCH   2  21
BRANCH   5  29
HETATM   29  C   UNL     1      23.171  48.216  49.060  1.00  0.00     0.298 C 
BRANCH  29  30
HETATM   30  N   UNL     1      24.621  48.505  48.733  1.00  0.00    -0.066 N 
HETATM   31  H   UNL     1      24.819  47.917  47.894  1.00  0.00     0.280 HD
HETATM   32  C   UNL     1      24.874  49.940  48.359  1.00  0.00     0.235 C 
HETATM   33  C   UNL     1      26.317  50.097  47.897  1.00  0.00     0.028 C 
HETATM   34  C   UNL     1      27.304  49.601  48.948  1.00  0.00     0.003 C 
HETATM   35  C   UNL     1      26.990  48.169  49.361  1.00  0.00     0.028 C 
HETATM   36  C   UNL     1      25.546  48.016  49.816  1.00  0.00     0.235 C 
ENDBRANCH  29  30
ENDBRANCH   5  29
TORSDOF 8
ENDMDL
MODEL 9
REMARK VINA RESULT:      -8.3      3.545      6.039
REMARK  8 active torsions:
REMARK  status: ('A' for Active; 'I' for Inactive)
REMARK    1  A    between atoms: C_5  and  C_6 
REMARK    2  A    between atoms: N_7  and  N_8 
REMARK       I    between atoms: N_8  and  C_9 
REMARK    3  A    between atoms: C_9  and  C_10 
REMARK    4  A    between atoms: N_11  and  C_12 
REMARK    5  A    between atoms: C_16  and  N_17 
REMARK    6  A    between atoms: C_20  and  C_21 
REMARK    7  A    between atoms: C_21  and  N_22 
REMARK    8  A    between atoms: C_30  and  O_31 
ROOT
HETATM    1  C   UNL     1      26.704  41.244  50.608  1.00  0.00     0.159 A 
HETATM    2  N   UNL     1      26.875  40.223  49.667  1.00  0.00    -0.184 N 
HETATM    3  N   UNL     1      25.805  40.239  48.820  1.00  0.00    -0.058 NA
HETATM    4  N   UNL     1      24.999  41.233  49.132  1.00  0.00    -0.132 NA
HETATM    5  C   UNL     1      25.513  41.861  50.219  1.00  0.00     0.118 A 
ENDROOT
BRANCH   1   6
HETATM    6  C   UNL     1      27.502  41.680  51.731  1.00  0.00     0.292 C 
HETATM    7  N   UNL     1      26.874  42.130  52.875  1.00  0.00    -0.242 N 
HETATM    8  H   UNL     1      25.871  42.026  53.014  1.00  0.00     0.192 HD
HETATM    9  O   UNL     1      28.732  41.690  51.617  1.00  0.00    -0.264 OA
BRANCH   7  10
HETATM   10  N   UNL     1      27.626  42.588  53.917  1.00  0.00    -0.183 NA
HETATM   11  C   UNL     1      27.954  43.842  53.860  1.00  0.00     0.153 C 
BRANCH  11  12
HETATM   12  C   UNL     1      28.770  44.466  54.921  1.00  0.00     0.017 A 
HETATM   13  C   UNL     1      29.872  43.753  55.404  1.00  0.00     0.034 A 
HETATM   14  C   UNL     1      30.661  44.314  56.410  1.00  0.00     0.012 A 
HETATM   15  C   UNL     1      30.363  45.571  56.935  1.00  0.00     0.022 A 
HETATM   16 BR   UNL     1      32.151  43.353  57.068  1.00  0.00    -0.051 Br
HETATM   17  C   UNL     1      29.264  46.280  56.450  1.00  0.00     0.039 A 
HETATM   18  C   UNL     1      28.469  45.731  55.446  1.00  0.00     0.077 A 
BRANCH  18  19
HETATM   19  O   UNL     1      27.409  46.485  55.023  1.00  0.00    -0.360 OA
HETATM   20  H   UNL     1      26.698  46.402  55.694  1.00  0.00     0.217 HD
ENDBRANCH  18  19
ENDBRANCH  11  12
ENDBRANCH   7  10
ENDBRANCH   1   6
BRANCH   2  21
HETATM   21  C   UNL     1      27.926  39.293  49.472  1.00  0.00     0.230 A 
HETATM   22  N   UNL     1      29.123  39.694  49.045  1.00  0.00    -0.081 NA
HETATM   23  O   UNL     1      29.863  38.515  48.948  1.00  0.00    -0.103 OA
HETATM   24  N   UNL     1      29.111  37.420  49.343  1.00  0.00    -0.083 NA
HETATM   25  C   UNL     1      27.910  37.898  49.663  1.00  0.00     0.201 A 
BRANCH  25  26
HETATM   26  N   UNL     1      26.889  37.146  50.104  1.00  0.00    -0.379 N 
HETATM   27  H   UNL     1      25.929  37.427  49.926  1.00  0.00     0.158 HD
HETATM   28  H   UNL     1      26.997  36.360  50.740  1.00  0.00     0.158 HD
ENDBRANCH  25  26
ENDBRANCH   2  21
BRANCH   5  29
HETATM   29  C   UNL     1      24.770  43.014  50.821  1.00  0.00     0.298 C 
BRANCH  29  30
HETATM   30  N   UNL     1      25.513  44.332  50.870  1.00  0.00    -0.066 N 
HETATM   31  H   UNL     1      26.453  44.086  51.250  1.00  0.00     0.280 HD
HETATM   32  C   UNL     1      25.712  44.956  49.516  1.00  0.00     0.235 C 
HETATM   33  C   UNL     1      26.598  46.187  49.649  1.00  0.00     0.028 C 
HETATM   34  C   UNL     1      26.033  47.184  50.655  1.00  0.00     0.003 C 
HETATM   35  C   UNL     1      25.776  46.517  52.001  1.00  0.00     0.028 C 
HETATM   36  C   UNL     1      24.895  45.283  51.861  1.00  0.00     0.235 C 
ENDBRANCH  29  30
ENDBRANCH   5  29
TORSDOF 8
ENDMDL
MODEL 10
REMARK VINA RESULT:      -8.3      3.712      8.175
REMARK  8 active torsions:
REMARK  status: ('A' for Active; 'I' for Inactive)
REMARK    1  A    between atoms: C_5  and  C_6 
REMARK    2  A    between atoms: N_7  and  N_8 
REMARK       I    between atoms: N_8  and  C_9 
REMARK    3  A    between atoms: C_9  and  C_10 
REMARK    4  A    between atoms: N_11  and  C_12 
REMARK    5  A    between atoms: C_16  and  N_17 
REMARK    6  A    between atoms: C_20  and  C_21 
REMARK    7  A    between atoms: C_21  and  N_22 
REMARK    8  A    between atoms: C_30  and  O_31 
ROOT
HETATM    1  C   UNL     1      24.110  45.748  49.774  1.00  0.00     0.159 A 
HETATM    2  N   UNL     1      23.435  46.836  49.211  1.00  0.00    -0.184 N 
HETATM    3  N   UNL     1      22.286  46.375  48.634  1.00  0.00    -0.058 NA
HETATM    4  N   UNL     1      22.169  45.079  48.840  1.00  0.00    -0.132 NA
HETATM    5  C   UNL     1      23.264  44.665  49.525  1.00  0.00     0.118 A 
ENDROOT
BRANCH   1   6
HETATM    6  C   UNL     1      25.361  45.639  50.490  1.00  0.00     0.292 C 
HETATM    7  N   UNL     1      25.347  45.509  51.863  1.00  0.00    -0.242 N 
HETATM    8  H   UNL     1      24.485  45.335  52.378  1.00  0.00     0.192 HD
HETATM    9  O   UNL     1      26.417  45.721  49.855  1.00  0.00    -0.264 OA
BRANCH   7  10
HETATM   10  N   UNL     1      26.528  45.455  52.544  1.00  0.00    -0.183 NA
HETATM   11  C   UNL     1      26.911  44.269  52.904  1.00  0.00     0.153 C 
BRANCH  11  12
HETATM   12  C   UNL     1      28.169  44.068  53.650  1.00  0.00     0.017 A 
HETATM   13  C   UNL     1      28.394  44.861  54.780  1.00  0.00     0.034 A 
HETATM   14  C   UNL     1      29.576  44.698  55.505  1.00  0.00     0.012 A 
HETATM   15  C   UNL     1      30.529  43.757  55.117  1.00  0.00     0.022 A 
HETATM   16 BR   UNL     1      29.885  45.769  57.032  1.00  0.00    -0.051 Br
HETATM   17  C   UNL     1      30.301  42.966  53.990  1.00  0.00     0.039 A 
HETATM   18  C   UNL     1      29.125  43.120  53.258  1.00  0.00     0.077 A 
BRANCH  18  19
HETATM   19  O   UNL     1      28.974  42.309  52.167  1.00  0.00    -0.360 OA
HETATM   20  H   UNL     1      28.193  42.628  51.665  1.00  0.00     0.217 HD
ENDBRANCH  18  19
ENDBRANCH  11  12
ENDBRANCH   7  10
ENDBRANCH   1   6
BRANCH   2  21
HETATM   21  C   UNL     1      23.733  48.221  49.197  1.00  0.00     0.230 A 
HETATM   22  N   UNL     1      24.980  48.650  49.002  1.00  0.00    -0.081 NA
HETATM   23  O   UNL     1      24.880  50.039  49.085  1.00  0.00    -0.103 OA
HETATM   24  N   UNL     1      23.569  50.433  49.302  1.00  0.00    -0.083 NA
HETATM   25  C   UNL     1      22.858  49.309  49.376  1.00  0.00     0.201 A 
BRANCH  25  26
HETATM   26  N   UNL     1      21.531  49.266  49.574  1.00  0.00    -0.379 N 
HETATM   27  H   UNL     1      21.083  49.926  50.203  1.00  0.00     0.158 HD
HETATM   28  H   UNL     1      20.931  48.515  49.239  1.00  0.00     0.158 HD
ENDBRANCH  25  26
ENDBRANCH   2  21
BRANCH   5  29
HETATM   29  C   UNL     1      23.415  43.213  49.861  1.00  0.00     0.298 C 
BRANCH  29  30
HETATM   30  N   UNL     1      24.576  42.495  49.205  1.00  0.00    -0.066 N 
HETATM   31  H   UNL     1      25.008  43.214  48.585  1.00  0.00     0.280 HD
HETATM   32  C   UNL     1      25.625  42.039  50.182  1.00  0.00     0.235 C 
HETATM   33  C   UNL     1      26.816  41.473  49.420  1.00  0.00     0.028 C 
HETATM   34  C   UNL     1      26.400  40.354  48.471  1.00  0.00     0.003 C 
HETATM   35  C   UNL     1      25.291  40.816  47.534  1.00  0.00     0.028 C 
HETATM   36  C   UNL     1      24.106  41.387  48.300  1.00  0.00     0.235 C 
ENDBRANCH  29  30
ENDBRANCH   5  29
TORSDOF 8
ENDMDL
