MODEL 1
REMARK VINA RESULT:      -9.0      0.000      0.000
REMARK  7 active torsions:
REMARK  status: ('A' for Active; 'I' for Inactive)
REMARK    1  A    between atoms: C_2  and  O_3 
REMARK    2  A    between atoms: O_3  and  C_4 
REMARK    3  A    between atoms: C_4  and  C_5 
REMARK    4  A    between atoms: C_6  and  C_7 
REMARK    5  A    between atoms: C_18  and  S_19 
REMARK    6  A    between atoms: S_19  and  C_20 
REMARK    7  A    between atoms: C_20  and  C_21 
ROOT
HETATM    1  C   UNL     1      24.687  48.883  49.051  1.00  0.00     0.070 A 
HETATM    2  C   UNL     1      23.953  47.786  49.808  1.00  0.00     0.203 A 
HETATM    3  N   UNL     1      24.894  46.874  50.469  1.00  0.00    -0.082 N 
HETATM    4  C   UNL     1      26.255  46.960  50.362  1.00  0.00     0.726 A 
HETATM    5  N   UNL     1      26.795  47.947  49.621  1.00  0.00    -0.192 N 
HETATM    6  N   UNL     1      24.530  45.871  51.288  1.00  0.00    -0.128 NA
HETATM    7  C   UNL     1      25.723  45.347  51.592  1.00  0.00     0.226 A 
HETATM    8  N   UNL     1      26.808  46.001  51.058  1.00  0.00    -0.035 NA
HETATM    9  C   UNL     1      26.041  48.934  48.992  1.00  0.00     0.037 A 
HETATM   10  C   UNL     1      26.828  50.034  48.324  1.00  0.00     0.070 C 
HETATM   11  H   UNL     1      27.809  48.026  49.572  1.00  0.00     0.184 HD
ENDROOT
BRANCH   7  12
HETATM   12  S   UNL     1      25.834  43.920  52.577  1.00  0.00    -0.083 SA
BRANCH  12  13
HETATM   13  C   UNL     1      27.520  43.388  52.187  1.00  0.00     0.121 C 
BRANCH  13  14
HETATM   14  C   UNL     1      28.455  43.647  53.346  1.00  0.00    -0.047 A 
HETATM   15  C   UNL     1      28.210  44.705  54.236  1.00  0.00     0.031 A 
HETATM   16  C   UNL     1      29.092  44.956  55.287  1.00  0.00     0.034 A 
HETATM   17 CL   UNL     1      28.777  46.252  56.374  1.00  0.00    -0.084 Cl
HETATM   18  C   UNL     1      30.228  44.168  55.463  1.00  0.00     0.024 A 
HETATM   19  C   UNL     1      30.483  43.118  54.581  1.00  0.00     0.002 A 
HETATM   20  C   UNL     1      29.602  42.859  53.530  1.00  0.00     0.008 A 
ENDBRANCH  13  14
ENDBRANCH  12  13
ENDBRANCH   7  12
BRANCH   2  21
HETATM   21  C   UNL     1      23.000  46.989  48.917  1.00  0.00    -0.028 A 
HETATM   22  C   UNL     1      21.677  47.409  48.687  1.00  0.00     0.011 A 
HETATM   23  C   UNL     1      20.829  46.663  47.865  1.00  0.00     0.024 A 
HETATM   24  C   UNL     1      21.293  45.492  47.269  1.00  0.00     0.034 A 
HETATM   25 CL   UNL     1      20.247  44.577  46.256  1.00  0.00    -0.084 Cl
HETATM   26  C   UNL     1      22.597  45.059  47.488  1.00  0.00     0.024 A 
HETATM   27  C   UNL     1      23.447  45.802  48.310  1.00  0.00     0.011 A 
ENDBRANCH   2  21
BRANCH   1  28
HETATM   28  C   UNL     1      23.779  49.876  48.443  1.00  0.00     0.293 C 
HETATM   29  O   UNL     1      23.710  50.058  47.238  1.00  0.00    -0.259 OA
BRANCH  28  30
HETATM   30  O   UNL     1      23.146  50.587  49.407  1.00  0.00    -0.318 OA
BRANCH  30  31
HETATM   31  C   UNL     1      21.851  51.096  49.056  1.00  0.00     0.174 C 
HETATM   32  C   UNL     1      20.861  50.871  50.182  1.00  0.00     0.034 C 
ENDBRANCH  30  31
ENDBRANCH  28  30
ENDBRANCH   1  28
TORSDOF 7
ENDMDL
MODEL 2
REMARK VINA RESULT:      -9.0      3.339      5.117
REMARK  7 active torsions:
REMARK  status: ('A' for Active; 'I' for Inactive)
REMARK    1  A    between atoms: C_2  and  O_3 
REMARK    2  A    between atoms: O_3  and  C_4 
REMARK    3  A    between atoms: C_4  and  C_5 
REMARK    4  A    between atoms: C_6  and  C_7 
REMARK    5  A    between atoms: C_18  and  S_19 
REMARK    6  A    between atoms: S_19  and  C_20 
REMARK    7  A    between atoms: C_20  and  C_21 
ROOT
HETATM    1  C   UNL     1      23.660  45.356  49.700  1.00  0.00     0.070 A 
HETATM    2  C   UNL     1      24.262  44.671  50.919  1.00  0.00     0.203 A 
HETATM    3  N   UNL     1      24.919  45.640  51.803  1.00  0.00    -0.082 N 
HETATM    4  C   UNL     1      25.036  46.976  51.532  1.00  0.00     0.726 A 
HETATM    5  N   UNL     1      24.507  47.464  50.394  1.00  0.00    -0.192 N 
HETATM    6  N   UNL     1      25.451  45.335  53.000  1.00  0.00    -0.128 NA
HETATM    7  C   UNL     1      25.933  46.525  53.373  1.00  0.00     0.226 A 
HETATM    8  N   UNL     1      25.679  47.563  52.508  1.00  0.00    -0.035 NA
HETATM    9  C   UNL     1      23.788  46.689  49.488  1.00  0.00     0.037 A 
HETATM   10  C   UNL     1      23.153  47.438  48.343  1.00  0.00     0.070 C 
HETATM   11  H   UNL     1      24.567  48.464  50.215  1.00  0.00     0.184 HD
ENDROOT
BRANCH   7  12
HETATM   12  S   UNL     1      26.833  46.689  54.852  1.00  0.00    -0.083 SA
BRANCH  12  13
HETATM   13  C   UNL     1      28.206  45.556  54.522  1.00  0.00     0.121 C 
BRANCH  13  14
HETATM   14  C   UNL     1      29.085  45.394  55.741  1.00  0.00    -0.047 A 
HETATM   15  C   UNL     1      30.117  44.443  55.754  1.00  0.00     0.031 A 
HETATM   16  C   UNL     1      30.906  44.280  56.892  1.00  0.00     0.034 A 
HETATM   17 CL   UNL     1      32.172  43.114  56.893  1.00  0.00    -0.084 Cl
HETATM   18  C   UNL     1      30.677  45.052  58.030  1.00  0.00     0.024 A 
HETATM   19  C   UNL     1      29.650  45.995  58.029  1.00  0.00     0.002 A 
HETATM   20  C   UNL     1      28.860  46.166  56.891  1.00  0.00     0.008 A 
ENDBRANCH  13  14
ENDBRANCH  12  13
ENDBRANCH   7  12
BRANCH   2  21
HETATM   21  C   UNL     1      25.244  43.560  50.547  1.00  0.00    -0.028 A 
HETATM   22  C   UNL     1      26.417  43.823  49.817  1.00  0.00     0.011 A 
HETATM   23  C   UNL     1      27.298  42.788  49.494  1.00  0.00     0.024 A 
HETATM   24  C   UNL     1      27.014  41.484  49.894  1.00  0.00     0.034 A 
HETATM   25 CL   UNL     1      28.102  40.213  49.495  1.00  0.00    -0.084 Cl
HETATM   26  C   UNL     1      25.856  41.204  50.613  1.00  0.00     0.024 A 
HETATM   27  C   UNL     1      24.973  42.236  50.937  1.00  0.00     0.011 A 
ENDBRANCH   2  21
BRANCH   1  28
HETATM   28  C   UNL     1      22.911  44.432  48.826  1.00  0.00     0.293 C 
HETATM   29  O   UNL     1      21.869  43.896  49.168  1.00  0.00    -0.259 OA
BRANCH  28  30
HETATM   30  O   UNL     1      23.599  44.207  47.680  1.00  0.00    -0.318 OA
BRANCH  30  31
HETATM   31  C   UNL     1      23.231  43.024  46.956  1.00  0.00     0.174 C 
HETATM   32  C   UNL     1      24.139  41.865  47.325  1.00  0.00     0.034 C 
ENDBRANCH  30  31
ENDBRANCH  28  30
ENDBRANCH   1  28
TORSDOF 7
ENDMDL
MODEL 3
REMARK VINA RESULT:      -8.8      4.727      6.369
REMARK  7 active torsions:
REMARK  status: ('A' for Active; 'I' for Inactive)
REMARK    1  A    between atoms: C_2  and  O_3 
REMARK    2  A    between atoms: O_3  and  C_4 
REMARK    3  A    between atoms: C_4  and  C_5 
REMARK    4  A    between atoms: C_6  and  C_7 
REMARK    5  A    between atoms: C_18  and  S_19 
REMARK    6  A    between atoms: S_19  and  C_20 
REMARK    7  A    between atoms: C_20  and  C_21 
ROOT
HETATM    1  C   UNL     1      20.496  49.367  49.293  1.00  0.00     0.070 A 
HETATM    2  C   UNL     1      21.327  48.935  48.094  1.00  0.00     0.203 A 
HETATM    3  N   UNL     1      21.004  47.562  47.689  1.00  0.00    -0.082 N 
HETATM    4  C   UNL     1      20.120  46.752  48.348  1.00  0.00     0.726 A 
HETATM    5  N   UNL     1      19.476  47.226  49.432  1.00  0.00    -0.192 N 
HETATM    6  N   UNL     1      21.511  46.952  46.602  1.00  0.00    -0.128 NA
HETATM    7  C   UNL     1      20.938  45.747  46.699  1.00  0.00     0.226 A 
HETATM    8  N   UNL     1      20.061  45.592  47.746  1.00  0.00    -0.035 NA
HETATM    9  C   UNL     1      19.617  48.530  49.898  1.00  0.00     0.037 A 
HETATM   10  C   UNL     1      18.711  48.920  51.039  1.00  0.00     0.070 C 
HETATM   11  H   UNL     1      18.794  46.630  49.897  1.00  0.00     0.184 HD
ENDROOT
BRANCH   7  12
HETATM   12  S   UNL     1      21.332  44.490  45.565  1.00  0.00    -0.083 SA
BRANCH  12  13
HETATM   13  C   UNL     1      23.071  44.209  45.984  1.00  0.00     0.121 C 
BRANCH  13  14
HETATM   14  C   UNL     1      23.215  43.695  47.398  1.00  0.00    -0.047 A 
HETATM   15  C   UNL     1      23.698  44.534  48.415  1.00  0.00     0.031 A 
HETATM   16  C   UNL     1      23.854  44.045  49.713  1.00  0.00     0.034 A 
HETATM   17 CL   UNL     1      24.442  45.085  50.951  1.00  0.00    -0.084 Cl
HETATM   18  C   UNL     1      23.539  42.722  50.014  1.00  0.00     0.024 A 
HETATM   19  C   UNL     1      23.063  41.879  49.010  1.00  0.00     0.002 A 
HETATM   20  C   UNL     1      22.901  42.363  47.711  1.00  0.00     0.008 A 
ENDBRANCH  13  14
ENDBRANCH  12  13
ENDBRANCH   7  12
BRANCH   2  21
HETATM   21  C   UNL     1      22.831  49.062  48.341  1.00  0.00    -0.028 A 
HETATM   22  C   UNL     1      23.511  48.198  49.219  1.00  0.00     0.011 A 
HETATM   23  C   UNL     1      24.886  48.336  49.424  1.00  0.00     0.024 A 
HETATM   24  C   UNL     1      25.591  49.334  48.756  1.00  0.00     0.034 A 
HETATM   25 CL   UNL     1      27.285  49.499  49.010  1.00  0.00    -0.084 Cl
HETATM   26  C   UNL     1      24.934  50.200  47.887  1.00  0.00     0.024 A 
HETATM   27  C   UNL     1      23.560  50.066  47.681  1.00  0.00     0.011 A 
ENDBRANCH   2  21
BRANCH   1  28
HETATM   28  C   UNL     1      20.724  50.773  49.680  1.00  0.00     0.293 C 
HETATM   29  O   UNL     1      21.160  51.096  50.773  1.00  0.00    -0.259 OA
BRANCH  28  30
HETATM   30  O   UNL     1      20.287  51.606  48.705  1.00  0.00    -0.318 OA
BRANCH  30  31
HETATM   31  C   UNL     1      18.865  51.644  48.509  1.00  0.00     0.174 C 
HETATM   32  C   UNL     1      18.183  52.363  49.658  1.00  0.00     0.034 C 
ENDBRANCH  30  31
ENDBRANCH  28  30
ENDBRANCH   1  28
TORSDOF 7
ENDMDL
MODEL 4
REMARK VINA RESULT:      -8.6      3.216      4.494
REMARK  7 active torsions:
REMARK  status: ('A' for Active; 'I' for Inactive)
REMARK    1  A    between atoms: C_2  and  O_3 
REMARK    2  A    between atoms: O_3  and  C_4 
REMARK    3  A    between atoms: C_4  and  C_5 
REMARK    4  A    between atoms: C_6  and  C_7 
REMARK    5  A    between atoms: C_18  and  S_19 
REMARK    6  A    between atoms: S_19  and  C_20 
REMARK    7  A    between atoms: C_20  and  C_21 
ROOT
HETATM    1  C   UNL     1      23.288  45.528  49.328  1.00  0.00     0.070 A 
HETATM    2  C   UNL     1      23.887  44.701  50.457  1.00  0.00     0.203 A 
HETATM    3  N   UNL     1      24.643  45.543  51.390  1.00  0.00    -0.082 N 
HETATM    4  C   UNL     1      24.841  46.887  51.229  1.00  0.00     0.726 A 
HETATM    5  N   UNL     1      24.304  47.507  50.161  1.00  0.00    -0.192 N 
HETATM    6  N   UNL     1      25.198  45.100  52.533  1.00  0.00    -0.128 NA
HETATM    7  C   UNL     1      25.774  46.219  52.985  1.00  0.00     0.226 A 
HETATM    8  N   UNL     1      25.561  47.342  52.222  1.00  0.00    -0.035 NA
HETATM    9  C   UNL     1      23.500  46.863  49.225  1.00  0.00     0.037 A 
HETATM   10  C   UNL     1      22.875  47.751  48.177  1.00  0.00     0.070 C 
HETATM   11  H   UNL     1      24.427  48.513  50.065  1.00  0.00     0.184 HD
ENDROOT
BRANCH   7  12
HETATM   12  S   UNL     1      26.739  46.192  54.430  1.00  0.00    -0.083 SA
BRANCH  12  13
HETATM   13  C   UNL     1      26.679  44.427  54.828  1.00  0.00     0.121 C 
BRANCH  13  14
HETATM   14  C   UNL     1      27.887  43.703  54.278  1.00  0.00    -0.047 A 
HETATM   15  C   UNL     1      27.733  42.667  53.344  1.00  0.00     0.031 A 
HETATM   16  C   UNL     1      28.850  41.985  52.862  1.00  0.00     0.034 A 
HETATM   17 CL   UNL     1      28.647  40.720  51.713  1.00  0.00    -0.084 Cl
HETATM   18  C   UNL     1      30.129  42.317  53.304  1.00  0.00     0.024 A 
HETATM   19  C   UNL     1      30.292  43.342  54.236  1.00  0.00     0.002 A 
HETATM   20  C   UNL     1      29.179  44.031  54.720  1.00  0.00     0.008 A 
ENDBRANCH  13  14
ENDBRANCH  12  13
ENDBRANCH   7  12
BRANCH   2  21
HETATM   21  C   UNL     1      24.775  43.564  49.949  1.00  0.00    -0.028 A 
HETATM   22  C   UNL     1      26.114  43.782  49.576  1.00  0.00     0.011 A 
HETATM   23  C   UNL     1      26.902  42.724  49.118  1.00  0.00     0.024 A 
HETATM   24  C   UNL     1      26.362  41.443  49.027  1.00  0.00     0.034 A 
HETATM   25 CL   UNL     1      27.337  40.142  48.464  1.00  0.00    -0.084 Cl
HETATM   26  C   UNL     1      25.039  41.210  49.388  1.00  0.00     0.024 A 
HETATM   27  C   UNL     1      24.247  42.266  49.845  1.00  0.00     0.011 A 
ENDBRANCH   2  21
BRANCH   1  28
HETATM   28  C   UNL     1      22.444  44.735  48.413  1.00  0.00     0.293 C 
HETATM   29  O   UNL     1      22.765  44.493  47.261  1.00  0.00    -0.259 OA
BRANCH  28  30
HETATM   30  O   UNL     1      21.264  44.430  49.006  1.00  0.00    -0.318 OA
BRANCH  30  31
HETATM   31  C   UNL     1      20.183  45.337  48.742  1.00  0.00     0.174 C 
HETATM   32  C   UNL     1      19.381  44.882  47.538  1.00  0.00     0.034 C 
ENDBRANCH  30  31
ENDBRANCH  28  30
ENDBRANCH   1  28
TORSDOF 7
ENDMDL
MODEL 5
REMARK VINA RESULT:      -8.4      4.005      5.989
REMARK  7 active torsions:
REMARK  status: ('A' for Active; 'I' for Inactive)
REMARK    1  A    between atoms: C_2  and  O_3 
REMARK    2  A    between atoms: O_3  and  C_4 
REMARK    3  A    between atoms: C_4  and  C_5 
REMARK    4  A    between atoms: C_6  and  C_7 
REMARK    5  A    between atoms: C_18  and  S_19 
REMARK    6  A    between atoms: S_19  and  C_20 
REMARK    7  A    between atoms: C_20  and  C_21 
ROOT
HETATM    1  C   UNL     1      23.827  43.346  49.432  1.00  0.00     0.070 A 
HETATM    2  C   UNL     1      24.602  42.743  50.594  1.00  0.00     0.203 A 
HETATM    3  N   UNL     1      25.113  43.785  51.491  1.00  0.00    -0.082 N 
HETATM    4  C   UNL     1      24.969  45.128  51.273  1.00  0.00     0.726 A 
HETATM    5  N   UNL     1      24.305  45.549  50.180  1.00  0.00    -0.192 N 
HETATM    6  N   UNL     1      25.748  43.543  52.652  1.00  0.00    -0.128 NA
HETATM    7  C   UNL     1      26.020  44.789  53.056  1.00  0.00     0.226 A 
HETATM    8  N   UNL     1      25.540  45.790  52.246  1.00  0.00    -0.035 NA
HETATM    9  C   UNL     1      23.698  44.686  49.272  1.00  0.00     0.037 A 
HETATM   10  C   UNL     1      22.882  45.344  48.187  1.00  0.00     0.070 C 
HETATM   11  H   UNL     1      24.172  46.549  50.041  1.00  0.00     0.184 HD
ENDROOT
BRANCH   7  12
HETATM   12  S   UNL     1      26.945  45.065  54.502  1.00  0.00    -0.083 SA
BRANCH  12  13
HETATM   13  C   UNL     1      28.583  44.528  53.946  1.00  0.00     0.121 C 
BRANCH  13  14
HETATM   14  C   UNL     1      29.522  44.344  55.116  1.00  0.00    -0.047 A 
HETATM   15  C   UNL     1      29.659  45.350  56.085  1.00  0.00     0.031 A 
HETATM   16  C   UNL     1      30.548  45.184  57.147  1.00  0.00     0.034 A 
HETATM   17 CL   UNL     1      30.702  46.423  58.331  1.00  0.00    -0.084 Cl
HETATM   18  C   UNL     1      31.314  44.025  57.256  1.00  0.00     0.024 A 
HETATM   19  C   UNL     1      31.189  43.022  56.296  1.00  0.00     0.002 A 
HETATM   20  C   UNL     1      30.298  43.180  55.233  1.00  0.00     0.008 A 
ENDBRANCH  13  14
ENDBRANCH  12  13
ENDBRANCH   7  12
BRANCH   2  21
HETATM   21  C   UNL     1      25.753  41.846  50.135  1.00  0.00    -0.028 A 
HETATM   22  C   UNL     1      25.845  40.500  50.533  1.00  0.00     0.011 A 
HETATM   23  C   UNL     1      26.905  39.702  50.096  1.00  0.00     0.024 A 
HETATM   24  C   UNL     1      27.882  40.242  49.262  1.00  0.00     0.034 A 
HETATM   25 CL   UNL     1      29.186  39.257  48.725  1.00  0.00    -0.084 Cl
HETATM   26  C   UNL     1      27.810  41.573  48.862  1.00  0.00     0.024 A 
HETATM   27  C   UNL     1      26.751  42.373  49.298  1.00  0.00     0.011 A 
ENDBRANCH   2  21
BRANCH   1  28
HETATM   28  C   UNL     1      23.219  42.329  48.550  1.00  0.00     0.293 C 
HETATM   29  O   UNL     1      22.319  41.591  48.914  1.00  0.00    -0.259 OA
BRANCH  28  30
HETATM   30  O   UNL     1      23.872  42.286  47.363  1.00  0.00    -0.318 OA
BRANCH  30  31
HETATM   31  C   UNL     1      24.258  40.979  46.913  1.00  0.00     0.174 C 
HETATM   32  C   UNL     1      24.748  41.028  45.478  1.00  0.00     0.034 C 
ENDBRANCH  30  31
ENDBRANCH  28  30
ENDBRANCH   1  28
TORSDOF 7
ENDMDL
MODEL 6
REMARK VINA RESULT:      -8.2      3.071      4.473
REMARK  7 active torsions:
REMARK  status: ('A' for Active; 'I' for Inactive)
REMARK    1  A    between atoms: C_2  and  O_3 
REMARK    2  A    between atoms: O_3  and  C_4 
REMARK    3  A    between atoms: C_4  and  C_5 
REMARK    4  A    between atoms: C_6  and  C_7 
REMARK    5  A    between atoms: C_18  and  S_19 
REMARK    6  A    between atoms: S_19  and  C_20 
REMARK    7  A    between atoms: C_20  and  C_21 
ROOT
HETATM    1  C   UNL     1      20.056  49.580  48.862  1.00  0.00     0.070 A 
HETATM    2  C   UNL     1      20.903  48.350  49.158  1.00  0.00     0.203 A 
HETATM    3  N   UNL     1      22.330  48.685  49.206  1.00  0.00    -0.082 N 
HETATM    4  C   UNL     1      22.839  49.929  48.949  1.00  0.00     0.726 A 
HETATM    5  N   UNL     1      21.996  50.935  48.647  1.00  0.00    -0.192 N 
HETATM    6  N   UNL     1      23.302  47.819  49.544  1.00  0.00    -0.128 NA
HETATM    7  C   UNL     1      24.386  48.590  49.408  1.00  0.00     0.226 A 
HETATM    8  N   UNL     1      24.142  49.898  49.064  1.00  0.00    -0.035 NA
HETATM    9  C   UNL     1      20.611  50.796  48.633  1.00  0.00     0.037 A 
HETATM   10  C   UNL     1      19.828  52.066  48.410  1.00  0.00     0.070 C 
HETATM   11  H   UNL     1      22.378  51.865  48.491  1.00  0.00     0.184 HD
ENDROOT
BRANCH   7  12
HETATM   12  S   UNL     1      25.976  47.924  49.638  1.00  0.00    -0.083 SA
BRANCH  12  13
HETATM   13  C   UNL     1      25.556  46.204  50.018  1.00  0.00     0.121 C 
BRANCH  13  14
HETATM   14  C   UNL     1      25.586  45.952  51.507  1.00  0.00    -0.047 A 
HETATM   15  C   UNL     1      25.872  46.995  52.401  1.00  0.00     0.031 A 
HETATM   16  C   UNL     1      25.925  46.749  53.773  1.00  0.00     0.034 A 
HETATM   17 CL   UNL     1      26.271  48.038  54.859  1.00  0.00    -0.084 Cl
HETATM   18  C   UNL     1      25.702  45.467  54.272  1.00  0.00     0.024 A 
HETATM   19  C   UNL     1      25.422  44.423  53.392  1.00  0.00     0.002 A 
HETATM   20  C   UNL     1      25.364  44.663  52.018  1.00  0.00     0.008 A 
ENDBRANCH  13  14
ENDBRANCH  12  13
ENDBRANCH   7  12
BRANCH   2  21
HETATM   21  C   UNL     1      20.670  47.218  48.157  1.00  0.00    -0.028 A 
HETATM   22  C   UNL     1      21.086  47.318  46.817  1.00  0.00     0.011 A 
HETATM   23  C   UNL     1      20.862  46.267  45.925  1.00  0.00     0.024 A 
HETATM   24  C   UNL     1      20.221  45.110  46.362  1.00  0.00     0.034 A 
HETATM   25 CL   UNL     1      19.949  43.816  45.261  1.00  0.00    -0.084 Cl
HETATM   26  C   UNL     1      19.799  44.994  47.683  1.00  0.00     0.024 A 
HETATM   27  C   UNL     1      20.020  46.044  48.577  1.00  0.00     0.011 A 
ENDBRANCH   2  21
BRANCH   1  28
HETATM   28  C   UNL     1      18.606  49.307  48.892  1.00  0.00     0.293 C 
HETATM   29  O   UNL     1      18.006  49.030  49.918  1.00  0.00    -0.259 OA
BRANCH  28  30
HETATM   30  O   UNL     1      18.101  49.312  47.635  1.00  0.00    -0.318 OA
BRANCH  30  31
HETATM   31  C   UNL     1      17.191  48.246  47.326  1.00  0.00     0.174 C 
HETATM   32  C   UNL     1      17.453  47.701  45.935  1.00  0.00     0.034 C 
ENDBRANCH  30  31
ENDBRANCH  28  30
ENDBRANCH   1  28
TORSDOF 7
ENDMDL
MODEL 7
REMARK VINA RESULT:      -8.2      4.626      7.737
REMARK  7 active torsions:
REMARK  status: ('A' for Active; 'I' for Inactive)
REMARK    1  A    between atoms: C_2  and  O_3 
REMARK    2  A    between atoms: O_3  and  C_4 
REMARK    3  A    between atoms: C_4  and  C_5 
REMARK    4  A    between atoms: C_6  and  C_7 
REMARK    5  A    between atoms: C_18  and  S_19 
REMARK    6  A    between atoms: S_19  and  C_20 
REMARK    7  A    between atoms: C_20  and  C_21 
ROOT
HETATM    1  C   UNL     1      27.987  43.187  53.496  1.00  0.00     0.070 A 
HETATM    2  C   UNL     1      26.862  42.709  52.590  1.00  0.00     0.203 A 
HETATM    3  N   UNL     1      27.305  41.612  51.723  1.00  0.00    -0.082 N 
HETATM    4  C   UNL     1      28.585  41.128  51.685  1.00  0.00     0.726 A 
HETATM    5  N   UNL     1      29.514  41.664  52.499  1.00  0.00    -0.192 N 
HETATM    6  N   UNL     1      26.499  40.928  50.891  1.00  0.00    -0.128 NA
HETATM    7  C   UNL     1      27.372  40.084  50.330  1.00  0.00     0.226 A 
HETATM    8  N   UNL     1      28.658  40.162  50.806  1.00  0.00    -0.035 NA
HETATM    9  C   UNL     1      29.235  42.659  53.431  1.00  0.00     0.037 A 
HETATM   10  C   UNL     1      30.371  43.035  54.350  1.00  0.00     0.070 C 
HETATM   11  H   UNL     1      30.455  41.277  52.491  1.00  0.00     0.184 HD
ENDROOT
BRANCH   7  12
HETATM   12  S   UNL     1      26.864  39.000  49.069  1.00  0.00    -0.083 SA
BRANCH  12  13
HETATM   13  C   UNL     1      26.622  40.174  47.711  1.00  0.00     0.121 C 
BRANCH  13  14
HETATM   14  C   UNL     1      25.269  40.840  47.802  1.00  0.00    -0.047 A 
HETATM   15  C   UNL     1      24.104  40.138  47.453  1.00  0.00     0.031 A 
HETATM   16  C   UNL     1      22.861  40.769  47.512  1.00  0.00     0.034 A 
HETATM   17 CL   UNL     1      21.441  39.895  47.087  1.00  0.00    -0.084 Cl
HETATM   18  C   UNL     1      22.759  42.100  47.912  1.00  0.00     0.024 A 
HETATM   19  C   UNL     1      23.911  42.807  48.256  1.00  0.00     0.002 A 
HETATM   20  C   UNL     1      25.158  42.181  48.202  1.00  0.00     0.008 A 
ENDBRANCH  13  14
ENDBRANCH  12  13
ENDBRANCH   7  12
BRANCH   2  21
HETATM   21  C   UNL     1      26.269  43.833  51.740  1.00  0.00    -0.028 A 
HETATM   22  C   UNL     1      27.043  44.533  50.797  1.00  0.00     0.011 A 
HETATM   23  C   UNL     1      26.475  45.555  50.032  1.00  0.00     0.024 A 
HETATM   24  C   UNL     1      25.133  45.887  50.203  1.00  0.00     0.034 A 
HETATM   25 CL   UNL     1      24.436  47.144  49.259  1.00  0.00    -0.084 Cl
HETATM   26  C   UNL     1      24.353  45.208  51.135  1.00  0.00     0.024 A 
HETATM   27  C   UNL     1      24.918  44.187  51.902  1.00  0.00     0.011 A 
ENDBRANCH   2  21
BRANCH   1  28
HETATM   28  C   UNL     1      27.562  44.231  54.449  1.00  0.00     0.293 C 
HETATM   29  O   UNL     1      26.729  44.033  55.318  1.00  0.00    -0.259 OA
BRANCH  28  30
HETATM   30  O   UNL     1      28.145  45.414  54.140  1.00  0.00    -0.318 OA
BRANCH  30  31
HETATM   31  C   UNL     1      27.475  46.585  54.632  1.00  0.00     0.174 C 
HETATM   32  C   UNL     1      26.530  47.143  53.585  1.00  0.00     0.034 C 
ENDBRANCH  30  31
ENDBRANCH  28  30
ENDBRANCH   1  28
TORSDOF 7
ENDMDL
MODEL 8
REMARK VINA RESULT:      -8.0      1.870      2.535
REMARK  7 active torsions:
REMARK  status: ('A' for Active; 'I' for Inactive)
REMARK    1  A    between atoms: C_2  and  O_3 
REMARK    2  A    between atoms: O_3  and  C_4 
REMARK    3  A    between atoms: C_4  and  C_5 
REMARK    4  A    between atoms: C_6  and  C_7 
REMARK    5  A    between atoms: C_18  and  S_19 
REMARK    6  A    between atoms: S_19  and  C_20 
REMARK    7  A    between atoms: C_20  and  C_21 
ROOT
HETATM    1  C   UNL     1      22.206  48.988  48.649  1.00  0.00     0.070 A 
HETATM    2  C   UNL     1      22.257  47.566  49.190  1.00  0.00     0.203 A 
HETATM    3  N   UNL     1      23.631  47.169  49.516  1.00  0.00    -0.082 N 
HETATM    4  C   UNL     1      24.732  47.950  49.296  1.00  0.00     0.726 A 
HETATM    5  N   UNL     1      24.572  49.177  48.763  1.00  0.00    -0.192 N 
HETATM    6  N   UNL     1      23.966  46.005  50.102  1.00  0.00    -0.128 NA
HETATM    7  C   UNL     1      25.297  46.120  50.150  1.00  0.00     0.226 A 
HETATM    8  N   UNL     1      25.805  47.309  49.684  1.00  0.00    -0.035 NA
HETATM    9  C   UNL     1      23.328  49.728  48.468  1.00  0.00     0.037 A 
HETATM   10  C   UNL     1      23.340  51.165  48.009  1.00  0.00     0.070 C 
HETATM   11  H   UNL     1      25.391  49.766  48.634  1.00  0.00     0.184 HD
ENDROOT
BRANCH   7  12
HETATM   12  S   UNL     1      26.275  44.813  50.748  1.00  0.00    -0.083 SA
BRANCH  12  13
HETATM   13  C   UNL     1      25.589  44.632  52.414  1.00  0.00     0.121 C 
BRANCH  13  14
HETATM   14  C   UNL     1      26.461  45.320  53.439  1.00  0.00    -0.047 A 
HETATM   15  C   UNL     1      26.062  46.539  54.010  1.00  0.00     0.031 A 
HETATM   16  C   UNL     1      26.884  47.182  54.935  1.00  0.00     0.034 A 
HETATM   17 CL   UNL     1      26.381  48.674  55.631  1.00  0.00    -0.084 Cl
HETATM   18  C   UNL     1      28.110  46.629  55.300  1.00  0.00     0.024 A 
HETATM   19  C   UNL     1      28.517  45.421  54.735  1.00  0.00     0.002 A 
HETATM   20  C   UNL     1      27.698  44.770  53.811  1.00  0.00     0.008 A 
ENDBRANCH  13  14
ENDBRANCH  12  13
ENDBRANCH   7  12
BRANCH   2  21
HETATM   21  C   UNL     1      21.636  46.548  48.233  1.00  0.00    -0.028 A 
HETATM   22  C   UNL     1      22.206  46.271  46.977  1.00  0.00     0.011 A 
HETATM   23  C   UNL     1      21.618  45.333  46.124  1.00  0.00     0.024 A 
HETATM   24  C   UNL     1      20.460  44.667  46.516  1.00  0.00     0.034 A 
HETATM   25 CL   UNL     1      19.740  43.512  45.464  1.00  0.00    -0.084 Cl
HETATM   26  C   UNL     1      19.880  44.931  47.754  1.00  0.00     0.024 A 
HETATM   27  C   UNL     1      20.464  45.869  48.608  1.00  0.00     0.011 A 
ENDBRANCH   2  21
BRANCH   1  28
HETATM   28  C   UNL     1      20.833  49.462  48.391  1.00  0.00     0.293 C 
HETATM   29  O   UNL     1      20.419  49.712  47.271  1.00  0.00    -0.259 OA
BRANCH  28  30
HETATM   30  O   UNL     1      20.178  49.665  49.560  1.00  0.00    -0.318 OA
BRANCH  30  31
HETATM   31  C   UNL     1      20.240  51.000  50.084  1.00  0.00     0.174 C 
HETATM   32  C   UNL     1      18.958  51.754  49.787  1.00  0.00     0.034 C 
ENDBRANCH  30  31
ENDBRANCH  28  30
ENDBRANCH   1  28
TORSDOF 7
ENDMDL
MODEL 9
REMARK VINA RESULT:      -8.0      5.463      8.255
REMARK  7 active torsions:
REMARK  status: ('A' for Active; 'I' for Inactive)
REMARK    1  A    between atoms: C_2  and  O_3 
REMARK    2  A    between atoms: O_3  and  C_4 
REMARK    3  A    between atoms: C_4  and  C_5 
REMARK    4  A    between atoms: C_6  and  C_7 
REMARK    5  A    between atoms: C_18  and  S_19 
REMARK    6  A    between atoms: S_19  and  C_20 
REMARK    7  A    between atoms: C_20  and  C_21 
ROOT
HETATM    1  C   UNL     1      27.965  43.232  53.421  1.00  0.00     0.070 A 
HETATM    2  C   UNL     1      26.813  42.874  52.492  1.00  0.00     0.203 A 
HETATM    3  N   UNL     1      27.186  41.792  51.574  1.00  0.00    -0.082 N 
HETATM    4  C   UNL     1      28.431  41.227  51.514  1.00  0.00     0.726 A 
HETATM    5  N   UNL     1      29.391  41.660  52.353  1.00  0.00    -0.192 N 
HETATM    6  N   UNL     1      26.339  41.205  50.710  1.00  0.00    -0.128 NA
HETATM    7  C   UNL     1      27.156  40.332  50.110  1.00  0.00     0.226 A 
HETATM    8  N   UNL     1      28.443  40.301  50.590  1.00  0.00    -0.035 NA
HETATM    9  C   UNL     1      29.175  42.626  53.332  1.00  0.00     0.037 A 
HETATM   10  C   UNL     1      30.330  42.881  54.268  1.00  0.00     0.070 C 
HETATM   11  H   UNL     1      30.304  41.212  52.327  1.00  0.00     0.184 HD
ENDROOT
BRANCH   7  12
HETATM   12  S   UNL     1      26.582  39.345  48.798  1.00  0.00    -0.083 SA
BRANCH  12  13
HETATM   13  C   UNL     1      28.150  38.942  47.987  1.00  0.00     0.121 C 
BRANCH  13  14
HETATM   14  C   UNL     1      28.112  39.299  46.519  1.00  0.00    -0.047 A 
HETATM   15  C   UNL     1      28.169  38.295  45.540  1.00  0.00     0.031 A 
HETATM   16  C   UNL     1      28.161  38.634  44.187  1.00  0.00     0.034 A 
HETATM   17 CL   UNL     1      28.225  37.394  42.996  1.00  0.00    -0.084 Cl
HETATM   18  C   UNL     1      28.104  39.969  43.791  1.00  0.00     0.024 A 
HETATM   19  C   UNL     1      28.053  40.974  44.756  1.00  0.00     0.002 A 
HETATM   20  C   UNL     1      28.056  40.642  46.112  1.00  0.00     0.008 A 
ENDBRANCH  13  14
ENDBRANCH  12  13
ENDBRANCH   7  12
BRANCH   2  21
HETATM   21  C   UNL     1      26.301  44.075  51.697  1.00  0.00    -0.028 A 
HETATM   22  C   UNL     1      27.100  44.721  50.736  1.00  0.00     0.011 A 
HETATM   23  C   UNL     1      26.604  45.815  50.022  1.00  0.00     0.024 A 
HETATM   24  C   UNL     1      25.311  46.272  50.262  1.00  0.00     0.034 A 
HETATM   25 CL   UNL     1      24.703  47.618  49.379  1.00  0.00    -0.084 Cl
HETATM   26  C   UNL     1      24.507  45.648  51.211  1.00  0.00     0.024 A 
HETATM   27  C   UNL     1      25.000  44.555  51.928  1.00  0.00     0.011 A 
ENDBRANCH   2  21
BRANCH   1  28
HETATM   28  C   UNL     1      27.606  44.256  54.422  1.00  0.00     0.293 C 
HETATM   29  O   UNL     1      26.738  44.084  55.262  1.00  0.00    -0.259 OA
BRANCH  28  30
HETATM   30  O   UNL     1      28.296  45.399  54.193  1.00  0.00    -0.318 OA
BRANCH  30  31
HETATM   31  C   UNL     1      27.756  46.583  54.798  1.00  0.00     0.174 C 
HETATM   32  C   UNL     1      26.768  47.260  53.867  1.00  0.00     0.034 C 
ENDBRANCH  30  31
ENDBRANCH  28  30
ENDBRANCH   1  28
TORSDOF 7
ENDMDL
MODEL 10
REMARK VINA RESULT:      -7.9      5.913      8.279
REMARK  7 active torsions:
REMARK  status: ('A' for Active; 'I' for Inactive)
REMARK    1  A    between atoms: C_2  and  O_3 
REMARK    2  A    between atoms: O_3  and  C_4 
REMARK    3  A    between atoms: C_4  and  C_5 
REMARK    4  A    between atoms: C_6  and  C_7 
REMARK    5  A    between atoms: C_18  and  S_19 
REMARK    6  A    between atoms: S_19  and  C_20 
REMARK    7  A    between atoms: C_20  and  C_21 
ROOT
HETATM    1  C   UNL     1      27.846  43.216  53.297  1.00  0.00     0.070 A 
HETATM    2  C   UNL     1      26.717  42.920  52.321  1.00  0.00     0.203 A 
HETATM    3  N   UNL     1      27.098  41.874  51.366  1.00  0.00    -0.082 N 
HETATM    4  C   UNL     1      28.334  41.290  51.316  1.00  0.00     0.726 A 
HETATM    5  N   UNL     1      29.277  41.668  52.200  1.00  0.00    -0.192 N 
HETATM    6  N   UNL     1      26.267  41.340  50.453  1.00  0.00    -0.128 NA
HETATM    7  C   UNL     1      27.086  40.481  49.837  1.00  0.00     0.226 A 
HETATM    8  N   UNL     1      28.358  40.406  50.352  1.00  0.00    -0.035 NA
HETATM    9  C   UNL     1      29.048  42.594  53.215  1.00  0.00     0.037 A 
HETATM   10  C   UNL     1      30.180  42.786  54.193  1.00  0.00     0.070 C 
HETATM   11  H   UNL     1      30.183  41.205  52.180  1.00  0.00     0.184 HD
ENDROOT
BRANCH   7  12
HETATM   12  S   UNL     1      26.534  39.564  48.467  1.00  0.00    -0.083 SA
BRANCH  12  13
HETATM   13  C   UNL     1      26.831  37.880  49.063  1.00  0.00     0.121 C 
BRANCH  13  14
HETATM   14  C   UNL     1      27.210  36.959  47.927  1.00  0.00    -0.047 A 
HETATM   15  C   UNL     1      28.280  37.280  47.076  1.00  0.00     0.031 A 
HETATM   16  C   UNL     1      28.607  36.438  46.013  1.00  0.00     0.034 A 
HETATM   17 CL   UNL     1      29.924  36.841  44.981  1.00  0.00    -0.084 Cl
HETATM   18  C   UNL     1      27.876  35.275  45.779  1.00  0.00     0.024 A 
HETATM   19  C   UNL     1      26.809  34.950  46.615  1.00  0.00     0.002 A 
HETATM   20  C   UNL     1      26.478  35.786  47.683  1.00  0.00     0.008 A 
ENDBRANCH  13  14
ENDBRANCH  12  13
ENDBRANCH   7  12
BRANCH   2  21
HETATM   21  C   UNL     1      26.247  44.164  51.566  1.00  0.00    -0.028 A 
HETATM   22  C   UNL     1      24.969  44.716  51.774  1.00  0.00     0.011 A 
HETATM   23  C   UNL     1      24.568  45.856  51.072  1.00  0.00     0.024 A 
HETATM   24  C   UNL     1      25.435  46.450  50.159  1.00  0.00     0.034 A 
HETATM   25 CL   UNL     1      24.937  47.854  49.298  1.00  0.00    -0.084 Cl
HETATM   26  C   UNL     1      26.700  45.916  49.937  1.00  0.00     0.024 A 
HETATM   27  C   UNL     1      27.105  44.776  50.636  1.00  0.00     0.011 A 
ENDBRANCH   2  21
BRANCH   1  28
HETATM   28  C   UNL     1      27.476  44.200  54.332  1.00  0.00     0.293 C 
HETATM   29  O   UNL     1      26.598  43.996  55.155  1.00  0.00    -0.259 OA
BRANCH  28  30
HETATM   30  O   UNL     1      28.168  45.352  54.155  1.00  0.00    -0.318 OA
BRANCH  30  31
HETATM   31  C   UNL     1      27.614  46.514  54.789  1.00  0.00     0.174 C 
HETATM   32  C   UNL     1      26.718  47.274  53.830  1.00  0.00     0.034 C 
ENDBRANCH  30  31
ENDBRANCH  28  30
ENDBRANCH   1  28
TORSDOF 7
ENDMDL
