MODEL 1
REMARK VINA RESULT:      -8.8      0.000      0.000
REMARK  7 active torsions:
REMARK  status: ('A' for Active; 'I' for Inactive)
REMARK    1  A    between atoms: O_2  and  C_3 
REMARK    2  A    between atoms: C_4  and  C_5 
REMARK    3  A    between atoms: C_5  and  N_6 
REMARK    4  A    between atoms: C_5  and  C_12 
REMARK    5  A    between atoms: C_12  and  N_13 
REMARK       I    between atoms: N_13  and  C_14 
REMARK       I    between atoms: C_14  and  N_15 
REMARK    6  A    between atoms: N_15  and  C_16 
REMARK    7  A    between atoms: C_17  and  O_18 
ROOT
HETATM    1  N   UNL     1      23.509  47.972  49.940  1.00  0.00    -0.341 N 
HETATM    2  C   UNL     1      22.585  48.284  48.991  1.00  0.00     0.316 C 
HETATM    3  N   UNL     1      21.329  48.413  49.488  1.00  0.00    -0.332 N 
HETATM    4  O   UNL     1      22.889  48.435  47.813  1.00  0.00    -0.247 OA
HETATM    5  H   UNL     1      23.178  47.876  50.893  1.00  0.00     0.164 HD
HETATM    6  H   UNL     1      21.109  47.927  50.348  1.00  0.00     0.165 HD
ENDROOT
BRANCH   1   7
HETATM    7  C   UNL     1      24.860  47.507  49.631  1.00  0.00     0.162 C 
BRANCH   7   8
HETATM    8  C   UNL     1      25.069  45.955  49.642  1.00  0.00     0.241 C 
BRANCH   8   9
HETATM    9  C   UNL     1      25.925  45.497  50.822  1.00  0.00     0.007 A 
HETATM   10  C   UNL     1      26.841  44.433  50.678  1.00  0.00     0.076 A 
HETATM   11  C   UNL     1      27.584  43.992  51.779  1.00  0.00     0.037 A 
HETATM   12  C   UNL     1      27.455  44.619  53.017  1.00  0.00     0.003 A 
HETATM   13  C   UNL     1      26.591  45.695  53.165  1.00  0.00     0.001 A 
HETATM   14  C   UNL     1      25.837  46.134  52.077  1.00  0.00     0.012 A 
BRANCH  10  15
HETATM   15  O   UNL     1      26.932  43.877  49.427  1.00  0.00    -0.355 OA
HETATM   16  C   UNL     1      26.930  42.452  49.353  1.00  0.00     0.210 C 
ENDBRANCH  10  15
ENDBRANCH   8   9
BRANCH   8  17
HETATM   17  N   UNL     1      23.732  45.218  49.501  1.00  0.00    -0.061 N 
HETATM   18  H   UNL     1      23.014  45.951  49.673  1.00  0.00     0.280 HD
HETATM   19  C   UNL     1      23.382  44.133  50.487  1.00  0.00     0.236 C 
HETATM   20  C   UNL     1      23.339  42.870  49.655  1.00  0.00     0.029 C 
HETATM   21  C   UNL     1      22.745  43.359  48.350  1.00  0.00     0.029 C 
HETATM   22  C   UNL     1      23.463  44.675  48.114  1.00  0.00     0.236 C 
ENDBRANCH   8  17
ENDBRANCH   7   8
ENDBRANCH   1   7
BRANCH   3  23
HETATM   23  C   UNL     1      20.192  48.547  48.591  1.00  0.00     0.149 C 
HETATM   24  C   UNL     1      18.960  47.703  49.047  1.00  0.00     0.149 C 
HETATM   25  C   UNL     1      17.705  48.505  48.662  1.00  0.00     0.073 C 
HETATM   26  C   UNL     1      18.228  49.911  48.637  1.00  0.00    -0.047 A 
HETATM   27  C   UNL     1      19.626  49.940  48.590  1.00  0.00    -0.026 A 
HETATM   28  C   UNL     1      17.484  51.080  48.603  1.00  0.00     0.008 A 
HETATM   29  C   UNL     1      20.306  51.146  48.496  1.00  0.00     0.010 A 
HETATM   30  C   UNL     1      19.565  52.329  48.471  1.00  0.00     0.001 A 
HETATM   31  C   UNL     1      18.163  52.295  48.527  1.00  0.00     0.001 A 
BRANCH  24  32
HETATM   32  O   UNL     1      18.961  47.499  50.472  1.00  0.00    -0.393 OA
HETATM   33  H   UNL     1      18.404  48.196  50.854  1.00  0.00     0.210 HD
ENDBRANCH  24  32
ENDBRANCH   3  23
TORSDOF 7
ENDMDL
MODEL 2
REMARK VINA RESULT:      -8.7      3.238      9.471
REMARK  7 active torsions:
REMARK  status: ('A' for Active; 'I' for Inactive)
REMARK    1  A    between atoms: O_2  and  C_3 
REMARK    2  A    between atoms: C_4  and  C_5 
REMARK    3  A    between atoms: C_5  and  N_6 
REMARK    4  A    between atoms: C_5  and  C_12 
REMARK    5  A    between atoms: C_12  and  N_13 
REMARK       I    between atoms: N_13  and  C_14 
REMARK       I    between atoms: C_14  and  N_15 
REMARK    6  A    between atoms: N_15  and  C_16 
REMARK    7  A    between atoms: C_17  and  O_18 
ROOT
HETATM    1  N   UNL     1      26.429  46.852  52.880  1.00  0.00    -0.341 N 
HETATM    2  C   UNL     1      26.591  45.815  53.746  1.00  0.00     0.316 C 
HETATM    3  N   UNL     1      27.878  45.397  53.846  1.00  0.00    -0.332 N 
HETATM    4  O   UNL     1      25.649  45.333  54.365  1.00  0.00    -0.247 OA
HETATM    5  H   UNL     1      27.260  47.200  52.416  1.00  0.00     0.164 HD
HETATM    6  H   UNL     1      28.496  45.578  53.066  1.00  0.00     0.165 HD
ENDROOT
BRANCH   1   7
HETATM    7  C   UNL     1      25.128  47.296  52.384  1.00  0.00     0.162 C 
BRANCH   7   8
HETATM    8  C   UNL     1      24.807  46.945  50.891  1.00  0.00     0.241 C 
BRANCH   8   9
HETATM    9  C   UNL     1      25.355  47.993  49.924  1.00  0.00     0.007 A 
HETATM   10  C   UNL     1      24.481  48.807  49.172  1.00  0.00     0.076 A 
HETATM   11  C   UNL     1      24.995  49.729  48.254  1.00  0.00     0.037 A 
HETATM   12  C   UNL     1      26.372  49.880  48.097  1.00  0.00     0.003 A 
HETATM   13  C   UNL     1      27.246  49.118  48.861  1.00  0.00     0.001 A 
HETATM   14  C   UNL     1      26.744  48.188  49.769  1.00  0.00     0.012 A 
BRANCH  10  15
HETATM   15  O   UNL     1      23.140  48.620  49.392  1.00  0.00    -0.355 OA
HETATM   16  C   UNL     1      22.309  49.780  49.340  1.00  0.00     0.210 C 
ENDBRANCH  10  15
ENDBRANCH   8   9
BRANCH   8  17
HETATM   17  N   UNL     1      25.212  45.503  50.566  1.00  0.00    -0.061 N 
HETATM   18  H   UNL     1      26.167  45.407  50.966  1.00  0.00     0.280 HD
HETATM   19  C   UNL     1      25.382  45.094  49.125  1.00  0.00     0.236 C 
HETATM   20  C   UNL     1      24.290  44.073  48.893  1.00  0.00     0.029 C 
HETATM   21  C   UNL     1      24.248  43.335  50.215  1.00  0.00     0.029 C 
HETATM   22  C   UNL     1      24.359  44.449  51.238  1.00  0.00     0.236 C 
ENDBRANCH   8  17
ENDBRANCH   7   8
ENDBRANCH   1   7
BRANCH   3  23
HETATM   23  C   UNL     1      28.202  44.177  54.570  1.00  0.00     0.149 C 
HETATM   24  C   UNL     1      28.792  43.066  53.645  1.00  0.00     0.149 C 
HETATM   25  C   UNL     1      29.828  42.296  54.483  1.00  0.00     0.073 C 
HETATM   26  C   UNL     1      30.232  43.322  55.501  1.00  0.00    -0.047 A 
HETATM   27  C   UNL     1      29.316  44.378  55.558  1.00  0.00    -0.026 A 
HETATM   28  C   UNL     1      31.323  43.270  56.353  1.00  0.00     0.008 A 
HETATM   29  C   UNL     1      29.473  45.401  56.483  1.00  0.00     0.010 A 
HETATM   30  C   UNL     1      30.576  45.362  57.339  1.00  0.00     0.001 A 
HETATM   31  C   UNL     1      31.496  44.305  57.272  1.00  0.00     0.001 A 
BRANCH  24  32
HETATM   32  O   UNL     1      29.451  43.631  52.498  1.00  0.00    -0.393 OA
HETATM   33  H   UNL     1      30.295  43.994  52.812  1.00  0.00     0.210 HD
ENDBRANCH  24  32
ENDBRANCH   3  23
TORSDOF 7
ENDMDL
MODEL 3
REMARK VINA RESULT:      -8.6      6.760     10.187
REMARK  7 active torsions:
REMARK  status: ('A' for Active; 'I' for Inactive)
REMARK    1  A    between atoms: O_2  and  C_3 
REMARK    2  A    between atoms: C_4  and  C_5 
REMARK    3  A    between atoms: C_5  and  N_6 
REMARK    4  A    between atoms: C_5  and  C_12 
REMARK    5  A    between atoms: C_12  and  N_13 
REMARK       I    between atoms: N_13  and  C_14 
REMARK       I    between atoms: C_14  and  N_15 
REMARK    6  A    between atoms: N_15  and  C_16 
REMARK    7  A    between atoms: C_17  and  O_18 
ROOT
HETATM    1  N   UNL     1      28.460  41.222  52.795  1.00  0.00    -0.341 N 
HETATM    2  C   UNL     1      29.228  42.286  53.153  1.00  0.00     0.316 C 
HETATM    3  N   UNL     1      28.614  43.118  54.032  1.00  0.00    -0.332 N 
HETATM    4  O   UNL     1      30.362  42.446  52.715  1.00  0.00    -0.247 OA
HETATM    5  H   UNL     1      27.539  41.156  53.211  1.00  0.00     0.164 HD
HETATM    6  H   UNL     1      27.603  43.125  54.048  1.00  0.00     0.165 HD
ENDROOT
BRANCH   1   7
HETATM    7  C   UNL     1      28.770  40.345  51.667  1.00  0.00     0.162 C 
BRANCH   7   8
HETATM    8  C   UNL     1      28.144  40.753  50.290  1.00  0.00     0.241 C 
BRANCH   8   9
HETATM    9  C   UNL     1      27.935  39.549  49.373  1.00  0.00     0.007 A 
HETATM   10  C   UNL     1      27.984  39.694  47.970  1.00  0.00     0.076 A 
HETATM   11  C   UNL     1      27.743  38.593  47.141  1.00  0.00     0.037 A 
HETATM   12  C   UNL     1      27.489  37.336  47.688  1.00  0.00     0.003 A 
HETATM   13  C   UNL     1      27.481  37.167  49.066  1.00  0.00     0.001 A 
HETATM   14  C   UNL     1      27.708  38.261  49.901  1.00  0.00     0.012 A 
BRANCH  10  15
HETATM   15  O   UNL     1      28.260  40.954  47.501  1.00  0.00    -0.355 OA
HETATM   16  C   UNL     1      28.228  41.137  46.086  1.00  0.00     0.210 C 
ENDBRANCH  10  15
ENDBRANCH   8   9
BRANCH   8  17
HETATM   17  N   UNL     1      26.900  41.626  50.488  1.00  0.00    -0.061 N 
HETATM   18  H   UNL     1      26.801  41.704  51.521  1.00  0.00     0.280 HD
HETATM   19  C   UNL     1      25.559  41.110  50.035  1.00  0.00     0.236 C 
HETATM   20  C   UNL     1      25.152  42.048  48.920  1.00  0.00     0.029 C 
HETATM   21  C   UNL     1      25.671  43.384  49.413  1.00  0.00     0.029 C 
HETATM   22  C   UNL     1      27.041  43.040  49.965  1.00  0.00     0.236 C 
ENDBRANCH   8  17
ENDBRANCH   7   8
ENDBRANCH   1   7
BRANCH   3  23
HETATM   23  C   UNL     1      29.207  44.404  54.367  1.00  0.00     0.149 C 
HETATM   24  C   UNL     1      28.139  45.501  54.669  1.00  0.00     0.149 C 
HETATM   25  C   UNL     1      28.730  46.405  55.765  1.00  0.00     0.073 C 
HETATM   26  C   UNL     1      29.698  45.483  56.444  1.00  0.00    -0.047 A 
HETATM   27  C   UNL     1      29.975  44.358  55.658  1.00  0.00    -0.026 A 
HETATM   28  C   UNL     1      30.325  45.679  57.664  1.00  0.00     0.008 A 
HETATM   29  C   UNL     1      30.899  43.412  56.079  1.00  0.00     0.010 A 
HETATM   30  C   UNL     1      31.528  43.597  57.312  1.00  0.00     0.001 A 
HETATM   31  C   UNL     1      31.240  44.721  58.100  1.00  0.00     0.001 A 
BRANCH  24  32
HETATM   32  O   UNL     1      26.914  44.922  55.155  1.00  0.00    -0.393 OA
HETATM   33  H   UNL     1      26.379  45.654  55.504  1.00  0.00     0.210 HD
ENDBRANCH  24  32
ENDBRANCH   3  23
TORSDOF 7
ENDMDL
MODEL 4
REMARK VINA RESULT:      -8.3      1.841      3.340
REMARK  7 active torsions:
REMARK  status: ('A' for Active; 'I' for Inactive)
REMARK    1  A    between atoms: O_2  and  C_3 
REMARK    2  A    between atoms: C_4  and  C_5 
REMARK    3  A    between atoms: C_5  and  N_6 
REMARK    4  A    between atoms: C_5  and  C_12 
REMARK    5  A    between atoms: C_12  and  N_13 
REMARK       I    between atoms: N_13  and  C_14 
REMARK       I    between atoms: C_14  and  N_15 
REMARK    6  A    between atoms: N_15  and  C_16 
REMARK    7  A    between atoms: C_17  and  O_18 
ROOT
HETATM    1  N   UNL     1      22.873  47.926  49.663  1.00  0.00    -0.341 N 
HETATM    2  C   UNL     1      21.893  48.092  48.734  1.00  0.00     0.316 C 
HETATM    3  N   UNL     1      20.857  48.849  49.176  1.00  0.00    -0.332 N 
HETATM    4  O   UNL     1      21.970  47.599  47.614  1.00  0.00    -0.247 OA
HETATM    5  H   UNL     1      22.738  48.376  50.561  1.00  0.00     0.164 HD
HETATM    6  H   UNL     1      20.698  48.895  50.174  1.00  0.00     0.165 HD
ENDROOT
BRANCH   1   7
HETATM    7  C   UNL     1      23.943  46.939  49.543  1.00  0.00     0.162 C 
BRANCH   7   8
HETATM    8  C   UNL     1      25.344  47.375  50.092  1.00  0.00     0.241 C 
BRANCH   8   9
HETATM    9  C   UNL     1      26.061  46.233  50.810  1.00  0.00     0.007 A 
HETATM   10  C   UNL     1      26.313  46.299  52.198  1.00  0.00     0.076 A 
HETATM   11  C   UNL     1      27.014  45.269  52.834  1.00  0.00     0.037 A 
HETATM   12  C   UNL     1      27.439  44.152  52.117  1.00  0.00     0.003 A 
HETATM   13  C   UNL     1      27.161  44.051  50.760  1.00  0.00     0.001 A 
HETATM   14  C   UNL     1      26.474  45.078  50.114  1.00  0.00     0.012 A 
BRANCH  10  15
HETATM   15  O   UNL     1      25.849  47.416  52.845  1.00  0.00    -0.355 OA
HETATM   16  C   UNL     1      25.994  47.447  54.264  1.00  0.00     0.210 C 
ENDBRANCH  10  15
ENDBRANCH   8   9
BRANCH   8  17
HETATM   17  N   UNL     1      26.173  48.063  49.002  1.00  0.00    -0.061 N 
HETATM   18  H   UNL     1      25.994  47.498  48.147  1.00  0.00     0.280 HD
HETATM   19  C   UNL     1      27.675  48.075  49.117  1.00  0.00     0.236 C 
HETATM   20  C   UNL     1      28.026  49.537  49.293  1.00  0.00     0.029 C 
HETATM   21  C   UNL     1      27.019  50.223  48.393  1.00  0.00     0.029 C 
HETATM   22  C   UNL     1      25.731  49.474  48.681  1.00  0.00     0.236 C 
ENDBRANCH   8  17
ENDBRANCH   7   8
ENDBRANCH   1   7
BRANCH   3  23
HETATM   23  C   UNL     1      19.639  48.963  48.389  1.00  0.00     0.149 C 
HETATM   24  C   UNL     1      18.544  47.937  48.821  1.00  0.00     0.149 C 
HETATM   25  C   UNL     1      17.185  48.635  48.635  1.00  0.00     0.073 C 
HETATM   26  C   UNL     1      17.558  50.083  48.754  1.00  0.00    -0.047 A 
HETATM   27  C   UNL     1      18.937  50.273  48.609  1.00  0.00    -0.026 A 
HETATM   28  C   UNL     1      16.699  51.157  48.926  1.00  0.00     0.008 A 
HETATM   29  C   UNL     1      19.480  51.550  48.623  1.00  0.00     0.010 A 
HETATM   30  C   UNL     1      18.623  52.638  48.805  1.00  0.00     0.001 A 
HETATM   31  C   UNL     1      17.242  52.441  48.958  1.00  0.00     0.001 A 
BRANCH  24  32
HETATM   32  O   UNL     1      18.689  47.564  50.204  1.00  0.00    -0.393 OA
HETATM   33  H   UNL     1      19.113  46.691  50.214  1.00  0.00     0.210 HD
ENDBRANCH  24  32
ENDBRANCH   3  23
TORSDOF 7
ENDMDL
MODEL 5
REMARK VINA RESULT:      -8.2      2.416      8.988
REMARK  7 active torsions:
REMARK  status: ('A' for Active; 'I' for Inactive)
REMARK    1  A    between atoms: O_2  and  C_3 
REMARK    2  A    between atoms: C_4  and  C_5 
REMARK    3  A    between atoms: C_5  and  N_6 
REMARK    4  A    between atoms: C_5  and  C_12 
REMARK    5  A    between atoms: C_12  and  N_13 
REMARK       I    between atoms: N_13  and  C_14 
REMARK       I    between atoms: C_14  and  N_15 
REMARK    6  A    between atoms: N_15  and  C_16 
REMARK    7  A    between atoms: C_17  and  O_18 
ROOT
HETATM    1  N   UNL     1      26.049  45.964  50.953  1.00  0.00    -0.341 N 
HETATM    2  C   UNL     1      26.140  44.917  51.817  1.00  0.00     0.316 C 
HETATM    3  N   UNL     1      27.113  45.075  52.750  1.00  0.00    -0.332 N 
HETATM    4  O   UNL     1      25.397  43.944  51.740  1.00  0.00    -0.247 OA
HETATM    5  H   UNL     1      26.692  46.735  51.092  1.00  0.00     0.164 HD
HETATM    6  H   UNL     1      27.886  45.687  52.527  1.00  0.00     0.165 HD
ENDROOT
BRANCH   1   7
HETATM    7  C   UNL     1      25.289  45.919  49.705  1.00  0.00     0.162 C 
BRANCH   7   8
HETATM    8  C   UNL     1      23.848  46.530  49.758  1.00  0.00     0.241 C 
BRANCH   8   9
HETATM    9  C   UNL     1      23.799  47.940  49.172  1.00  0.00     0.007 A 
HETATM   10  C   UNL     1      22.563  48.582  48.940  1.00  0.00     0.076 A 
HETATM   11  C   UNL     1      22.531  49.854  48.359  1.00  0.00     0.037 A 
HETATM   12  C   UNL     1      23.714  50.517  48.037  1.00  0.00     0.003 A 
HETATM   13  C   UNL     1      24.939  49.918  48.300  1.00  0.00     0.001 A 
HETATM   14  C   UNL     1      24.982  48.645  48.867  1.00  0.00     0.012 A 
BRANCH  10  15
HETATM   15  O   UNL     1      21.440  47.881  49.300  1.00  0.00    -0.355 OA
HETATM   16  C   UNL     1      20.181  48.486  49.008  1.00  0.00     0.210 C 
ENDBRANCH  10  15
ENDBRANCH   8   9
BRANCH   8  17
HETATM   17  N   UNL     1      22.817  45.560  49.169  1.00  0.00    -0.061 N 
HETATM   18  H   UNL     1      21.933  46.108  49.141  1.00  0.00     0.280 HD
HETATM   19  C   UNL     1      22.448  44.319  49.941  1.00  0.00     0.236 C 
HETATM   20  C   UNL     1      22.942  43.179  49.077  1.00  0.00     0.029 C 
HETATM   21  C   UNL     1      22.665  43.687  47.677  1.00  0.00     0.029 C 
HETATM   22  C   UNL     1      23.101  45.139  47.743  1.00  0.00     0.236 C 
ENDBRANCH   8  17
ENDBRANCH   7   8
ENDBRANCH   1   7
BRANCH   3  23
HETATM   23  C   UNL     1      27.481  43.972  53.625  1.00  0.00     0.149 C 
HETATM   24  C   UNL     1      28.137  42.784  52.854  1.00  0.00     0.149 C 
HETATM   25  C   UNL     1      29.194  42.177  53.794  1.00  0.00     0.073 C 
HETATM   26  C   UNL     1      29.532  43.339  54.679  1.00  0.00    -0.047 A 
HETATM   27  C   UNL     1      28.567  44.349  54.593  1.00  0.00    -0.026 A 
HETATM   28  C   UNL     1      30.610  43.447  55.543  1.00  0.00     0.008 A 
HETATM   29  C   UNL     1      28.660  45.486  55.384  1.00  0.00     0.010 A 
HETATM   30  C   UNL     1      29.748  45.608  56.250  1.00  0.00     0.001 A 
HETATM   31  C   UNL     1      30.718  44.596  56.327  1.00  0.00     0.001 A 
BRANCH  24  32
HETATM   32  O   UNL     1      28.790  43.234  51.652  1.00  0.00    -0.393 OA
HETATM   33  H   UNL     1      29.736  43.047  51.762  1.00  0.00     0.210 HD
ENDBRANCH  24  32
ENDBRANCH   3  23
TORSDOF 7
ENDMDL
MODEL 6
REMARK VINA RESULT:      -8.2      7.278      9.584
REMARK  7 active torsions:
REMARK  status: ('A' for Active; 'I' for Inactive)
REMARK    1  A    between atoms: O_2  and  C_3 
REMARK    2  A    between atoms: C_4  and  C_5 
REMARK    3  A    between atoms: C_5  and  N_6 
REMARK    4  A    between atoms: C_5  and  C_12 
REMARK    5  A    between atoms: C_12  and  N_13 
REMARK       I    between atoms: N_13  and  C_14 
REMARK       I    between atoms: C_14  and  N_15 
REMARK    6  A    between atoms: N_15  and  C_16 
REMARK    7  A    between atoms: C_17  and  O_18 
ROOT
HETATM    1  N   UNL     1      26.413  40.787  51.329  1.00  0.00    -0.341 N 
HETATM    2  C   UNL     1      27.020  41.997  51.470  1.00  0.00     0.316 C 
HETATM    3  N   UNL     1      26.959  42.481  52.736  1.00  0.00    -0.332 N 
HETATM    4  O   UNL     1      27.565  42.564  50.530  1.00  0.00    -0.247 OA
HETATM    5  H   UNL     1      25.996  40.380  52.157  1.00  0.00     0.164 HD
HETATM    6  H   UNL     1      26.208  42.157  53.331  1.00  0.00     0.165 HD
ENDROOT
BRANCH   1   7
HETATM    7  C   UNL     1      26.095  40.189  50.033  1.00  0.00     0.162 C 
BRANCH   7   8
HETATM    8  C   UNL     1      27.318  39.734  49.169  1.00  0.00     0.241 C 
BRANCH   8   9
HETATM    9  C   UNL     1      28.099  38.599  49.829  1.00  0.00     0.007 A 
HETATM   10  C   UNL     1      27.611  37.275  49.798  1.00  0.00     0.076 A 
HETATM   11  C   UNL     1      28.312  36.253  50.447  1.00  0.00     0.037 A 
HETATM   12  C   UNL     1      29.514  36.521  51.100  1.00  0.00     0.003 A 
HETATM   13  C   UNL     1      30.030  37.810  51.102  1.00  0.00     0.001 A 
HETATM   14  C   UNL     1      29.334  38.838  50.468  1.00  0.00     0.012 A 
BRANCH  10  15
HETATM   15  O   UNL     1      26.434  37.079  49.120  1.00  0.00    -0.355 OA
HETATM   16  C   UNL     1      26.415  36.034  48.149  1.00  0.00     0.210 C 
ENDBRANCH  10  15
ENDBRANCH   8   9
BRANCH   8  17
HETATM   17  N   UNL     1      26.897  39.459  47.721  1.00  0.00    -0.061 N 
HETATM   18  H   UNL     1      26.420  38.535  47.761  1.00  0.00     0.280 HD
HETATM   19  C   UNL     1      27.959  39.270  46.668  1.00  0.00     0.236 C 
HETATM   20  C   UNL     1      27.776  40.447  45.734  1.00  0.00     0.029 C 
HETATM   21  C   UNL     1      26.270  40.615  45.714  1.00  0.00     0.029 C 
HETATM   22  C   UNL     1      25.882  40.438  47.170  1.00  0.00     0.236 C 
ENDBRANCH   8  17
ENDBRANCH   7   8
ENDBRANCH   1   7
BRANCH   3  23
HETATM   23  C   UNL     1      27.379  43.845  53.024  1.00  0.00     0.149 C 
HETATM   24  C   UNL     1      26.294  44.659  53.795  1.00  0.00     0.149 C 
HETATM   25  C   UNL     1      27.045  45.607  54.748  1.00  0.00     0.073 C 
HETATM   26  C   UNL     1      28.343  44.883  54.951  1.00  0.00    -0.047 A 
HETATM   27  C   UNL     1      28.538  43.895  53.979  1.00  0.00    -0.026 A 
HETATM   28  C   UNL     1      29.303  45.142  55.916  1.00  0.00     0.008 A 
HETATM   29  C   UNL     1      29.711  43.153  53.951  1.00  0.00     0.010 A 
HETATM   30  C   UNL     1      30.680  43.401  54.926  1.00  0.00     0.001 A 
HETATM   31  C   UNL     1      30.475  44.387  55.903  1.00  0.00     0.001 A 
BRANCH  24  32
HETATM   32  O   UNL     1      25.444  43.797  54.575  1.00  0.00    -0.393 OA
HETATM   33  H   UNL     1      24.861  43.339  53.947  1.00  0.00     0.210 HD
ENDBRANCH  24  32
ENDBRANCH   3  23
TORSDOF 7
ENDMDL
MODEL 7
REMARK VINA RESULT:      -8.1      6.777      9.669
REMARK  7 active torsions:
REMARK  status: ('A' for Active; 'I' for Inactive)
REMARK    1  A    between atoms: O_2  and  C_3 
REMARK    2  A    between atoms: C_4  and  C_5 
REMARK    3  A    between atoms: C_5  and  N_6 
REMARK    4  A    between atoms: C_5  and  C_12 
REMARK    5  A    between atoms: C_12  and  N_13 
REMARK       I    between atoms: N_13  and  C_14 
REMARK       I    between atoms: C_14  and  N_15 
REMARK    6  A    between atoms: N_15  and  C_16 
REMARK    7  A    between atoms: C_17  and  O_18 
ROOT
HETATM    1  N   UNL     1      25.938  40.887  50.118  1.00  0.00    -0.341 N 
HETATM    2  C   UNL     1      26.625  42.024  50.409  1.00  0.00     0.316 C 
HETATM    3  N   UNL     1      26.424  42.461  51.679  1.00  0.00    -0.332 N 
HETATM    4  O   UNL     1      27.351  42.573  49.588  1.00  0.00    -0.247 OA
HETATM    5  H   UNL     1      25.369  40.489  50.856  1.00  0.00     0.164 HD
HETATM    6  H   UNL     1      25.568  42.187  52.142  1.00  0.00     0.165 HD
ENDROOT
BRANCH   1   7
HETATM    7  C   UNL     1      25.759  40.376  48.760  1.00  0.00     0.162 C 
BRANCH   7   8
HETATM    8  C   UNL     1      26.736  39.232  48.323  1.00  0.00     0.241 C 
BRANCH   8   9
HETATM    9  C   UNL     1      27.313  39.470  46.928  1.00  0.00     0.007 A 
HETATM   10  C   UNL     1      27.764  38.388  46.141  1.00  0.00     0.076 A 
HETATM   11  C   UNL     1      28.335  38.624  44.886  1.00  0.00     0.037 A 
HETATM   12  C   UNL     1      28.432  39.920  44.383  1.00  0.00     0.003 A 
HETATM   13  C   UNL     1      27.952  40.991  45.125  1.00  0.00     0.001 A 
HETATM   14  C   UNL     1      27.393  40.768  46.383  1.00  0.00     0.012 A 
BRANCH  10  15
HETATM   15  O   UNL     1      27.619  37.139  46.689  1.00  0.00    -0.355 OA
HETATM   16  C   UNL     1      28.150  36.043  45.945  1.00  0.00     0.210 C 
ENDBRANCH  10  15
ENDBRANCH   8   9
BRANCH   8  17
HETATM   17  N   UNL     1      27.784  38.960  49.408  1.00  0.00    -0.061 N 
HETATM   18  H   UNL     1      27.445  39.493  50.234  1.00  0.00     0.280 HD
HETATM   19  C   UNL     1      29.193  39.456  49.212  1.00  0.00     0.236 C 
HETATM   20  C   UNL     1      30.024  38.196  49.111  1.00  0.00     0.029 C 
HETATM   21  C   UNL     1      29.345  37.277  50.105  1.00  0.00     0.029 C 
HETATM   22  C   UNL     1      27.869  37.512  49.842  1.00  0.00     0.236 C 
ENDBRANCH   8  17
ENDBRANCH   7   8
ENDBRANCH   1   7
BRANCH   3  23
HETATM   23  C   UNL     1      26.920  43.763  52.097  1.00  0.00     0.149 C 
HETATM   24  C   UNL     1      25.898  44.541  52.984  1.00  0.00     0.149 C 
HETATM   25  C   UNL     1      26.720  45.343  54.008  1.00  0.00     0.073 C 
HETATM   26  C   UNL     1      27.984  44.541  54.092  1.00  0.00    -0.047 A 
HETATM   27  C   UNL     1      28.105  43.655  53.015  1.00  0.00    -0.026 A 
HETATM   28  C   UNL     1      28.981  44.648  55.049  1.00  0.00     0.008 A 
HETATM   29  C   UNL     1      29.237  42.865  52.872  1.00  0.00     0.010 A 
HETATM   30  C   UNL     1      30.242  42.960  53.837  1.00  0.00     0.001 A 
HETATM   31  C   UNL     1      30.112  43.843  54.920  1.00  0.00     0.001 A 
BRANCH  24  32
HETATM   32  O   UNL     1      25.025  43.641  53.693  1.00  0.00    -0.393 OA
HETATM   33  H   UNL     1      25.596  43.041  54.200  1.00  0.00     0.210 HD
ENDBRANCH  24  32
ENDBRANCH   3  23
TORSDOF 7
ENDMDL
MODEL 8
REMARK VINA RESULT:      -8.1      2.203      8.441
REMARK  7 active torsions:
REMARK  status: ('A' for Active; 'I' for Inactive)
REMARK    1  A    between atoms: O_2  and  C_3 
REMARK    2  A    between atoms: C_4  and  C_5 
REMARK    3  A    between atoms: C_5  and  N_6 
REMARK    4  A    between atoms: C_5  and  C_12 
REMARK    5  A    between atoms: C_12  and  N_13 
REMARK       I    between atoms: N_13  and  C_14 
REMARK       I    between atoms: C_14  and  N_15 
REMARK    6  A    between atoms: N_15  and  C_16 
REMARK    7  A    between atoms: C_17  and  O_18 
ROOT
HETATM    1  N   UNL     1      24.685  46.443  50.317  1.00  0.00    -0.341 N 
HETATM    2  C   UNL     1      24.809  45.507  51.297  1.00  0.00     0.316 C 
HETATM    3  N   UNL     1      25.867  45.727  52.117  1.00  0.00    -0.332 N 
HETATM    4  O   UNL     1      24.022  44.573  51.406  1.00  0.00    -0.247 OA
HETATM    5  H   UNL     1      25.369  47.190  50.303  1.00  0.00     0.164 HD
HETATM    6  H   UNL     1      26.642  46.266  51.754  1.00  0.00     0.165 HD
ENDROOT
BRANCH   1   7
HETATM    7  C   UNL     1      23.815  46.285  49.153  1.00  0.00     0.162 C 
BRANCH   7   8
HETATM    8  C   UNL     1      22.457  47.064  49.201  1.00  0.00     0.241 C 
BRANCH   8   9
HETATM    9  C   UNL     1      22.634  48.549  48.892  1.00  0.00     0.007 A 
HETATM   10  C   UNL     1      21.573  49.459  49.093  1.00  0.00     0.076 A 
HETATM   11  C   UNL     1      21.732  50.808  48.760  1.00  0.00     0.037 A 
HETATM   12  C   UNL     1      22.947  51.277  48.262  1.00  0.00     0.003 A 
HETATM   13  C   UNL     1      24.015  50.405  48.101  1.00  0.00     0.001 A 
HETATM   14  C   UNL     1      23.862  49.055  48.418  1.00  0.00     0.012 A 
BRANCH  10  15
HETATM   15  O   UNL     1      20.414  48.933  49.604  1.00  0.00    -0.355 OA
HETATM   16  C   UNL     1      19.519  49.843  50.243  1.00  0.00     0.210 C 
ENDBRANCH  10  15
ENDBRANCH   8   9
BRANCH   8  17
HETATM   17  N   UNL     1      21.389  46.360  48.356  1.00  0.00    -0.061 N 
HETATM   18  H   UNL     1      20.510  46.872  48.573  1.00  0.00     0.280 HD
HETATM   19  C   UNL     1      21.050  44.921  48.648  1.00  0.00     0.236 C 
HETATM   20  C   UNL     1      21.489  44.173  47.408  1.00  0.00     0.029 C 
HETATM   21  C   UNL     1      21.145  45.148  46.301  1.00  0.00     0.029 C 
HETATM   22  C   UNL     1      21.596  46.483  46.862  1.00  0.00     0.236 C 
ENDBRANCH   8  17
ENDBRANCH   7   8
ENDBRANCH   1   7
BRANCH   3  23
HETATM   23  C   UNL     1      26.265  44.722  53.092  1.00  0.00     0.149 C 
HETATM   24  C   UNL     1      27.026  43.523  52.444  1.00  0.00     0.149 C 
HETATM   25  C   UNL     1      28.077  43.061  53.468  1.00  0.00     0.073 C 
HETATM   26  C   UNL     1      28.305  44.308  54.269  1.00  0.00    -0.047 A 
HETATM   27  C   UNL     1      27.284  45.244  54.065  1.00  0.00    -0.026 A 
HETATM   28  C   UNL     1      29.337  44.554  55.161  1.00  0.00     0.008 A 
HETATM   29  C   UNL     1      27.274  46.443  54.765  1.00  0.00     0.010 A 
HETATM   30  C   UNL     1      28.315  46.702  55.659  1.00  0.00     0.001 A 
HETATM   31  C   UNL     1      29.341  45.765  55.852  1.00  0.00     0.001 A 
BRANCH  24  32
HETATM   32  O   UNL     1      27.699  43.918  51.235  1.00  0.00    -0.393 OA
HETATM   33  H   UNL     1      27.026  44.311  50.656  1.00  0.00     0.210 HD
ENDBRANCH  24  32
ENDBRANCH   3  23
TORSDOF 7
ENDMDL
MODEL 9
REMARK VINA RESULT:      -8.0      1.785      3.021
REMARK  7 active torsions:
REMARK  status: ('A' for Active; 'I' for Inactive)
REMARK    1  A    between atoms: O_2  and  C_3 
REMARK    2  A    between atoms: C_4  and  C_5 
REMARK    3  A    between atoms: C_5  and  N_6 
REMARK    4  A    between atoms: C_5  and  C_12 
REMARK    5  A    between atoms: C_12  and  N_13 
REMARK       I    between atoms: N_13  and  C_14 
REMARK       I    between atoms: C_14  and  N_15 
REMARK    6  A    between atoms: N_15  and  C_16 
REMARK    7  A    between atoms: C_17  and  O_18 
ROOT
HETATM    1  N   UNL     1      23.533  45.228  50.115  1.00  0.00    -0.341 N 
HETATM    2  C   UNL     1      22.978  45.734  48.981  1.00  0.00     0.316 C 
HETATM    3  N   UNL     1      22.249  46.858  49.196  1.00  0.00    -0.332 N 
HETATM    4  O   UNL     1      23.146  45.209  47.886  1.00  0.00    -0.247 OA
HETATM    5  H   UNL     1      23.357  45.728  50.979  1.00  0.00     0.164 HD
HETATM    6  H   UNL     1      21.865  47.002  50.121  1.00  0.00     0.165 HD
ENDROOT
BRANCH   1   7
HETATM    7  C   UNL     1      24.119  43.892  50.203  1.00  0.00     0.162 C 
BRANCH   7   8
HETATM    8  C   UNL     1      25.524  43.803  50.889  1.00  0.00     0.241 C 
BRANCH   8   9
HETATM    9  C   UNL     1      25.685  44.833  52.005  1.00  0.00     0.007 A 
HETATM   10  C   UNL     1      26.142  46.138  51.721  1.00  0.00     0.076 A 
HETATM   11  C   UNL     1      26.331  47.057  52.759  1.00  0.00     0.037 A 
HETATM   12  C   UNL     1      26.039  46.709  54.077  1.00  0.00     0.003 A 
HETATM   13  C   UNL     1      25.547  45.444  54.368  1.00  0.00     0.001 A 
HETATM   14  C   UNL     1      25.366  44.516  53.342  1.00  0.00     0.012 A 
BRANCH  10  15
HETATM   15  O   UNL     1      26.391  46.419  50.402  1.00  0.00    -0.355 OA
HETATM   16  C   UNL     1      26.177  47.765  49.977  1.00  0.00     0.210 C 
ENDBRANCH  10  15
ENDBRANCH   8   9
BRANCH   8  17
HETATM   17  N   UNL     1      25.845  42.362  51.301  1.00  0.00    -0.061 N 
HETATM   18  H   UNL     1      25.297  42.214  52.172  1.00  0.00     0.280 HD
HETATM   19  C   UNL     1      27.255  42.006  51.697  1.00  0.00     0.236 C 
HETATM   20  C   UNL     1      27.712  41.036  50.630  1.00  0.00     0.029 C 
HETATM   21  C   UNL     1      26.451  40.245  50.347  1.00  0.00     0.029 C 
HETATM   22  C   UNL     1      25.373  41.313  50.317  1.00  0.00     0.236 C 
ENDBRANCH   8  17
ENDBRANCH   7   8
ENDBRANCH   1   7
BRANCH   3  23
HETATM   23  C   UNL     1      21.426  47.417  48.134  1.00  0.00     0.149 C 
HETATM   24  C   UNL     1      19.960  46.881  48.162  1.00  0.00     0.149 C 
HETATM   25  C   UNL     1      19.057  48.039  47.699  1.00  0.00     0.073 C 
HETATM   26  C   UNL     1      19.881  49.241  48.055  1.00  0.00    -0.047 A 
HETATM   27  C   UNL     1      21.217  48.896  48.293  1.00  0.00    -0.026 A 
HETATM   28  C   UNL     1      19.460  50.560  48.103  1.00  0.00     0.008 A 
HETATM   29  C   UNL     1      22.160  49.875  48.575  1.00  0.00     0.010 A 
HETATM   30  C   UNL     1      21.741  51.206  48.635  1.00  0.00     0.001 A 
HETATM   31  C   UNL     1      20.399  51.545  48.403  1.00  0.00     0.001 A 
BRANCH  24  32
HETATM   32  O   UNL     1      19.568  46.490  49.491  1.00  0.00    -0.393 OA
HETATM   33  H   UNL     1      19.310  45.555  49.441  1.00  0.00     0.210 HD
ENDBRANCH  24  32
ENDBRANCH   3  23
TORSDOF 7
ENDMDL
MODEL 10
REMARK VINA RESULT:      -8.0      2.316      8.475
REMARK  7 active torsions:
REMARK  status: ('A' for Active; 'I' for Inactive)
REMARK    1  A    between atoms: O_2  and  C_3 
REMARK    2  A    between atoms: C_4  and  C_5 
REMARK    3  A    between atoms: C_5  and  N_6 
REMARK    4  A    between atoms: C_5  and  C_12 
REMARK    5  A    between atoms: C_12  and  N_13 
REMARK       I    between atoms: N_13  and  C_14 
REMARK       I    between atoms: C_14  and  N_15 
REMARK    6  A    between atoms: N_15  and  C_16 
REMARK    7  A    between atoms: C_17  and  O_18 
ROOT
HETATM    1  N   UNL     1      23.515  45.293  49.930  1.00  0.00    -0.341 N 
HETATM    2  C   UNL     1      24.774  45.278  50.445  1.00  0.00     0.316 C 
HETATM    3  N   UNL     1      24.842  44.711  51.676  1.00  0.00    -0.332 N 
HETATM    4  O   UNL     1      25.733  45.732  49.831  1.00  0.00    -0.247 OA
HETATM    5  H   UNL     1      22.779  44.888  50.496  1.00  0.00     0.164 HD
HETATM    6  H   UNL     1      24.004  44.709  52.242  1.00  0.00     0.165 HD
ENDROOT
BRANCH   1   7
HETATM    7  C   UNL     1      23.128  46.087  48.765  1.00  0.00     0.162 C 
BRANCH   7   8
HETATM    8  C   UNL     1      21.892  47.030  48.957  1.00  0.00     0.241 C 
BRANCH   8   9
HETATM    9  C   UNL     1      22.269  48.505  48.831  1.00  0.00     0.007 A 
HETATM   10  C   UNL     1      21.342  49.516  49.165  1.00  0.00     0.076 A 
HETATM   11  C   UNL     1      21.683  50.863  48.999  1.00  0.00     0.037 A 
HETATM   12  C   UNL     1      22.948  51.223  48.538  1.00  0.00     0.003 A 
HETATM   13  C   UNL     1      23.887  50.241  48.247  1.00  0.00     0.001 A 
HETATM   14  C   UNL     1      23.553  48.896  48.397  1.00  0.00     0.012 A 
BRANCH  10  15
HETATM   15  O   UNL     1      20.125  49.092  49.632  1.00  0.00    -0.355 OA
HETATM   16  C   UNL     1      19.372  50.022  50.411  1.00  0.00     0.210 C 
ENDBRANCH  10  15
ENDBRANCH   8   9
BRANCH   8  17
HETATM   17  N   UNL     1      20.723  46.593  48.068  1.00  0.00    -0.061 N 
HETATM   18  H   UNL     1      19.960  47.262  48.297  1.00  0.00     0.280 HD
HETATM   19  C   UNL     1      20.094  45.241  48.291  1.00  0.00     0.236 C 
HETATM   20  C   UNL     1      20.399  44.472  47.024  1.00  0.00     0.029 C 
HETATM   21  C   UNL     1      20.282  45.541  45.957  1.00  0.00     0.029 C 
HETATM   22  C   UNL     1      20.982  46.733  46.584  1.00  0.00     0.236 C 
ENDBRANCH   8  17
ENDBRANCH   7   8
ENDBRANCH   1   7
BRANCH   3  23
HETATM   23  C   UNL     1      26.068  44.789  52.456  1.00  0.00     0.149 C 
HETATM   24  C   UNL     1      25.800  44.899  53.990  1.00  0.00     0.149 C 
HETATM   25  C   UNL     1      26.935  44.134  54.694  1.00  0.00     0.073 C 
HETATM   26  C   UNL     1      27.357  43.157  53.637  1.00  0.00    -0.047 A 
HETATM   27  C   UNL     1      26.877  43.525  52.375  1.00  0.00    -0.026 A 
HETATM   28  C   UNL     1      28.165  42.044  53.802  1.00  0.00     0.008 A 
HETATM   29  C   UNL     1      27.210  42.785  51.249  1.00  0.00     0.010 A 
HETATM   30  C   UNL     1      28.017  41.656  51.407  1.00  0.00     0.001 A 
HETATM   31  C   UNL     1      28.488  41.287  52.676  1.00  0.00     0.001 A 
BRANCH  24  32
HETATM   32  O   UNL     1      24.543  44.297  54.350  1.00  0.00    -0.393 OA
HETATM   33  H   UNL     1      23.991  45.005  54.720  1.00  0.00     0.210 HD
ENDBRANCH  24  32
ENDBRANCH   3  23
TORSDOF 7
ENDMDL
