MODEL 1
REMARK VINA RESULT:     -11.0      0.000      0.000
REMARK  7 active torsions:
REMARK  status: ('A' for Active; 'I' for Inactive)
REMARK    1  A    between atoms: C_3  and  C_4 
REMARK    2  A    between atoms: C_11  and  N_12 
REMARK       I    between atoms: N_12  and  C_13 
REMARK    3  A    between atoms: C_13  and  C_14 
REMARK    4  A    between atoms: C_21  and  C_22 
REMARK       I    between atoms: C_22  and  N_23 
REMARK    5  A    between atoms: N_23  and  C_24 
REMARK    6  A    between atoms: C_24  and  C_25 
REMARK    7  A    between atoms: C_25  and  C_26 
ROOT
HETATM    1  C   UNL     1      20.369  48.416  47.806  1.00  0.00     0.158 C 
HETATM    2  N   UNL     1      21.606  48.632  48.517  1.00  0.00    -0.335 N 
HETATM    3  C   UNL     1      21.988  49.814  49.113  1.00  0.00     0.111 A 
HETATM    4  N   UNL     1      23.119  49.668  49.764  1.00  0.00    -0.233 NA
HETATM    5  C   UNL     1      23.511  48.376  49.547  1.00  0.00     0.089 A 
HETATM    6  C   UNL     1      22.588  47.683  48.756  1.00  0.00     0.091 A 
HETATM    7  C   UNL     1      22.776  46.325  48.408  1.00  0.00     0.065 A 
HETATM    8  C   UNL     1      23.955  45.722  48.879  1.00  0.00     0.049 A 
HETATM    9  C   UNL     1      24.886  46.413  49.666  1.00  0.00     0.036 A 
HETATM   10  C   UNL     1      24.672  47.747  50.015  1.00  0.00     0.051 A 
ENDROOT
BRANCH   9  11
HETATM   11  C   UNL     1      26.124  45.698  50.069  1.00  0.00     0.251 C 
HETATM   12  N   UNL     1      26.122  45.107  51.319  1.00  0.00    -0.357 N 
HETATM   13  H   UNL     1      25.229  44.977  51.778  1.00  0.00     0.162 HD
HETATM   14  O   UNL     1      27.067  45.630  49.290  1.00  0.00    -0.268 OA
BRANCH  12  15
HETATM   15  C   UNL     1      27.214  44.218  51.682  1.00  0.00     0.127 C 
BRANCH  15  16
HETATM   16  C   UNL     1      27.102  43.688  53.111  1.00  0.00     0.060 C 
BRANCH  16  17
HETATM   17  C   UNL     1      27.791  44.588  54.090  1.00  0.00    -0.029 A 
HETATM   18  C   UNL     1      28.986  44.295  54.822  1.00  0.00    -0.002 A 
HETATM   19  C   UNL     1      29.249  45.387  55.651  1.00  0.00     0.042 A 
HETATM   20  C   UNL     1      29.863  43.190  54.869  1.00  0.00     0.014 A 
HETATM   21  C   UNL     1      30.342  45.428  56.525  1.00  0.00     0.030 A 
HETATM   22  N   UNL     1      28.260  46.313  55.422  1.00  0.00    -0.365 N 
HETATM   23  C   UNL     1      31.194  44.321  56.552  1.00  0.00     0.002 A 
HETATM   24  C   UNL     1      30.961  43.217  55.736  1.00  0.00     0.001 A 
HETATM   25  H   UNL     1      28.194  47.205  55.893  1.00  0.00     0.165 HD
HETATM   26  C   UNL     1      27.378  45.846  54.485  1.00  0.00     0.096 A 
ENDBRANCH  16  17
ENDBRANCH  15  16
ENDBRANCH  12  15
ENDBRANCH   9  11
BRANCH   7  27
HETATM   27  N   UNL     1      21.837  45.626  47.627  1.00  0.00    -0.323 N 
HETATM   28  C   UNL     1      20.721  44.918  48.053  1.00  0.00     0.251 C 
HETATM   29  O   UNL     1      20.343  44.772  49.210  1.00  0.00    -0.270 OA
HETATM   30  H   UNL     1      21.960  45.605  46.623  1.00  0.00     0.169 HD
BRANCH  28  31
HETATM   31  C   UNL     1      19.884  44.428  46.855  1.00  0.00     0.213 C 
HETATM   32  O   UNL     1      18.542  44.084  47.258  1.00  0.00    -0.376 OA
HETATM   33  C   UNL     1      17.631  44.875  46.479  1.00  0.00     0.168 C 
HETATM   34  C   UNL     1      18.419  46.061  45.972  1.00  0.00     0.029 C 
HETATM   35  C   UNL     1      19.779  45.453  45.736  1.00  0.00     0.044 C 
ENDBRANCH  28  31
ENDBRANCH   7  27
BRANCH   3  36
HETATM   36  C   UNL     1      21.236  51.144  49.068  1.00  0.00     0.056 C 
HETATM   37  C   UNL     1      20.211  51.224  47.894  1.00  0.00     0.012 C 
HETATM   38  C   UNL     1      19.279  51.986  48.853  1.00  0.00     0.002 C 
HETATM   39  C   UNL     1      19.988  51.235  49.995  1.00  0.00     0.012 C 
ENDBRANCH   3  36
TORSDOF 7
ENDMDL
MODEL 2
REMARK VINA RESULT:     -10.7      2.851      9.948
REMARK  7 active torsions:
REMARK  status: ('A' for Active; 'I' for Inactive)
REMARK    1  A    between atoms: C_3  and  C_4 
REMARK    2  A    between atoms: C_11  and  N_12 
REMARK       I    between atoms: N_12  and  C_13 
REMARK    3  A    between atoms: C_13  and  C_14 
REMARK    4  A    between atoms: C_21  and  C_22 
REMARK       I    between atoms: C_22  and  N_23 
REMARK    5  A    between atoms: N_23  and  C_24 
REMARK    6  A    between atoms: C_24  and  C_25 
REMARK    7  A    between atoms: C_25  and  C_26 
ROOT
HETATM    1  C   UNL     1      28.126  41.929  51.437  1.00  0.00     0.158 C 
HETATM    2  N   UNL     1      27.674  43.236  51.846  1.00  0.00    -0.335 N 
HETATM    3  C   UNL     1      27.962  43.840  53.051  1.00  0.00     0.111 A 
HETATM    4  N   UNL     1      27.490  45.065  53.087  1.00  0.00    -0.233 NA
HETATM    5  C   UNL     1      26.836  45.248  51.901  1.00  0.00     0.089 A 
HETATM    6  C   UNL     1      26.918  44.115  51.086  1.00  0.00     0.091 A 
HETATM    7  C   UNL     1      26.324  44.075  49.802  1.00  0.00     0.065 A 
HETATM    8  C   UNL     1      25.626  45.228  49.407  1.00  0.00     0.049 A 
HETATM    9  C   UNL     1      25.534  46.365  50.222  1.00  0.00     0.036 A 
HETATM   10  C   UNL     1      26.143  46.391  51.477  1.00  0.00     0.051 A 
ENDROOT
BRANCH   9  11
HETATM   11  C   UNL     1      24.728  47.512  49.731  1.00  0.00     0.251 C 
HETATM   12  N   UNL     1      23.405  47.253  49.419  1.00  0.00    -0.357 N 
HETATM   13  H   UNL     1      22.999  46.393  49.764  1.00  0.00     0.162 HD
HETATM   14  O   UNL     1      25.237  48.623  49.652  1.00  0.00    -0.268 OA
BRANCH  12  15
HETATM   15  C   UNL     1      22.516  48.369  49.140  1.00  0.00     0.127 C 
BRANCH  15  16
HETATM   16  C   UNL     1      21.256  47.951  48.382  1.00  0.00     0.060 C 
BRANCH  16  17
HETATM   17  C   UNL     1      20.023  48.545  48.989  1.00  0.00    -0.029 A 
HETATM   18  C   UNL     1      19.618  49.918  48.924  1.00  0.00    -0.002 A 
HETATM   19  C   UNL     1      18.439  50.043  49.662  1.00  0.00     0.042 A 
HETATM   20  C   UNL     1      20.155  51.072  48.318  1.00  0.00     0.014 A 
HETATM   21  C   UNL     1      17.774  51.264  49.825  1.00  0.00     0.030 A 
HETATM   22  N   UNL     1      18.133  48.793  50.146  1.00  0.00    -0.365 N 
HETATM   23  C   UNL     1      18.328  52.392  49.213  1.00  0.00     0.002 A 
HETATM   24  C   UNL     1      19.501  52.300  48.469  1.00  0.00     0.001 A 
HETATM   25  H   UNL     1      17.330  48.587  50.724  1.00  0.00     0.165 HD
HETATM   26  C   UNL     1      19.077  47.884  49.747  1.00  0.00     0.096 A 
ENDBRANCH  16  17
ENDBRANCH  15  16
ENDBRANCH  12  15
ENDBRANCH   9  11
BRANCH   7  27
HETATM   27  N   UNL     1      26.424  42.939  48.977  1.00  0.00    -0.323 N 
HETATM   28  C   UNL     1      25.596  41.825  48.944  1.00  0.00     0.251 C 
HETATM   29  O   UNL     1      24.608  41.625  49.641  1.00  0.00    -0.270 OA
HETATM   30  H   UNL     1      27.188  42.885  48.317  1.00  0.00     0.169 HD
BRANCH  28  31
HETATM   31  C   UNL     1      25.983  40.880  47.789  1.00  0.00     0.213 C 
HETATM   32  O   UNL     1      27.219  41.290  47.168  1.00  0.00    -0.376 OA
HETATM   33  C   UNL     1      28.138  40.189  47.243  1.00  0.00     0.168 C 
HETATM   34  C   UNL     1      27.644  39.295  48.357  1.00  0.00     0.029 C 
HETATM   35  C   UNL     1      26.147  39.433  48.226  1.00  0.00     0.044 C 
ENDBRANCH  28  31
ENDBRANCH   7  27
BRANCH   3  36
HETATM   36  C   UNL     1      28.730  43.224  54.220  1.00  0.00     0.056 C 
HETATM   37  C   UNL     1      30.232  42.958  53.888  1.00  0.00     0.012 C 
HETATM   38  C   UNL     1      30.554  43.386  55.332  1.00  0.00     0.002 C 
HETATM   39  C   UNL     1      29.274  44.240  55.268  1.00  0.00     0.012 C 
ENDBRANCH   3  36
TORSDOF 7
ENDMDL
MODEL 3
REMARK VINA RESULT:     -10.3      2.756     10.134
REMARK  7 active torsions:
REMARK  status: ('A' for Active; 'I' for Inactive)
REMARK    1  A    between atoms: C_3  and  C_4 
REMARK    2  A    between atoms: C_11  and  N_12 
REMARK       I    between atoms: N_12  and  C_13 
REMARK    3  A    between atoms: C_13  and  C_14 
REMARK    4  A    between atoms: C_21  and  C_22 
REMARK       I    between atoms: C_22  and  N_23 
REMARK    5  A    between atoms: N_23  and  C_24 
REMARK    6  A    between atoms: C_24  and  C_25 
REMARK    7  A    between atoms: C_25  and  C_26 
ROOT
HETATM    1  C   UNL     1      27.071  42.986  53.238  1.00  0.00     0.158 C 
HETATM    2  N   UNL     1      26.774  44.396  53.170  1.00  0.00    -0.335 N 
HETATM    3  C   UNL     1      27.220  45.350  54.059  1.00  0.00     0.111 A 
HETATM    4  N   UNL     1      26.863  46.553  53.675  1.00  0.00    -0.233 NA
HETATM    5  C   UNL     1      26.123  46.379  52.538  1.00  0.00     0.089 A 
HETATM    6  C   UNL     1      26.032  45.028  52.184  1.00  0.00     0.091 A 
HETATM    7  C   UNL     1      25.324  44.605  51.035  1.00  0.00     0.065 A 
HETATM    8  C   UNL     1      24.696  45.615  50.287  1.00  0.00     0.049 A 
HETATM    9  C   UNL     1      24.778  46.969  50.640  1.00  0.00     0.036 A 
HETATM   10  C   UNL     1      25.497  47.368  51.767  1.00  0.00     0.051 A 
ENDROOT
BRANCH   9  11
HETATM   11  C   UNL     1      24.034  47.952  49.811  1.00  0.00     0.251 C 
HETATM   12  N   UNL     1      22.704  47.669  49.556  1.00  0.00    -0.357 N 
HETATM   13  H   UNL     1      22.253  46.969  50.130  1.00  0.00     0.162 HD
HETATM   14  O   UNL     1      24.597  48.967  49.419  1.00  0.00    -0.268 OA
BRANCH  12  15
HETATM   15  C   UNL     1      21.873  48.688  48.937  1.00  0.00     0.127 C 
BRANCH  15  16
HETATM   16  C   UNL     1      20.377  48.417  49.098  1.00  0.00     0.060 C 
BRANCH  16  17
HETATM   17  C   UNL     1      19.618  49.671  49.406  1.00  0.00    -0.029 A 
HETATM   18  C   UNL     1      18.260  49.954  49.049  1.00  0.00    -0.002 A 
HETATM   19  C   UNL     1      17.972  51.247  49.488  1.00  0.00     0.042 A 
HETATM   20  C   UNL     1      17.251  49.233  48.377  1.00  0.00     0.014 A 
HETATM   21  C   UNL     1      16.727  51.856  49.286  1.00  0.00     0.030 A 
HETATM   22  N   UNL     1      19.106  51.727  50.098  1.00  0.00    -0.365 N 
HETATM   23  C   UNL     1      15.746  51.119  48.617  1.00  0.00     0.002 A 
HETATM   24  C   UNL     1      16.000  49.826  48.169  1.00  0.00     0.001 A 
HETATM   25  H   UNL     1      19.188  52.648  50.507  1.00  0.00     0.165 HD
HETATM   26  C   UNL     1      20.102  50.788  50.057  1.00  0.00     0.096 A 
ENDBRANCH  16  17
ENDBRANCH  15  16
ENDBRANCH  12  15
ENDBRANCH   9  11
BRANCH   7  27
HETATM   27  N   UNL     1      25.250  43.247  50.672  1.00  0.00    -0.323 N 
HETATM   28  C   UNL     1      26.038  42.557  49.761  1.00  0.00     0.251 C 
HETATM   29  O   UNL     1      26.959  43.013  49.095  1.00  0.00    -0.270 OA
HETATM   30  H   UNL     1      24.540  42.668  51.100  1.00  0.00     0.169 HD
BRANCH  28  31
HETATM   31  C   UNL     1      25.711  41.050  49.775  1.00  0.00     0.213 C 
HETATM   32  O   UNL     1      25.874  40.466  48.466  1.00  0.00    -0.376 OA
HETATM   33  C   UNL     1      26.822  39.392  48.576  1.00  0.00     0.168 C 
HETATM   34  C   UNL     1      27.618  39.653  49.835  1.00  0.00     0.029 C 
HETATM   35  C   UNL     1      26.576  40.257  50.743  1.00  0.00     0.044 C 
ENDBRANCH  28  31
ENDBRANCH   7  27
BRANCH   3  36
HETATM   36  C   UNL     1      28.034  45.105  55.329  1.00  0.00     0.056 C 
HETATM   37  C   UNL     1      29.547  44.850  55.043  1.00  0.00     0.012 C 
HETATM   38  C   UNL     1      29.851  45.656  56.319  1.00  0.00     0.002 C 
HETATM   39  C   UNL     1      28.520  46.388  56.066  1.00  0.00     0.012 C 
ENDBRANCH   3  36
TORSDOF 7
ENDMDL
MODEL 4
REMARK VINA RESULT:     -10.1      4.211      9.526
REMARK  7 active torsions:
REMARK  status: ('A' for Active; 'I' for Inactive)
REMARK    1  A    between atoms: C_3  and  C_4 
REMARK    2  A    between atoms: C_11  and  N_12 
REMARK       I    between atoms: N_12  and  C_13 
REMARK    3  A    between atoms: C_13  and  C_14 
REMARK    4  A    between atoms: C_21  and  C_22 
REMARK       I    between atoms: C_22  and  N_23 
REMARK    5  A    between atoms: N_23  and  C_24 
REMARK    6  A    between atoms: C_24  and  C_25 
REMARK    7  A    between atoms: C_25  and  C_26 
ROOT
HETATM    1  C   UNL     1      28.250  46.352  54.556  1.00  0.00     0.158 C 
HETATM    2  N   UNL     1      28.844  45.038  54.507  1.00  0.00    -0.335 N 
HETATM    3  C   UNL     1      29.789  44.556  55.386  1.00  0.00     0.111 A 
HETATM    4  N   UNL     1      30.060  43.295  55.139  1.00  0.00    -0.233 NA
HETATM    5  C   UNL     1      29.314  42.960  54.043  1.00  0.00     0.089 A 
HETATM    6  C   UNL     1      28.535  44.035  53.601  1.00  0.00     0.091 A 
HETATM    7  C   UNL     1      27.671  43.921  52.487  1.00  0.00     0.065 A 
HETATM    8  C   UNL     1      27.664  42.677  51.834  1.00  0.00     0.049 A 
HETATM    9  C   UNL     1      28.448  41.599  52.267  1.00  0.00     0.036 A 
HETATM   10  C   UNL     1      29.278  41.726  53.381  1.00  0.00     0.051 A 
ENDROOT
BRANCH   9  11
HETATM   11  C   UNL     1      28.405  40.343  51.474  1.00  0.00     0.251 C 
HETATM   12  N   UNL     1      27.242  40.093  50.769  1.00  0.00    -0.357 N 
HETATM   13  H   UNL     1      26.601  40.863  50.628  1.00  0.00     0.162 HD
HETATM   14  O   UNL     1      29.385  39.608  51.446  1.00  0.00    -0.268 OA
BRANCH  12  15
HETATM   15  C   UNL     1      27.219  38.998  49.812  1.00  0.00     0.127 C 
BRANCH  15  16
HETATM   16  C   UNL     1      27.186  39.475  48.361  1.00  0.00     0.060 C 
BRANCH  16  17
HETATM   17  C   UNL     1      25.788  39.755  47.903  1.00  0.00    -0.029 A 
HETATM   18  C   UNL     1      25.033  40.947  48.148  1.00  0.00    -0.002 A 
HETATM   19  C   UNL     1      23.769  40.767  47.586  1.00  0.00     0.042 A 
HETATM   20  C   UNL     1      25.305  42.162  48.813  1.00  0.00     0.014 A 
HETATM   21  C   UNL     1      22.762  41.738  47.657  1.00  0.00     0.030 A 
HETATM   22  N   UNL     1      23.759  39.518  47.011  1.00  0.00    -0.365 N 
HETATM   23  C   UNL     1      23.058  42.931  48.322  1.00  0.00     0.002 A 
HETATM   24  C   UNL     1      24.311  43.143  48.892  1.00  0.00     0.001 A 
HETATM   25  H   UNL     1      22.964  39.117  46.533  1.00  0.00     0.165 HD
HETATM   26  C   UNL     1      24.967  38.901  47.192  1.00  0.00     0.096 A 
ENDBRANCH  16  17
ENDBRANCH  15  16
ENDBRANCH  12  15
ENDBRANCH   9  11
BRANCH   7  27
HETATM   27  N   UNL     1      26.875  44.998  52.057  1.00  0.00    -0.323 N 
HETATM   28  C   UNL     1      25.524  45.218  52.295  1.00  0.00     0.251 C 
HETATM   29  O   UNL     1      24.767  44.500  52.936  1.00  0.00    -0.270 OA
HETATM   30  H   UNL     1      27.300  45.722  51.492  1.00  0.00     0.169 HD
BRANCH  28  31
HETATM   31  C   UNL     1      25.084  46.596  51.763  1.00  0.00     0.213 C 
HETATM   32  O   UNL     1      26.205  47.497  51.649  1.00  0.00    -0.376 OA
HETATM   33  C   UNL     1      26.277  47.943  50.286  1.00  0.00     0.168 C 
HETATM   34  C   UNL     1      25.523  46.924  49.462  1.00  0.00     0.029 C 
HETATM   35  C   UNL     1      24.410  46.527  50.401  1.00  0.00     0.044 C 
ENDBRANCH  28  31
ENDBRANCH   7  27
BRANCH   3  36
HETATM   36  C   UNL     1      30.459  45.330  56.521  1.00  0.00     0.056 C 
HETATM   37  C   UNL     1      29.454  45.775  57.630  1.00  0.00     0.012 C 
HETATM   38  C   UNL     1      30.561  45.470  58.656  1.00  0.00     0.002 C 
HETATM   39  C   UNL     1      31.103  44.452  57.636  1.00  0.00     0.012 C 
ENDBRANCH   3  36
TORSDOF 7
ENDMDL
MODEL 5
REMARK VINA RESULT:      -9.7      3.308     10.208
REMARK  7 active torsions:
REMARK  status: ('A' for Active; 'I' for Inactive)
REMARK    1  A    between atoms: C_3  and  C_4 
REMARK    2  A    between atoms: C_11  and  N_12 
REMARK       I    between atoms: N_12  and  C_13 
REMARK    3  A    between atoms: C_13  and  C_14 
REMARK    4  A    between atoms: C_21  and  C_22 
REMARK       I    between atoms: C_22  and  N_23 
REMARK    5  A    between atoms: N_23  and  C_24 
REMARK    6  A    between atoms: C_24  and  C_25 
REMARK    7  A    between atoms: C_25  and  C_26 
ROOT
HETATM    1  C   UNL     1      28.330  41.896  52.042  1.00  0.00     0.158 C 
HETATM    2  N   UNL     1      27.209  42.797  52.161  1.00  0.00    -0.335 N 
HETATM    3  C   UNL     1      26.997  43.673  53.203  1.00  0.00     0.111 A 
HETATM    4  N   UNL     1      25.946  44.426  52.976  1.00  0.00    -0.233 NA
HETATM    5  C   UNL     1      25.430  43.999  51.784  1.00  0.00     0.089 A 
HETATM    6  C   UNL     1      26.191  42.962  51.235  1.00  0.00     0.091 A 
HETATM    7  C   UNL     1      25.856  42.367  49.996  1.00  0.00     0.065 A 
HETATM    8  C   UNL     1      24.700  42.857  49.366  1.00  0.00     0.049 A 
HETATM    9  C   UNL     1      23.928  43.890  49.915  1.00  0.00     0.036 A 
HETATM   10  C   UNL     1      24.287  44.478  51.129  1.00  0.00     0.051 A 
ENDROOT
BRANCH   9  11
HETATM   11  C   UNL     1      22.695  44.298  49.194  1.00  0.00     0.251 C 
HETATM   12  N   UNL     1      22.406  45.651  49.174  1.00  0.00    -0.357 N 
HETATM   13  H   UNL     1      23.146  46.295  49.422  1.00  0.00     0.162 HD
HETATM   14  O   UNL     1      22.013  43.452  48.629  1.00  0.00    -0.268 OA
BRANCH  12  15
HETATM   15  C   UNL     1      21.339  46.131  48.311  1.00  0.00     0.127 C 
BRANCH  15  16
HETATM   16  C   UNL     1      21.341  47.651  48.151  1.00  0.00     0.060 C 
BRANCH  16  17
HETATM   17  C   UNL     1      20.141  48.275  48.795  1.00  0.00    -0.029 A 
HETATM   18  C   UNL     1      19.827  49.672  48.839  1.00  0.00    -0.002 A 
HETATM   19  C   UNL     1      18.650  49.815  49.574  1.00  0.00     0.042 A 
HETATM   20  C   UNL     1      20.448  50.834  48.332  1.00  0.00     0.014 A 
HETATM   21  C   UNL     1      18.064  51.060  49.831  1.00  0.00     0.030 A 
HETATM   22  N   UNL     1      18.256  48.554  49.953  1.00  0.00    -0.365 N 
HETATM   23  C   UNL     1      18.699  52.195  49.318  1.00  0.00     0.002 A 
HETATM   24  C   UNL     1      19.873  52.086  48.578  1.00  0.00     0.001 A 
HETATM   25  H   UNL     1      17.433  48.355  50.505  1.00  0.00     0.165 HD
HETATM   26  C   UNL     1      19.143  47.619  49.489  1.00  0.00     0.096 A 
ENDBRANCH  16  17
ENDBRANCH  15  16
ENDBRANCH  12  15
ENDBRANCH   9  11
BRANCH   7  27
HETATM   27  N   UNL     1      26.635  41.337  49.437  1.00  0.00    -0.323 N 
HETATM   28  C   UNL     1      26.633  39.986  49.758  1.00  0.00     0.251 C 
HETATM   29  O   UNL     1      25.937  39.434  50.602  1.00  0.00    -0.270 OA
HETATM   30  H   UNL     1      27.301  41.570  48.713  1.00  0.00     0.169 HD
BRANCH  28  31
HETATM   31  C   UNL     1      27.539  39.186  48.801  1.00  0.00     0.213 C 
HETATM   32  O   UNL     1      28.878  39.722  48.777  1.00  0.00    -0.376 OA
HETATM   33  C   UNL     1      29.782  38.668  49.145  1.00  0.00     0.168 C 
HETATM   34  C   UNL     1      28.960  37.639  49.888  1.00  0.00     0.029 C 
HETATM   35  C   UNL     1      27.640  37.712  49.161  1.00  0.00     0.044 C 
ENDBRANCH  28  31
ENDBRANCH   7  27
BRANCH   3  36
HETATM   36  C   UNL     1      27.840  43.806  54.471  1.00  0.00     0.056 C 
HETATM   37  C   UNL     1      29.311  44.241  54.180  1.00  0.00     0.012 C 
HETATM   38  C   UNL     1      29.236  45.096  55.459  1.00  0.00     0.002 C 
HETATM   39  C   UNL     1      27.718  45.171  55.212  1.00  0.00     0.012 C 
ENDBRANCH   3  36
TORSDOF 7
ENDMDL
MODEL 6
REMARK VINA RESULT:      -9.7      4.749      9.833
REMARK  7 active torsions:
REMARK  status: ('A' for Active; 'I' for Inactive)
REMARK    1  A    between atoms: C_3  and  C_4 
REMARK    2  A    between atoms: C_11  and  N_12 
REMARK       I    between atoms: N_12  and  C_13 
REMARK    3  A    between atoms: C_13  and  C_14 
REMARK    4  A    between atoms: C_21  and  C_22 
REMARK       I    between atoms: C_22  and  N_23 
REMARK    5  A    between atoms: N_23  and  C_24 
REMARK    6  A    between atoms: C_24  and  C_25 
REMARK    7  A    between atoms: C_25  and  C_26 
ROOT
HETATM    1  C   UNL     1      28.244  46.058  54.612  1.00  0.00     0.158 C 
HETATM    2  N   UNL     1      28.835  44.758  54.404  1.00  0.00    -0.335 N 
HETATM    3  C   UNL     1      29.880  44.231  55.133  1.00  0.00     0.111 A 
HETATM    4  N   UNL     1      30.127  42.993  54.771  1.00  0.00    -0.233 NA
HETATM    5  C   UNL     1      29.260  42.723  53.748  1.00  0.00     0.089 A 
HETATM    6  C   UNL     1      28.428  43.813  53.475  1.00  0.00     0.091 A 
HETATM    7  C   UNL     1      27.441  43.763  52.463  1.00  0.00     0.065 A 
HETATM    8  C   UNL     1      27.365  42.565  51.732  1.00  0.00     0.049 A 
HETATM    9  C   UNL     1      28.200  41.471  51.996  1.00  0.00     0.036 A 
HETATM   10  C   UNL     1      29.155  41.535  53.012  1.00  0.00     0.051 A 
ENDROOT
BRANCH   9  11
HETATM   11  C   UNL     1      28.072  40.271  51.130  1.00  0.00     0.251 C 
HETATM   12  N   UNL     1      29.204  39.492  50.978  1.00  0.00    -0.357 N 
HETATM   13  H   UNL     1      29.962  39.627  51.634  1.00  0.00     0.162 HD
HETATM   14  O   UNL     1      26.991  40.002  50.621  1.00  0.00    -0.268 OA
BRANCH  12  15
HETATM   15  C   UNL     1      29.087  38.199  50.322  1.00  0.00     0.127 C 
BRANCH  15  16
HETATM   16  C   UNL     1      29.497  38.239  48.850  1.00  0.00     0.060 C 
BRANCH  16  17
HETATM   17  C   UNL     1      28.342  38.594  47.964  1.00  0.00    -0.029 A 
HETATM   18  C   UNL     1      27.191  37.784  47.699  1.00  0.00    -0.002 A 
HETATM   19  C   UNL     1      26.392  38.476  46.788  1.00  0.00     0.042 A 
HETATM   20  C   UNL     1      26.761  36.515  48.139  1.00  0.00     0.014 A 
HETATM   21  C   UNL     1      25.187  37.962  46.293  1.00  0.00     0.030 A 
HETATM   22  N   UNL     1      27.026  39.665  46.519  1.00  0.00    -0.365 N 
HETATM   23  C   UNL     1      24.785  36.702  46.745  1.00  0.00     0.002 A 
HETATM   24  C   UNL     1      25.558  35.987  47.657  1.00  0.00     0.001 A 
HETATM   25  H   UNL     1      26.675  40.368  45.882  1.00  0.00     0.165 HD
HETATM   26  C   UNL     1      28.199  39.749  47.221  1.00  0.00     0.096 A 
ENDBRANCH  16  17
ENDBRANCH  15  16
ENDBRANCH  12  15
ENDBRANCH   9  11
BRANCH   7  27
HETATM   27  N   UNL     1      26.594  44.856  52.203  1.00  0.00    -0.323 N 
HETATM   28  C   UNL     1      26.488  45.604  51.038  1.00  0.00     0.251 C 
HETATM   29  O   UNL     1      27.125  45.444  50.004  1.00  0.00    -0.270 OA
HETATM   30  H   UNL     1      25.974  45.174  52.936  1.00  0.00     0.169 HD
BRANCH  28  31
HETATM   31  C   UNL     1      25.331  46.618  51.133  1.00  0.00     0.213 C 
HETATM   32  O   UNL     1      25.696  47.886  50.551  1.00  0.00    -0.376 OA
HETATM   33  C   UNL     1      24.744  48.188  49.518  1.00  0.00     0.168 C 
HETATM   34  C   UNL     1      24.108  46.874  49.125  1.00  0.00     0.029 C 
HETATM   35  C   UNL     1      24.059  46.145  50.445  1.00  0.00     0.044 C 
ENDBRANCH  28  31
ENDBRANCH   7  27
BRANCH   3  36
HETATM   36  C   UNL     1      30.674  44.936  56.232  1.00  0.00     0.056 C 
HETATM   37  C   UNL     1      29.793  45.337  57.457  1.00  0.00     0.012 C 
HETATM   38  C   UNL     1      30.990  44.965  58.351  1.00  0.00     0.002 C 
HETATM   39  C   UNL     1      31.408  43.993  57.232  1.00  0.00     0.012 C 
ENDBRANCH   3  36
TORSDOF 7
ENDMDL
MODEL 7
REMARK VINA RESULT:      -9.7      3.781     10.053
REMARK  7 active torsions:
REMARK  status: ('A' for Active; 'I' for Inactive)
REMARK    1  A    between atoms: C_3  and  C_4 
REMARK    2  A    between atoms: C_11  and  N_12 
REMARK       I    between atoms: N_12  and  C_13 
REMARK    3  A    between atoms: C_13  and  C_14 
REMARK    4  A    between atoms: C_21  and  C_22 
REMARK       I    between atoms: C_22  and  N_23 
REMARK    5  A    between atoms: N_23  and  C_24 
REMARK    6  A    between atoms: C_24  and  C_25 
REMARK    7  A    between atoms: C_25  and  C_26 
ROOT
HETATM    1  C   UNL     1      28.644  40.648  52.406  1.00  0.00     0.158 C 
HETATM    2  N   UNL     1      27.725  41.758  52.340  1.00  0.00    -0.335 N 
HETATM    3  C   UNL     1      27.704  42.830  53.206  1.00  0.00     0.111 A 
HETATM    4  N   UNL     1      26.818  43.722  52.829  1.00  0.00    -0.233 NA
HETATM    5  C   UNL     1      26.210  43.199  51.721  1.00  0.00     0.089 A 
HETATM    6  C   UNL     1      26.745  41.953  51.379  1.00  0.00     0.091 A 
HETATM    7  C   UNL     1      26.280  41.224  50.259  1.00  0.00     0.065 A 
HETATM    8  C   UNL     1      25.234  41.812  49.529  1.00  0.00     0.049 A 
HETATM    9  C   UNL     1      24.689  43.057  49.870  1.00  0.00     0.036 A 
HETATM   10  C   UNL     1      25.175  43.769  50.968  1.00  0.00     0.051 A 
ENDROOT
BRANCH   9  11
HETATM   11  C   UNL     1      23.550  43.565  49.063  1.00  0.00     0.251 C 
HETATM   12  N   UNL     1      22.771  44.552  49.639  1.00  0.00    -0.357 N 
HETATM   13  H   UNL     1      23.146  45.039  50.442  1.00  0.00     0.162 HD
HETATM   14  O   UNL     1      23.363  43.128  47.934  1.00  0.00    -0.268 OA
BRANCH  12  15
HETATM   15  C   UNL     1      21.780  45.234  48.823  1.00  0.00     0.127 C 
BRANCH  15  16
HETATM   16  C   UNL     1      22.392  46.288  47.901  1.00  0.00     0.060 C 
BRANCH  16  17
HETATM   17  C   UNL     1      22.392  47.645  48.535  1.00  0.00    -0.029 A 
HETATM   18  C   UNL     1      21.434  48.687  48.318  1.00  0.00    -0.002 A 
HETATM   19  C   UNL     1      21.838  49.792  49.069  1.00  0.00     0.042 A 
HETATM   20  C   UNL     1      20.265  48.798  47.537  1.00  0.00     0.014 A 
HETATM   21  C   UNL     1      21.134  51.002  49.075  1.00  0.00     0.030 A 
HETATM   22  N   UNL     1      22.990  49.432  49.726  1.00  0.00    -0.365 N 
HETATM   23  C   UNL     1      19.979  51.085  48.291  1.00  0.00     0.002 A 
HETATM   24  C   UNL     1      19.548  50.000  47.533  1.00  0.00     0.001 A 
HETATM   25  H   UNL     1      23.510  50.043  50.341  1.00  0.00     0.165 HD
HETATM   26  C   UNL     1      23.333  48.143  49.416  1.00  0.00     0.096 A 
ENDBRANCH  16  17
ENDBRANCH  15  16
ENDBRANCH  12  15
ENDBRANCH   9  11
BRANCH   7  27
HETATM   27  N   UNL     1      26.833  39.979  49.907  1.00  0.00    -0.323 N 
HETATM   28  C   UNL     1      27.878  39.719  49.029  1.00  0.00     0.251 C 
HETATM   29  O   UNL     1      28.520  40.543  48.390  1.00  0.00    -0.270 OA
HETATM   30  H   UNL     1      26.443  39.141  50.317  1.00  0.00     0.169 HD
BRANCH  28  31
HETATM   31  C   UNL     1      28.259  38.225  49.048  1.00  0.00     0.213 C 
HETATM   32  O   UNL     1      27.183  37.416  49.566  1.00  0.00    -0.376 OA
HETATM   33  C   UNL     1      26.843  36.441  48.568  1.00  0.00     0.168 C 
HETATM   34  C   UNL     1      27.355  36.980  47.252  1.00  0.00     0.029 C 
HETATM   35  C   UNL     1      28.622  37.681  47.674  1.00  0.00     0.044 C 
ENDBRANCH  28  31
ENDBRANCH   7  27
BRANCH   3  36
HETATM   36  C   UNL     1      28.576  43.018  54.448  1.00  0.00     0.056 C 
HETATM   37  C   UNL     1      30.100  43.087  54.116  1.00  0.00     0.012 C 
HETATM   38  C   UNL     1      30.219  44.157  55.216  1.00  0.00     0.002 C 
HETATM   39  C   UNL     1      28.744  44.490  54.927  1.00  0.00     0.012 C 
ENDBRANCH   3  36
TORSDOF 7
ENDMDL
MODEL 8
REMARK VINA RESULT:      -9.6      2.692      9.782
REMARK  7 active torsions:
REMARK  status: ('A' for Active; 'I' for Inactive)
REMARK    1  A    between atoms: C_3  and  C_4 
REMARK    2  A    between atoms: C_11  and  N_12 
REMARK       I    between atoms: N_12  and  C_13 
REMARK    3  A    between atoms: C_13  and  C_14 
REMARK    4  A    between atoms: C_21  and  C_22 
REMARK       I    between atoms: C_22  and  N_23 
REMARK    5  A    between atoms: N_23  and  C_24 
REMARK    6  A    between atoms: C_24  and  C_25 
REMARK    7  A    between atoms: C_25  and  C_26 
ROOT
HETATM    1  C   UNL     1      27.263  42.138  52.485  1.00  0.00     0.158 C 
HETATM    2  N   UNL     1      27.126  43.568  52.614  1.00  0.00    -0.335 N 
HETATM    3  C   UNL     1      27.723  44.342  53.585  1.00  0.00     0.111 A 
HETATM    4  N   UNL     1      27.488  45.617  53.381  1.00  0.00    -0.233 NA
HETATM    5  C   UNL     1      26.677  45.675  52.281  1.00  0.00     0.089 A 
HETATM    6  C   UNL     1      26.413  44.402  51.767  1.00  0.00     0.091 A 
HETATM    7  C   UNL     1      25.604  44.213  50.621  1.00  0.00     0.065 A 
HETATM    8  C   UNL     1      25.060  45.375  50.049  1.00  0.00     0.049 A 
HETATM    9  C   UNL     1      25.314  46.653  50.564  1.00  0.00     0.036 A 
HETATM   10  C   UNL     1      26.131  46.820  51.684  1.00  0.00     0.051 A 
ENDROOT
BRANCH   9  11
HETATM   11  C   UNL     1      24.647  47.812  49.916  1.00  0.00     0.251 C 
HETATM   12  N   UNL     1      23.275  47.735  49.767  1.00  0.00    -0.357 N 
HETATM   13  H   UNL     1      22.780  47.039  50.310  1.00  0.00     0.162 HD
HETATM   14  O   UNL     1      25.312  48.782  49.574  1.00  0.00    -0.268 OA
BRANCH  12  15
HETATM   15  C   UNL     1      22.545  48.917  49.339  1.00  0.00     0.127 C 
BRANCH  15  16
HETATM   16  C   UNL     1      21.663  48.662  48.116  1.00  0.00     0.060 C 
BRANCH  16  17
HETATM   17  C   UNL     1      20.360  48.029  48.497  1.00  0.00    -0.029 A 
HETATM   18  C   UNL     1      19.649  47.031  47.756  1.00  0.00    -0.002 A 
HETATM   19  C   UNL     1      18.466  46.760  48.445  1.00  0.00     0.042 A 
HETATM   20  C   UNL     1      19.896  46.342  46.550  1.00  0.00     0.014 A 
HETATM   21  C   UNL     1      17.517  45.837  47.987  1.00  0.00     0.030 A 
HETATM   22  N   UNL     1      18.463  47.553  49.567  1.00  0.00    -0.365 N 
HETATM   23  C   UNL     1      17.786  45.169  46.789  1.00  0.00     0.002 A 
HETATM   24  C   UNL     1      18.959  45.415  46.079  1.00  0.00     0.001 A 
HETATM   25  H   UNL     1      17.720  47.570  50.252  1.00  0.00     0.165 HD
HETATM   26  C   UNL     1      19.597  48.319  49.611  1.00  0.00     0.096 A 
ENDBRANCH  16  17
ENDBRANCH  15  16
ENDBRANCH  12  15
ENDBRANCH   9  11
BRANCH   7  27
HETATM   27  N   UNL     1      25.357  42.931  50.096  1.00  0.00    -0.323 N 
HETATM   28  C   UNL     1      26.167  42.173  49.261  1.00  0.00     0.251 C 
HETATM   29  O   UNL     1      27.268  42.487  48.824  1.00  0.00    -0.270 OA
HETATM   30  H   UNL     1      24.484  42.474  50.323  1.00  0.00     0.169 HD
BRANCH  28  31
HETATM   31  C   UNL     1      25.576  40.766  49.043  1.00  0.00     0.213 C 
HETATM   32  O   UNL     1      25.800  40.306  47.694  1.00  0.00    -0.376 OA
HETATM   33  C   UNL     1      26.517  39.064  47.764  1.00  0.00     0.168 C 
HETATM   34  C   UNL     1      27.176  39.026  49.125  1.00  0.00     0.029 C 
HETATM   35  C   UNL     1      26.150  39.720  49.986  1.00  0.00     0.044 C 
ENDBRANCH  28  31
ENDBRANCH   7  27
BRANCH   3  36
HETATM   36  C   UNL     1      28.566  43.844  54.759  1.00  0.00     0.056 C 
HETATM   37  C   UNL     1      29.970  43.321  54.322  1.00  0.00     0.012 C 
HETATM   38  C   UNL     1      30.529  43.950  55.611  1.00  0.00     0.002 C 
HETATM   39  C   UNL     1      29.357  44.946  55.525  1.00  0.00     0.012 C 
ENDBRANCH   3  36
TORSDOF 7
ENDMDL
MODEL 9
REMARK VINA RESULT:      -9.6      2.977      4.501
REMARK  7 active torsions:
REMARK  status: ('A' for Active; 'I' for Inactive)
REMARK    1  A    between atoms: C_3  and  C_4 
REMARK    2  A    between atoms: C_11  and  N_12 
REMARK       I    between atoms: N_12  and  C_13 
REMARK    3  A    between atoms: C_13  and  C_14 
REMARK    4  A    between atoms: C_21  and  C_22 
REMARK       I    between atoms: C_22  and  N_23 
REMARK    5  A    between atoms: N_23  and  C_24 
REMARK    6  A    between atoms: C_24  and  C_25 
REMARK    7  A    between atoms: C_25  and  C_26 
ROOT
HETATM    1  C   UNL     1      22.028  46.752  47.210  1.00  0.00     0.158 C 
HETATM    2  N   UNL     1      22.792  47.283  48.313  1.00  0.00    -0.335 N 
HETATM    3  C   UNL     1      22.813  48.603  48.707  1.00  0.00     0.111 A 
HETATM    4  N   UNL     1      23.523  48.755  49.801  1.00  0.00    -0.233 NA
HETATM    5  C   UNL     1      24.019  47.516  50.100  1.00  0.00     0.089 A 
HETATM    6  C   UNL     1      23.590  46.553  49.181  1.00  0.00     0.091 A 
HETATM    7  C   UNL     1      23.967  45.194  49.293  1.00  0.00     0.065 A 
HETATM    8  C   UNL     1      24.820  44.875  50.364  1.00  0.00     0.049 A 
HETATM    9  C   UNL     1      25.259  45.837  51.284  1.00  0.00     0.036 A 
HETATM   10  C   UNL     1      24.859  47.169  51.166  1.00  0.00     0.051 A 
ENDROOT
BRANCH   9  11
HETATM   11  C   UNL     1      26.200  45.404  52.349  1.00  0.00     0.251 C 
HETATM   12  N   UNL     1      26.245  44.050  52.625  1.00  0.00    -0.357 N 
HETATM   13  H   UNL     1      25.840  43.417  51.948  1.00  0.00     0.162 HD
HETATM   14  O   UNL     1      26.909  46.233  52.908  1.00  0.00    -0.268 OA
BRANCH  12  15
HETATM   15  C   UNL     1      27.291  43.543  53.499  1.00  0.00     0.127 C 
BRANCH  15  16
HETATM   16  C   UNL     1      28.602  43.272  52.763  1.00  0.00     0.060 C 
BRANCH  16  17
HETATM   17  C   UNL     1      28.593  41.933  52.091  1.00  0.00    -0.029 A 
HETATM   18  C   UNL     1      28.017  41.623  50.817  1.00  0.00    -0.002 A 
HETATM   19  C   UNL     1      28.191  40.256  50.598  1.00  0.00     0.042 A 
HETATM   20  C   UNL     1      27.346  42.380  49.833  1.00  0.00     0.014 A 
HETATM   21  C   UNL     1      27.727  39.608  49.448  1.00  0.00     0.030 A 
HETATM   22  N   UNL     1      28.857  39.756  51.692  1.00  0.00    -0.365 N 
HETATM   23  C   UNL     1      27.066  40.381  48.489  1.00  0.00     0.002 A 
HETATM   24  C   UNL     1      26.878  41.748  48.675  1.00  0.00     0.001 A 
HETATM   25  H   UNL     1      29.113  38.785  51.808  1.00  0.00     0.165 HD
HETATM   26  C   UNL     1      29.106  40.754  52.595  1.00  0.00     0.096 A 
ENDBRANCH  16  17
ENDBRANCH  15  16
ENDBRANCH  12  15
ENDBRANCH   9  11
BRANCH   7  27
HETATM   27  N   UNL     1      23.519  44.225  48.378  1.00  0.00    -0.323 N 
HETATM   28  C   UNL     1      22.822  43.053  48.639  1.00  0.00     0.251 C 
HETATM   29  O   UNL     1      22.463  42.642  49.736  1.00  0.00    -0.270 OA
HETATM   30  H   UNL     1      23.717  44.357  47.395  1.00  0.00     0.169 HD
BRANCH  28  31
HETATM   31  C   UNL     1      22.401  42.354  47.330  1.00  0.00     0.213 C 
HETATM   32  O   UNL     1      22.874  43.077  46.175  1.00  0.00    -0.376 OA
HETATM   33  C   UNL     1      23.680  42.181  45.393  1.00  0.00     0.168 C 
HETATM   34  C   UNL     1      24.119  41.076  46.327  1.00  0.00     0.029 C 
HETATM   35  C   UNL     1      22.913  40.926  47.221  1.00  0.00     0.044 C 
ENDBRANCH  28  31
ENDBRANCH   7  27
BRANCH   3  36
HETATM   36  C   UNL     1      22.117  49.774  48.015  1.00  0.00     0.056 C 
HETATM   37  C   UNL     1      20.608  49.897  48.397  1.00  0.00     0.012 C 
HETATM   38  C   UNL     1      20.800  51.425  48.374  1.00  0.00     0.002 C 
HETATM   39  C   UNL     1      22.276  51.154  48.719  1.00  0.00     0.012 C 
ENDBRANCH   3  36
TORSDOF 7
ENDMDL
MODEL 10
REMARK VINA RESULT:      -9.5      1.609      2.450
REMARK  7 active torsions:
REMARK  status: ('A' for Active; 'I' for Inactive)
REMARK    1  A    between atoms: C_3  and  C_4 
REMARK    2  A    between atoms: C_11  and  N_12 
REMARK       I    between atoms: N_12  and  C_13 
REMARK    3  A    between atoms: C_13  and  C_14 
REMARK    4  A    between atoms: C_21  and  C_22 
REMARK       I    between atoms: C_22  and  N_23 
REMARK    5  A    between atoms: N_23  and  C_24 
REMARK    6  A    between atoms: C_24  and  C_25 
REMARK    7  A    between atoms: C_25  and  C_26 
ROOT
HETATM    1  C   UNL     1      18.254  48.169  46.726  1.00  0.00     0.158 C 
HETATM    2  N   UNL     1      19.401  48.522  47.527  1.00  0.00    -0.335 N 
HETATM    3  C   UNL     1      19.592  49.731  48.159  1.00  0.00     0.111 A 
HETATM    4  N   UNL     1      20.683  49.713  48.889  1.00  0.00    -0.233 NA
HETATM    5  C   UNL     1      21.245  48.482  48.690  1.00  0.00     0.089 A 
HETATM    6  C   UNL     1      20.473  47.696  47.828  1.00  0.00     0.091 A 
HETATM    7  C   UNL     1      20.850  46.377  47.482  1.00  0.00     0.065 A 
HETATM    8  C   UNL     1      22.057  45.914  48.033  1.00  0.00     0.049 A 
HETATM    9  C   UNL     1      22.839  46.699  48.892  1.00  0.00     0.036 A 
HETATM   10  C   UNL     1      22.439  47.991  49.235  1.00  0.00     0.051 A 
ENDROOT
BRANCH   9  11
HETATM   11  C   UNL     1      24.124  46.134  49.377  1.00  0.00     0.251 C 
HETATM   12  N   UNL     1      24.740  46.799  50.421  1.00  0.00    -0.357 N 
HETATM   13  H   UNL     1      24.188  47.462  50.950  1.00  0.00     0.162 HD
HETATM   14  O   UNL     1      24.565  45.108  48.873  1.00  0.00    -0.268 OA
BRANCH  12  15
HETATM   15  C   UNL     1      25.880  46.179  51.077  1.00  0.00     0.127 C 
BRANCH  15  16
HETATM   16  C   UNL     1      25.477  45.252  52.223  1.00  0.00     0.060 C 
BRANCH  16  17
HETATM   17  C   UNL     1      26.670  44.610  52.861  1.00  0.00    -0.029 A 
HETATM   18  C   UNL     1      27.489  45.170  53.894  1.00  0.00    -0.002 A 
HETATM   19  C   UNL     1      28.514  44.259  54.158  1.00  0.00     0.042 A 
HETATM   20  C   UNL     1      27.463  46.379  54.621  1.00  0.00     0.014 A 
HETATM   21  C   UNL     1      29.513  44.498  55.108  1.00  0.00     0.030 A 
HETATM   22  N   UNL     1      28.319  43.183  53.326  1.00  0.00    -0.365 N 
HETATM   23  C   UNL     1      29.463  45.704  55.814  1.00  0.00     0.002 A 
HETATM   24  C   UNL     1      28.453  46.632  55.577  1.00  0.00     0.001 A 
HETATM   25  H   UNL     1      28.918  42.370  53.296  1.00  0.00     0.165 HD
HETATM   26  C   UNL     1      27.213  43.380  52.543  1.00  0.00     0.096 A 
ENDBRANCH  16  17
ENDBRANCH  15  16
ENDBRANCH  12  15
ENDBRANCH   9  11
BRANCH   7  27
HETATM   27  N   UNL     1      20.062  45.583  46.629  1.00  0.00    -0.323 N 
HETATM   28  C   UNL     1      19.082  44.661  46.975  1.00  0.00     0.251 C 
HETATM   29  O   UNL     1      18.719  44.367  48.107  1.00  0.00    -0.270 OA
HETATM   30  H   UNL     1      20.202  45.656  45.631  1.00  0.00     0.169 HD
BRANCH  28  31
HETATM   31  C   UNL     1      18.364  44.119  45.723  1.00  0.00     0.213 C 
HETATM   32  O   UNL     1      16.961  44.452  45.738  1.00  0.00    -0.376 OA
HETATM   33  C   UNL     1      16.669  45.191  44.541  1.00  0.00     0.168 C 
HETATM   34  C   UNL     1      17.985  45.749  44.051  1.00  0.00     0.029 C 
HETATM   35  C   UNL     1      18.947  44.647  44.421  1.00  0.00     0.044 C 
ENDBRANCH  28  31
ENDBRANCH   7  27
BRANCH   3  36
HETATM   36  C   UNL     1      18.687  50.960  48.071  1.00  0.00     0.056 C 
HETATM   37  C   UNL     1      17.761  51.125  49.316  1.00  0.00     0.012 C 
HETATM   38  C   UNL     1      17.988  52.643  49.197  1.00  0.00     0.002 C 
HETATM   39  C   UNL     1      19.335  52.299  48.536  1.00  0.00     0.012 C 
ENDBRANCH   3  36
TORSDOF 7
ENDMDL
