MODEL 1
REMARK VINA RESULT:      -9.7      0.000      0.000
REMARK  6 active torsions:
REMARK  status: ('A' for Active; 'I' for Inactive)
REMARK    1  A    between atoms: N_4  and  C_5 
REMARK    2  A    between atoms: C_13  and  C_14 
REMARK       I    between atoms: C_14  and  N_15 
REMARK    3  A    between atoms: N_15  and  C_16 
REMARK    4  A    between atoms: C_16  and  C_17 
REMARK    5  A    between atoms: C_17  and  O_18 
REMARK    6  A    between atoms: C_17  and  C_19 
ROOT
HETATM    1  C   UNL     1      25.378  44.267  52.271  1.00  0.00     0.257 C 
HETATM    2  N   UNL     1      26.578  43.675  51.961  1.00  0.00    -0.354 N 
HETATM    3  O   UNL     1      24.845  44.116  53.367  1.00  0.00    -0.267 OA
HETATM    4  H   UNL     1      27.067  43.961  51.120  1.00  0.00     0.162 HD
ENDROOT
BRANCH   1   5
HETATM    5  C   UNL     1      24.791  45.115  51.242  1.00  0.00     0.098 C 
HETATM    6  C   UNL     1      23.835  44.719  50.267  1.00  0.00     0.070 C 
HETATM    7  C   UNL     1      23.214  43.380  50.083  1.00  0.00     0.073 C 
HETATM    8  N   UNL     1      23.512  45.713  49.435  1.00  0.00    -0.170 NA
HETATM    9  N   UNL     1      24.172  46.810  49.906  1.00  0.00    -0.221 N 
HETATM   10  C   UNL     1      25.031  46.438  50.930  1.00  0.00     0.145 C 
HETATM   11 CL   UNL     1      26.254  47.480  51.524  1.00  0.00    -0.061 Cl
BRANCH   9  12
HETATM   12  C   UNL     1      23.866  48.082  49.330  1.00  0.00     0.060 A 
HETATM   13  C   UNL     1      22.559  48.570  49.223  1.00  0.00     0.031 A 
HETATM   14  C   UNL     1      22.313  49.815  48.634  1.00  0.00     0.002 A 
HETATM   15  C   UNL     1      23.365  50.578  48.134  1.00  0.00     0.000 A 
HETATM   16  C   UNL     1      24.668  50.095  48.211  1.00  0.00     0.002 A 
HETATM   17  C   UNL     1      24.917  48.852  48.798  1.00  0.00     0.031 A 
ENDBRANCH   9  12
ENDBRANCH   1   5
BRANCH   2  18
HETATM   18  C   UNL     1      27.365  42.977  52.963  1.00  0.00     0.159 C 
BRANCH  18  19
HETATM   19  C   UNL     1      28.857  43.355  52.923  1.00  0.00     0.169 C 
BRANCH  19  20
HETATM   20  O   UNL     1      29.626  42.202  52.558  1.00  0.00    -0.389 OA
HETATM   21  H   UNL     1      29.454  41.525  53.238  1.00  0.00     0.210 HD
ENDBRANCH  19  20
BRANCH  19  22
HETATM   22  C   UNL     1      29.358  43.952  54.224  1.00  0.00    -0.025 A 
HETATM   23  C   UNL     1      30.454  43.411  54.916  1.00  0.00     0.053 A 
HETATM   24  C   UNL     1      30.882  43.979  56.115  1.00  0.00     0.138 A 
HETATM   25  F   UNL     1      31.941  43.441  56.738  1.00  0.00    -0.204 F 
HETATM   26  C   UNL     1      30.227  45.085  56.651  1.00  0.00     0.072 A 
HETATM   27 CL   UNL     1      30.755  45.792  58.127  1.00  0.00    -0.081 Cl
HETATM   28  C   UNL     1      29.130  45.627  55.983  1.00  0.00     0.028 A 
HETATM   29  C   UNL     1      28.698  45.063  54.777  1.00  0.00     0.012 A 
ENDBRANCH  19  22
ENDBRANCH  18  19
ENDBRANCH   2  18
TORSDOF 6
ENDMDL
MODEL 2
REMARK VINA RESULT:      -9.6      0.962      1.627
REMARK  6 active torsions:
REMARK  status: ('A' for Active; 'I' for Inactive)
REMARK    1  A    between atoms: N_4  and  C_5 
REMARK    2  A    between atoms: C_13  and  C_14 
REMARK       I    between atoms: C_14  and  N_15 
REMARK    3  A    between atoms: N_15  and  C_16 
REMARK    4  A    between atoms: C_16  and  C_17 
REMARK    5  A    between atoms: C_17  and  O_18 
REMARK    6  A    between atoms: C_17  and  C_19 
ROOT
HETATM    1  C   UNL     1      25.344  44.257  52.180  1.00  0.00     0.257 C 
HETATM    2  N   UNL     1      26.499  43.598  51.840  1.00  0.00    -0.354 N 
HETATM    3  O   UNL     1      24.849  44.160  53.300  1.00  0.00    -0.267 OA
HETATM    4  H   UNL     1      26.968  43.838  50.973  1.00  0.00     0.162 HD
ENDROOT
BRANCH   1   5
HETATM    5  C   UNL     1      24.760  45.110  51.153  1.00  0.00     0.098 C 
HETATM    6  C   UNL     1      23.798  44.721  50.182  1.00  0.00     0.070 C 
HETATM    7  C   UNL     1      23.166  43.387  50.000  1.00  0.00     0.073 C 
HETATM    8  N   UNL     1      23.480  45.717  49.351  1.00  0.00    -0.170 NA
HETATM    9  N   UNL     1      24.150  46.809  49.820  1.00  0.00    -0.221 N 
HETATM   10  C   UNL     1      25.009  46.431  50.840  1.00  0.00     0.145 C 
HETATM   11 CL   UNL     1      26.241  47.464  51.430  1.00  0.00    -0.061 Cl
BRANCH   9  12
HETATM   12  C   UNL     1      23.852  48.084  49.244  1.00  0.00     0.060 A 
HETATM   13  C   UNL     1      24.844  48.952  48.774  1.00  0.00     0.031 A 
HETATM   14  C   UNL     1      24.498  50.197  48.236  1.00  0.00     0.002 A 
HETATM   15  C   UNL     1      23.165  50.593  48.175  1.00  0.00     0.000 A 
HETATM   16  C   UNL     1      22.170  49.750  48.661  1.00  0.00     0.002 A 
HETATM   17  C   UNL     1      22.510  48.508  49.200  1.00  0.00     0.031 A 
ENDBRANCH   9  12
ENDBRANCH   1   5
BRANCH   2  18
HETATM   18  C   UNL     1      27.290  42.884  52.828  1.00  0.00     0.159 C 
BRANCH  18  19
HETATM   19  C   UNL     1      28.771  43.302  52.827  1.00  0.00     0.169 C 
BRANCH  19  20
HETATM   20  O   UNL     1      29.584  42.159  52.540  1.00  0.00    -0.389 OA
HETATM   21  H   UNL     1      30.065  42.357  51.717  1.00  0.00     0.210 HD
ENDBRANCH  19  20
BRANCH  19  22
HETATM   22  C   UNL     1      29.206  43.967  54.120  1.00  0.00    -0.025 A 
HETATM   23  C   UNL     1      28.547  45.097  54.631  1.00  0.00     0.053 A 
HETATM   24  C   UNL     1      28.979  45.689  55.817  1.00  0.00     0.138 A 
HETATM   25  F   UNL     1      28.314  46.759  56.279  1.00  0.00    -0.204 F 
HETATM   26  C   UNL     1      30.073  45.178  56.509  1.00  0.00     0.072 A 
HETATM   27 CL   UNL     1      30.607  45.903  57.975  1.00  0.00    -0.081 Cl
HETATM   28  C   UNL     1      30.746  44.064  56.009  1.00  0.00     0.028 A 
HETATM   29  C   UNL     1      30.315  43.463  54.821  1.00  0.00     0.012 A 
ENDBRANCH  19  22
ENDBRANCH  18  19
ENDBRANCH   2  18
TORSDOF 6
ENDMDL
MODEL 3
REMARK VINA RESULT:      -9.5      1.516      2.340
REMARK  6 active torsions:
REMARK  status: ('A' for Active; 'I' for Inactive)
REMARK    1  A    between atoms: N_4  and  C_5 
REMARK    2  A    between atoms: C_13  and  C_14 
REMARK       I    between atoms: C_14  and  N_15 
REMARK    3  A    between atoms: N_15  and  C_16 
REMARK    4  A    between atoms: C_16  and  C_17 
REMARK    5  A    between atoms: C_17  and  O_18 
REMARK    6  A    between atoms: C_17  and  C_19 
ROOT
HETATM    1  C   UNL     1      25.799  44.276  51.955  1.00  0.00     0.257 C 
HETATM    2  N   UNL     1      27.154  44.057  51.899  1.00  0.00    -0.354 N 
HETATM    3  O   UNL     1      25.021  43.418  52.365  1.00  0.00    -0.267 OA
HETATM    4  H   UNL     1      27.773  44.840  51.723  1.00  0.00     0.162 HD
ENDROOT
BRANCH   1   5
HETATM    5  C   UNL     1      25.340  45.594  51.540  1.00  0.00     0.098 C 
HETATM    6  C   UNL     1      25.467  46.803  52.276  1.00  0.00     0.070 C 
HETATM    7  C   UNL     1      26.097  47.001  53.609  1.00  0.00     0.073 C 
HETATM    8  N   UNL     1      24.917  47.845  51.649  1.00  0.00    -0.170 NA
HETATM    9  N   UNL     1      24.505  47.365  50.440  1.00  0.00    -0.221 N 
HETATM   10  C   UNL     1      24.657  45.987  50.406  1.00  0.00     0.145 C 
HETATM   11 CL   UNL     1      23.938  45.016  49.191  1.00  0.00    -0.061 Cl
BRANCH   9  12
HETATM   12  C   UNL     1      24.047  48.300  49.460  1.00  0.00     0.060 A 
HETATM   13  C   UNL     1      24.889  49.250  48.870  1.00  0.00     0.031 A 
HETATM   14  C   UNL     1      24.385  50.155  47.930  1.00  0.00     0.002 A 
HETATM   15  C   UNL     1      23.038  50.131  47.578  1.00  0.00     0.000 A 
HETATM   16  C   UNL     1      22.185  49.207  48.175  1.00  0.00     0.002 A 
HETATM   17  C   UNL     1      22.683  48.303  49.115  1.00  0.00     0.031 A 
ENDBRANCH   9  12
ENDBRANCH   1   5
BRANCH   2  18
HETATM   18  C   UNL     1      27.759  42.868  52.474  1.00  0.00     0.159 C 
BRANCH  18  19
HETATM   19  C   UNL     1      29.268  43.030  52.736  1.00  0.00     0.169 C 
BRANCH  19  20
HETATM   20  O   UNL     1      29.903  41.750  52.641  1.00  0.00    -0.389 OA
HETATM   21  H   UNL     1      30.594  41.830  51.960  1.00  0.00     0.210 HD
ENDBRANCH  19  20
BRANCH  19  22
HETATM   22  C   UNL     1      29.576  43.693  54.065  1.00  0.00    -0.025 A 
HETATM   23  C   UNL     1      28.864  44.815  54.518  1.00  0.00     0.053 A 
HETATM   24  C   UNL     1      29.180  45.405  55.740  1.00  0.00     0.138 A 
HETATM   25  F   UNL     1      28.467  46.467  56.144  1.00  0.00    -0.204 F 
HETATM   26  C   UNL     1      30.211  44.900  56.528  1.00  0.00     0.072 A 
HETATM   27 CL   UNL     1      30.602  45.623  58.039  1.00  0.00    -0.081 Cl
HETATM   28  C   UNL     1      30.936  43.794  56.088  1.00  0.00     0.028 A 
HETATM   29  C   UNL     1      30.621  43.195  54.863  1.00  0.00     0.012 A 
ENDBRANCH  19  22
ENDBRANCH  18  19
ENDBRANCH   2  18
TORSDOF 6
ENDMDL
MODEL 4
REMARK VINA RESULT:      -9.4      3.968      9.442
REMARK  6 active torsions:
REMARK  status: ('A' for Active; 'I' for Inactive)
REMARK    1  A    between atoms: N_4  and  C_5 
REMARK    2  A    between atoms: C_13  and  C_14 
REMARK       I    between atoms: C_14  and  N_15 
REMARK    3  A    between atoms: N_15  and  C_16 
REMARK    4  A    between atoms: C_16  and  C_17 
REMARK    5  A    between atoms: C_17  and  O_18 
REMARK    6  A    between atoms: C_17  and  C_19 
ROOT
HETATM    1  C   UNL     1      25.702  45.925  52.831  1.00  0.00     0.257 C 
HETATM    2  N   UNL     1      25.794  46.803  51.779  1.00  0.00    -0.354 N 
HETATM    3  O   UNL     1      24.790  45.109  52.916  1.00  0.00    -0.267 OA
HETATM    4  H   UNL     1      26.646  47.337  51.654  1.00  0.00     0.162 HD
ENDROOT
BRANCH   1   5
HETATM    5  C   UNL     1      26.769  45.991  53.821  1.00  0.00     0.098 C 
HETATM    6  C   UNL     1      26.978  47.029  54.769  1.00  0.00     0.070 C 
HETATM    7  C   UNL     1      26.165  48.258  54.976  1.00  0.00     0.073 C 
HETATM    8  N   UNL     1      28.062  46.825  55.521  1.00  0.00    -0.170 NA
HETATM    9  N   UNL     1      28.533  45.598  55.154  1.00  0.00    -0.221 N 
HETATM   10  C   UNL     1      27.826  45.134  54.055  1.00  0.00     0.145 C 
HETATM   11 CL   UNL     1      28.357  43.799  53.122  1.00  0.00    -0.061 Cl
BRANCH   9  12
HETATM   12  C   UNL     1      29.585  45.017  55.929  1.00  0.00     0.060 A 
HETATM   13  C   UNL     1      30.303  43.892  55.506  1.00  0.00     0.031 A 
HETATM   14  C   UNL     1      31.311  43.352  56.313  1.00  0.00     0.002 A 
HETATM   15  C   UNL     1      31.603  43.918  57.551  1.00  0.00     0.000 A 
HETATM   16  C   UNL     1      30.880  45.022  57.995  1.00  0.00     0.002 A 
HETATM   17  C   UNL     1      29.872  45.563  57.193  1.00  0.00     0.031 A 
ENDBRANCH   9  12
ENDBRANCH   1   5
BRANCH   2  18
HETATM   18  C   UNL     1      24.916  46.705  50.625  1.00  0.00     0.159 C 
BRANCH  18  19
HETATM   19  C   UNL     1      25.232  47.751  49.541  1.00  0.00     0.169 C 
BRANCH  19  20
HETATM   20  O   UNL     1      26.375  48.514  49.941  1.00  0.00    -0.389 OA
HETATM   21  H   UNL     1      26.256  49.409  49.576  1.00  0.00     0.210 HD
ENDBRANCH  19  20
BRANCH  19  22
HETATM   22  C   UNL     1      24.057  48.657  49.224  1.00  0.00    -0.025 A 
HETATM   23  C   UNL     1      22.729  48.209  49.313  1.00  0.00     0.053 A 
HETATM   24  C   UNL     1      21.674  49.066  49.004  1.00  0.00     0.138 A 
HETATM   25  F   UNL     1      20.419  48.605  49.116  1.00  0.00    -0.204 F 
HETATM   26  C   UNL     1      21.917  50.374  48.595  1.00  0.00     0.072 A 
HETATM   27 CL   UNL     1      20.617  51.436  48.218  1.00  0.00    -0.081 Cl
HETATM   28  C   UNL     1      23.230  50.831  48.489  1.00  0.00     0.028 A 
HETATM   29  C   UNL     1      24.294  49.977  48.801  1.00  0.00     0.012 A 
ENDBRANCH  19  22
ENDBRANCH  18  19
ENDBRANCH   2  18
TORSDOF 6
ENDMDL
MODEL 5
REMARK VINA RESULT:      -9.2      3.858      9.205
REMARK  6 active torsions:
REMARK  status: ('A' for Active; 'I' for Inactive)
REMARK    1  A    between atoms: N_4  and  C_5 
REMARK    2  A    between atoms: C_13  and  C_14 
REMARK       I    between atoms: C_14  and  N_15 
REMARK    3  A    between atoms: N_15  and  C_16 
REMARK    4  A    between atoms: C_16  and  C_17 
REMARK    5  A    between atoms: C_17  and  O_18 
REMARK    6  A    between atoms: C_17  and  C_19 
ROOT
HETATM    1  C   UNL     1      24.940  45.125  51.363  1.00  0.00     0.257 C 
HETATM    2  N   UNL     1      25.049  46.307  50.674  1.00  0.00    -0.354 N 
HETATM    3  O   UNL     1      23.891  44.488  51.396  1.00  0.00    -0.267 OA
HETATM    4  H   UNL     1      25.967  46.710  50.525  1.00  0.00     0.162 HD
ENDROOT
BRANCH   1   5
HETATM    5  C   UNL     1      26.149  44.647  52.021  1.00  0.00     0.098 C 
HETATM    6  C   UNL     1      27.098  43.735  51.484  1.00  0.00     0.070 C 
HETATM    7  C   UNL     1      27.085  43.081  50.148  1.00  0.00     0.073 C 
HETATM    8  N   UNL     1      28.085  43.461  52.340  1.00  0.00    -0.170 NA
HETATM    9  N   UNL     1      27.863  44.264  53.420  1.00  0.00    -0.221 N 
HETATM   10  C   UNL     1      26.640  44.903  53.286  1.00  0.00     0.145 C 
HETATM   11 CL   UNL     1      25.883  45.717  54.590  1.00  0.00    -0.061 Cl
BRANCH   9  12
HETATM   12  C   UNL     1      28.873  44.335  54.430  1.00  0.00     0.060 A 
HETATM   13  C   UNL     1      29.086  45.480  55.207  1.00  0.00     0.031 A 
HETATM   14  C   UNL     1      30.101  45.502  56.169  1.00  0.00     0.002 A 
HETATM   15  C   UNL     1      30.921  44.392  56.357  1.00  0.00     0.000 A 
HETATM   16  C   UNL     1      30.736  43.256  55.574  1.00  0.00     0.002 A 
HETATM   17  C   UNL     1      29.725  43.230  54.611  1.00  0.00     0.031 A 
ENDBRANCH   9  12
ENDBRANCH   1   5
BRANCH   2  18
HETATM   18  C   UNL     1      23.984  46.787  49.809  1.00  0.00     0.159 C 
BRANCH  18  19
HETATM   19  C   UNL     1      24.355  48.081  49.062  1.00  0.00     0.169 C 
BRANCH  19  20
HETATM   20  O   UNL     1      25.481  48.689  49.705  1.00  0.00    -0.389 OA
HETATM   21  H   UNL     1      25.326  48.621  50.664  1.00  0.00     0.210 HD
ENDBRANCH  19  20
BRANCH  19  22
HETATM   22  C   UNL     1      23.200  49.058  48.949  1.00  0.00    -0.025 A 
HETATM   23  C   UNL     1      21.868  48.657  49.137  1.00  0.00     0.053 A 
HETATM   24  C   UNL     1      20.830  49.579  49.015  1.00  0.00     0.138 A 
HETATM   25  F   UNL     1      19.572  49.160  49.217  1.00  0.00    -0.204 F 
HETATM   26  C   UNL     1      21.094  50.909  48.697  1.00  0.00     0.072 A 
HETATM   27 CL   UNL     1      19.816  52.051  48.551  1.00  0.00    -0.081 Cl
HETATM   28  C   UNL     1      22.410  51.321  48.495  1.00  0.00     0.028 A 
HETATM   29  C   UNL     1      23.457  50.400  48.619  1.00  0.00     0.012 A 
ENDBRANCH  19  22
ENDBRANCH  18  19
ENDBRANCH   2  18
TORSDOF 6
ENDMDL
MODEL 6
REMARK VINA RESULT:      -9.1      3.138      8.394
REMARK  6 active torsions:
REMARK  status: ('A' for Active; 'I' for Inactive)
REMARK    1  A    between atoms: N_4  and  C_5 
REMARK    2  A    between atoms: C_13  and  C_14 
REMARK       I    between atoms: C_14  and  N_15 
REMARK    3  A    between atoms: N_15  and  C_16 
REMARK    4  A    between atoms: C_16  and  C_17 
REMARK    5  A    between atoms: C_17  and  O_18 
REMARK    6  A    between atoms: C_17  and  C_19 
ROOT
HETATM    1  C   UNL     1      25.888  44.422  53.031  1.00  0.00     0.257 C 
HETATM    2  N   UNL     1      26.264  43.916  51.812  1.00  0.00    -0.354 N 
HETATM    3  O   UNL     1      24.713  44.452  53.387  1.00  0.00    -0.267 OA
HETATM    4  H   UNL     1      27.247  43.749  51.628  1.00  0.00     0.162 HD
ENDROOT
BRANCH   1   5
HETATM    5  C   UNL     1      26.964  44.887  53.897  1.00  0.00     0.098 C 
HETATM    6  C   UNL     1      27.190  46.226  54.317  1.00  0.00     0.070 C 
HETATM    7  C   UNL     1      26.389  47.437  53.989  1.00  0.00     0.073 C 
HETATM    8  N   UNL     1      28.279  46.346  55.081  1.00  0.00    -0.170 NA
HETATM    9  N   UNL     1      28.736  45.074  55.263  1.00  0.00    -0.221 N 
HETATM   10  C   UNL     1      28.015  44.197  54.466  1.00  0.00     0.145 C 
HETATM   11 CL   UNL     1      28.527  42.587  54.181  1.00  0.00    -0.061 Cl
BRANCH   9  12
HETATM   12  C   UNL     1      29.789  44.862  56.207  1.00  0.00     0.060 A 
HETATM   13  C   UNL     1      30.750  43.856  56.055  1.00  0.00     0.031 A 
HETATM   14  C   UNL     1      31.749  43.680  57.019  1.00  0.00     0.002 A 
HETATM   15  C   UNL     1      31.793  44.495  58.147  1.00  0.00     0.000 A 
HETATM   16  C   UNL     1      30.829  45.484  58.323  1.00  0.00     0.002 A 
HETATM   17  C   UNL     1      29.829  45.662  57.364  1.00  0.00     0.031 A 
ENDBRANCH   9  12
ENDBRANCH   1   5
BRANCH   2  18
HETATM   18  C   UNL     1      25.318  43.235  50.944  1.00  0.00     0.159 C 
BRANCH  18  19
HETATM   19  C   UNL     1      25.313  43.791  49.509  1.00  0.00     0.169 C 
BRANCH  19  20
HETATM   20  O   UNL     1      26.612  43.615  48.931  1.00  0.00    -0.389 OA
HETATM   21  H   UNL     1      26.844  44.459  48.503  1.00  0.00     0.210 HD
ENDBRANCH  19  20
BRANCH  19  22
HETATM   22  C   UNL     1      24.876  45.242  49.430  1.00  0.00    -0.025 A 
HETATM   23  C   UNL     1      25.752  46.298  49.727  1.00  0.00     0.053 A 
HETATM   24  C   UNL     1      25.313  47.619  49.654  1.00  0.00     0.138 A 
HETATM   25  F   UNL     1      26.185  48.600  49.932  1.00  0.00    -0.204 F 
HETATM   26  C   UNL     1      24.001  47.914  49.296  1.00  0.00     0.072 A 
HETATM   27 CL   UNL     1      23.458  49.543  49.201  1.00  0.00    -0.081 Cl
HETATM   28  C   UNL     1      23.115  46.877  49.010  1.00  0.00     0.028 A 
HETATM   29  C   UNL     1      23.550  45.548  49.077  1.00  0.00     0.012 A 
ENDBRANCH  19  22
ENDBRANCH  18  19
ENDBRANCH   2  18
TORSDOF 6
ENDMDL
MODEL 7
REMARK VINA RESULT:      -8.9      1.740      2.397
REMARK  6 active torsions:
REMARK  status: ('A' for Active; 'I' for Inactive)
REMARK    1  A    between atoms: N_4  and  C_5 
REMARK    2  A    between atoms: C_13  and  C_14 
REMARK       I    between atoms: C_14  and  N_15 
REMARK    3  A    between atoms: N_15  and  C_16 
REMARK    4  A    between atoms: C_16  and  C_17 
REMARK    5  A    between atoms: C_17  and  O_18 
REMARK    6  A    between atoms: C_17  and  C_19 
ROOT
HETATM    1  C   UNL     1      26.311  45.277  50.302  1.00  0.00     0.257 C 
HETATM    2  N   UNL     1      26.495  45.354  51.660  1.00  0.00    -0.354 N 
HETATM    3  O   UNL     1      27.035  44.589  49.588  1.00  0.00    -0.267 OA
HETATM    4  H   UNL     1      25.779  45.787  52.232  1.00  0.00     0.162 HD
ENDROOT
BRANCH   1   5
HETATM    5  C   UNL     1      25.185  46.026  49.760  1.00  0.00     0.098 C 
HETATM    6  C   UNL     1      23.948  45.486  49.315  1.00  0.00     0.070 C 
HETATM    7  C   UNL     1      23.519  44.062  49.313  1.00  0.00     0.073 C 
HETATM    8  N   UNL     1      23.124  46.421  48.836  1.00  0.00    -0.170 NA
HETATM    9  N   UNL     1      23.761  47.609  49.048  1.00  0.00    -0.221 N 
HETATM   10  C   UNL     1      25.049  47.376  49.505  1.00  0.00     0.145 C 
HETATM   11 CL   UNL     1      26.239  48.607  49.554  1.00  0.00    -0.061 Cl
BRANCH   9  12
HETATM   12  C   UNL     1      23.033  48.817  48.813  1.00  0.00     0.060 A 
HETATM   13  C   UNL     1      23.628  49.965  48.276  1.00  0.00     0.031 A 
HETATM   14  C   UNL     1      22.874  51.128  48.083  1.00  0.00     0.002 A 
HETATM   15  C   UNL     1      21.527  51.162  48.435  1.00  0.00     0.000 A 
HETATM   16  C   UNL     1      20.929  50.036  48.992  1.00  0.00     0.002 A 
HETATM   17  C   UNL     1      21.678  48.873  49.187  1.00  0.00     0.031 A 
ENDBRANCH   9  12
ENDBRANCH   1   5
BRANCH   2  18
HETATM   18  C   UNL     1      27.446  44.499  52.351  1.00  0.00     0.159 C 
BRANCH  18  19
HETATM   19  C   UNL     1      27.189  44.418  53.867  1.00  0.00     0.169 C 
BRANCH  19  20
HETATM   20  O   UNL     1      26.449  45.572  54.281  1.00  0.00    -0.389 OA
HETATM   21  H   UNL     1      27.091  46.299  54.371  1.00  0.00     0.210 HD
ENDBRANCH  19  20
BRANCH  19  22
HETATM   22  C   UNL     1      28.460  44.266  54.681  1.00  0.00    -0.025 A 
HETATM   23  C   UNL     1      28.893  45.261  55.573  1.00  0.00     0.053 A 
HETATM   24  C   UNL     1      30.071  45.092  56.299  1.00  0.00     0.138 A 
HETATM   25  F   UNL     1      30.443  46.059  57.151  1.00  0.00    -0.204 F 
HETATM   26  C   UNL     1      30.842  43.943  56.147  1.00  0.00     0.072 A 
HETATM   27 CL   UNL     1      32.294  43.729  57.044  1.00  0.00    -0.081 Cl
HETATM   28  C   UNL     1      30.432  42.951  55.257  1.00  0.00     0.028 A 
HETATM   29  C   UNL     1      29.248  43.113  54.528  1.00  0.00     0.012 A 
ENDBRANCH  19  22
ENDBRANCH  18  19
ENDBRANCH   2  18
TORSDOF 6
ENDMDL
MODEL 8
REMARK VINA RESULT:      -8.8      3.044      4.382
REMARK  6 active torsions:
REMARK  status: ('A' for Active; 'I' for Inactive)
REMARK    1  A    between atoms: N_4  and  C_5 
REMARK    2  A    between atoms: C_13  and  C_14 
REMARK       I    between atoms: C_14  and  N_15 
REMARK    3  A    between atoms: N_15  and  C_16 
REMARK    4  A    between atoms: C_16  and  C_17 
REMARK    5  A    between atoms: C_17  and  O_18 
REMARK    6  A    between atoms: C_17  and  C_19 
ROOT
HETATM    1  C   UNL     1      24.486  48.049  49.615  1.00  0.00     0.257 C 
HETATM    2  N   UNL     1      24.639  47.109  50.603  1.00  0.00    -0.354 N 
HETATM    3  O   UNL     1      25.446  48.506  49.000  1.00  0.00    -0.267 OA
HETATM    4  H   UNL     1      23.820  46.632  50.963  1.00  0.00     0.162 HD
ENDROOT
BRANCH   1   5
HETATM    5  C   UNL     1      23.118  48.447  49.309  1.00  0.00     0.098 C 
HETATM    6  C   UNL     1      22.088  47.606  48.807  1.00  0.00     0.070 C 
HETATM    7  C   UNL     1      22.160  46.153  48.497  1.00  0.00     0.073 C 
HETATM    8  N   UNL     1      20.947  48.268  48.592  1.00  0.00    -0.170 NA
HETATM    9  N   UNL     1      21.172  49.535  49.042  1.00  0.00    -0.221 N 
HETATM   10  C   UNL     1      22.510  49.684  49.376  1.00  0.00     0.145 C 
HETATM   11 CL   UNL     1      23.219  51.219  49.654  1.00  0.00    -0.061 Cl
BRANCH   9  12
HETATM   12  C   UNL     1      20.061  50.432  49.123  1.00  0.00     0.060 A 
HETATM   13  C   UNL     1      18.929  50.165  49.901  1.00  0.00     0.031 A 
HETATM   14  C   UNL     1      17.861  51.069  49.930  1.00  0.00     0.002 A 
HETATM   15  C   UNL     1      17.906  52.238  49.175  1.00  0.00     0.000 A 
HETATM   16  C   UNL     1      19.015  52.504  48.377  1.00  0.00     0.002 A 
HETATM   17  C   UNL     1      20.082  51.604  48.345  1.00  0.00     0.031 A 
ENDBRANCH   9  12
ENDBRANCH   1   5
BRANCH   2  18
HETATM   18  C   UNL     1      25.923  46.479  50.863  1.00  0.00     0.159 C 
BRANCH  18  19
HETATM   19  C   UNL     1      25.787  45.061  51.448  1.00  0.00     0.169 C 
BRANCH  19  20
HETATM   20  O   UNL     1      24.516  44.939  52.098  1.00  0.00    -0.389 OA
HETATM   21  H   UNL     1      24.349  45.788  52.547  1.00  0.00     0.210 HD
ENDBRANCH  19  20
BRANCH  19  22
HETATM   22  C   UNL     1      26.917  44.692  52.391  1.00  0.00    -0.025 A 
HETATM   23  C   UNL     1      28.004  43.907  51.974  1.00  0.00     0.053 A 
HETATM   24  C   UNL     1      29.020  43.578  52.869  1.00  0.00     0.138 A 
HETATM   25  F   UNL     1      30.049  42.838  52.428  1.00  0.00    -0.204 F 
HETATM   26  C   UNL     1      28.972  44.013  54.190  1.00  0.00     0.072 A 
HETATM   27 CL   UNL     1      30.227  43.613  55.297  1.00  0.00    -0.081 Cl
HETATM   28  C   UNL     1      27.894  44.783  54.624  1.00  0.00     0.028 A 
HETATM   29  C   UNL     1      26.872  45.119  53.729  1.00  0.00     0.012 A 
ENDBRANCH  19  22
ENDBRANCH  18  19
ENDBRANCH   2  18
TORSDOF 6
ENDMDL
MODEL 9
REMARK VINA RESULT:      -8.8      1.989      2.662
REMARK  6 active torsions:
REMARK  status: ('A' for Active; 'I' for Inactive)
REMARK    1  A    between atoms: N_4  and  C_5 
REMARK    2  A    between atoms: C_13  and  C_14 
REMARK       I    between atoms: C_14  and  N_15 
REMARK    3  A    between atoms: N_15  and  C_16 
REMARK    4  A    between atoms: C_16  and  C_17 
REMARK    5  A    between atoms: C_17  and  O_18 
REMARK    6  A    between atoms: C_17  and  C_19 
ROOT
HETATM    1  C   UNL     1      25.458  44.057  52.378  1.00  0.00     0.257 C 
HETATM    2  N   UNL     1      26.591  43.364  52.028  1.00  0.00    -0.354 N 
HETATM    3  O   UNL     1      25.028  44.055  53.528  1.00  0.00    -0.267 OA
HETATM    4  H   UNL     1      27.010  43.529  51.119  1.00  0.00     0.162 HD
ENDROOT
BRANCH   1   5
HETATM    5  C   UNL     1      24.818  44.826  51.320  1.00  0.00     0.098 C 
HETATM    6  C   UNL     1      25.026  46.202  51.034  1.00  0.00     0.070 C 
HETATM    7  C   UNL     1      25.936  47.155  51.725  1.00  0.00     0.073 C 
HETATM    8  N   UNL     1      24.268  46.635  50.023  1.00  0.00    -0.170 NA
HETATM    9  N   UNL     1      23.620  45.529  49.556  1.00  0.00    -0.221 N 
HETATM   10  C   UNL     1      23.861  44.454  50.398  1.00  0.00     0.145 C 
HETATM   11 CL   UNL     1      22.950  43.005  50.317  1.00  0.00    -0.061 Cl
BRANCH   9  12
HETATM   12  C   UNL     1      22.877  45.643  48.340  1.00  0.00     0.060 A 
HETATM   13  C   UNL     1      21.926  46.648  48.126  1.00  0.00     0.031 A 
HETATM   14  C   UNL     1      21.213  46.703  46.923  1.00  0.00     0.002 A 
HETATM   15  C   UNL     1      21.431  45.752  45.930  1.00  0.00     0.000 A 
HETATM   16  C   UNL     1      22.355  44.733  46.139  1.00  0.00     0.002 A 
HETATM   17  C   UNL     1      23.068  44.673  47.338  1.00  0.00     0.031 A 
ENDBRANCH   9  12
ENDBRANCH   1   5
BRANCH   2  18
HETATM   18  C   UNL     1      27.435  42.728  53.025  1.00  0.00     0.159 C 
BRANCH  18  19
HETATM   19  C   UNL     1      28.900  43.198  52.958  1.00  0.00     0.169 C 
BRANCH  19  20
HETATM   20  O   UNL     1      29.738  42.084  52.631  1.00  0.00    -0.389 OA
HETATM   21  H   UNL     1      29.175  41.290  52.668  1.00  0.00     0.210 HD
ENDBRANCH  19  20
BRANCH  19  22
HETATM   22  C   UNL     1      29.369  43.877  54.231  1.00  0.00    -0.025 A 
HETATM   23  C   UNL     1      30.444  43.378  54.985  1.00  0.00     0.053 A 
HETATM   24  C   UNL     1      30.842  44.021  56.155  1.00  0.00     0.138 A 
HETATM   25  F   UNL     1      31.883  43.521  56.840  1.00  0.00    -0.204 F 
HETATM   26  C   UNL     1      30.179  45.160  56.602  1.00  0.00     0.072 A 
HETATM   27 CL   UNL     1      30.671  45.959  58.044  1.00  0.00    -0.081 Cl
HETATM   28  C   UNL     1      29.102  45.662  55.872  1.00  0.00     0.028 A 
HETATM   29  C   UNL     1      28.700  45.023  54.694  1.00  0.00     0.012 A 
ENDBRANCH  19  22
ENDBRANCH  18  19
ENDBRANCH   2  18
TORSDOF 6
ENDMDL
MODEL 10
REMARK VINA RESULT:      -8.7      4.662      8.705
REMARK  6 active torsions:
REMARK  status: ('A' for Active; 'I' for Inactive)
REMARK    1  A    between atoms: N_4  and  C_5 
REMARK    2  A    between atoms: C_13  and  C_14 
REMARK       I    between atoms: C_14  and  N_15 
REMARK    3  A    between atoms: N_15  and  C_16 
REMARK    4  A    between atoms: C_16  and  C_17 
REMARK    5  A    between atoms: C_17  and  O_18 
REMARK    6  A    between atoms: C_17  and  C_19 
ROOT
HETATM    1  C   UNL     1      26.925  44.030  51.806  1.00  0.00     0.257 C 
HETATM    2  N   UNL     1      26.168  42.894  51.954  1.00  0.00    -0.354 N 
HETATM    3  O   UNL     1      27.025  44.605  50.726  1.00  0.00    -0.267 OA
HETATM    4  H   UNL     1      25.970  42.551  52.888  1.00  0.00     0.162 HD
ENDROOT
BRANCH   1   5
HETATM    5  C   UNL     1      27.572  44.536  53.009  1.00  0.00     0.098 C 
HETATM    6  C   UNL     1      27.166  45.662  53.775  1.00  0.00     0.070 C 
HETATM    7  C   UNL     1      26.002  46.559  53.540  1.00  0.00     0.073 C 
HETATM    8  N   UNL     1      27.981  45.901  54.805  1.00  0.00    -0.170 NA
HETATM    9  N   UNL     1      28.883  44.878  54.799  1.00  0.00    -0.221 N 
HETATM   10  C   UNL     1      28.713  44.109  53.658  1.00  0.00     0.145 C 
HETATM   11 CL   UNL     1      29.873  42.955  53.150  1.00  0.00    -0.061 Cl
BRANCH   9  12
HETATM   12  C   UNL     1      29.774  44.754  55.911  1.00  0.00     0.060 A 
HETATM   13  C   UNL     1      29.741  45.625  57.007  1.00  0.00     0.031 A 
HETATM   14  C   UNL     1      30.648  45.471  58.061  1.00  0.00     0.002 A 
HETATM   15  C   UNL     1      31.602  44.457  58.028  1.00  0.00     0.000 A 
HETATM   16  C   UNL     1      31.662  43.599  56.933  1.00  0.00     0.002 A 
HETATM   17  C   UNL     1      30.759  43.751  55.878  1.00  0.00     0.031 A 
ENDBRANCH   9  12
ENDBRANCH   1   5
BRANCH   2  18
HETATM   18  C   UNL     1      25.310  42.404  50.888  1.00  0.00     0.159 C 
BRANCH  18  19
HETATM   19  C   UNL     1      25.658  40.970  50.450  1.00  0.00     0.169 C 
BRANCH  19  20
HETATM   20  O   UNL     1      26.472  40.355  51.455  1.00  0.00    -0.389 OA
HETATM   21  H   UNL     1      27.330  40.817  51.442  1.00  0.00     0.210 HD
ENDBRANCH  19  20
BRANCH  19  22
HETATM   22  C   UNL     1      26.330  40.906  49.092  1.00  0.00    -0.025 A 
HETATM   23  C   UNL     1      25.590  40.906  47.898  1.00  0.00     0.053 A 
HETATM   24  C   UNL     1      26.240  40.836  46.666  1.00  0.00     0.138 A 
HETATM   25  F   UNL     1      25.498  40.853  45.548  1.00  0.00    -0.204 F 
HETATM   26  C   UNL     1      27.628  40.756  46.598  1.00  0.00     0.072 A 
HETATM   27 CL   UNL     1      28.433  40.674  45.080  1.00  0.00    -0.081 Cl
HETATM   28  C   UNL     1      28.376  40.742  47.774  1.00  0.00     0.028 A 
HETATM   29  C   UNL     1      27.730  40.816  49.014  1.00  0.00     0.012 A 
ENDBRANCH  19  22
ENDBRANCH  18  19
ENDBRANCH   2  18
TORSDOF 6
ENDMDL
