MODEL 1
REMARK VINA RESULT:      -9.5      0.000      0.000
REMARK  7 active torsions:
REMARK  status: ('A' for Active; 'I' for Inactive)
REMARK    1  A    between atoms: O_2  and  C_3 
REMARK    2  A    between atoms: C_6  and  C_7 
REMARK    3  A    between atoms: C_7  and  N_8 
REMARK    4  A    between atoms: C_7  and  C_25 
REMARK    5  A    between atoms: N_8  and  C_11 
REMARK    6  A    between atoms: C_11  and  C_12 
REMARK       I    between atoms: C_12  and  N_13 
REMARK    7  A    between atoms: N_13  and  C_14 
ROOT
HETATM    1  N   UNL     1      27.709  45.919  55.307  1.00  0.00    -0.055 N 
HETATM    2  H   UNL     1      26.893  45.347  55.034  1.00  0.00     0.278 HD
HETATM    3  H   UNL     1      27.632  45.978  56.327  1.00  0.00     0.278 HD
ENDROOT
BRANCH   1   4
HETATM    4  C   UNL     1      28.964  45.213  54.910  1.00  0.00     0.252 C 
BRANCH   4   5
HETATM    5  C   UNL     1      28.690  43.966  54.086  1.00  0.00    -0.023 A 
HETATM    6  C   UNL     1      27.587  43.153  54.410  1.00  0.00     0.012 A 
HETATM    7  C   UNL     1      27.281  42.012  53.659  1.00  0.00     0.037 A 
HETATM    8  C   UNL     1      28.065  41.665  52.563  1.00  0.00     0.068 A 
HETATM    9  C   UNL     1      29.163  42.461  52.235  1.00  0.00     0.037 A 
HETATM   10  C   UNL     1      29.473  43.602  52.980  1.00  0.00     0.012 A 
BRANCH   8  11
HETATM   11  O   UNL     1      27.874  40.590  51.742  1.00  0.00    -0.356 OA
HETATM   12  C   UNL     1      28.094  40.788  50.350  1.00  0.00     0.210 C 
ENDBRANCH   8  11
ENDBRANCH   4   5
BRANCH   4  13
HETATM   13  C   UNL     1      29.885  44.962  56.092  1.00  0.00    -0.023 A 
HETATM   14  C   UNL     1      30.819  43.912  56.034  1.00  0.00     0.009 A 
HETATM   15  C   UNL     1      31.692  43.675  57.097  1.00  0.00     0.001 A 
HETATM   16  C   UNL     1      31.642  44.477  58.233  1.00  0.00     0.000 A 
HETATM   17  C   UNL     1      30.717  45.514  58.312  1.00  0.00     0.001 A 
HETATM   18  C   UNL     1      29.840  45.755  57.253  1.00  0.00     0.009 A 
ENDBRANCH   4  13
ENDBRANCH   1   4
BRANCH   1  19
HETATM   19  C   UNL     1      27.506  47.294  54.722  1.00  0.00     0.336 C 
BRANCH  19  20
HETATM   20  C   UNL     1      26.317  47.274  53.762  1.00  0.00     0.248 C 
HETATM   21  N   UNL     1      26.465  46.420  52.689  1.00  0.00    -0.326 N 
HETATM   22  H   UNL     1      27.335  45.906  52.593  1.00  0.00     0.169 HD
HETATM   23  O   UNL     1      25.360  48.003  54.020  1.00  0.00    -0.271 OA
BRANCH  21  24
HETATM   24  C   UNL     1      25.524  46.175  51.661  1.00  0.00     0.037 A 
HETATM   25  C   UNL     1      24.816  44.974  51.525  1.00  0.00     0.061 A 
HETATM   26  C   UNL     1      23.937  44.879  50.468  1.00  0.00     0.065 A 
HETATM   27  C   UNL     1      23.740  45.917  49.562  1.00  0.00     0.063 A 
HETATM   28  N   UNL     1      23.117  43.822  50.090  1.00  0.00    -0.306 N 
HETATM   29  N   UNL     1      22.799  45.501  48.629  1.00  0.00    -0.307 N 
HETATM   30  C   UNL     1      24.413  47.108  49.663  1.00  0.00     0.034 A 
HETATM   31  C   UNL     1      22.401  44.195  48.942  1.00  0.00     0.325 A 
HETATM   32  H   UNL     1      22.439  46.018  47.841  1.00  0.00     0.170 HD
HETATM   33  O   UNL     1      21.592  43.514  48.339  1.00  0.00    -0.247 OA
HETATM   34  C   UNL     1      25.316  47.229  50.729  1.00  0.00     0.032 A 
HETATM   35  H   UNL     1      23.023  42.922  50.533  1.00  0.00     0.170 HD
ENDBRANCH  21  24
ENDBRANCH  19  20
ENDBRANCH   1  19
TORSDOF 7
ENDMDL
MODEL 2
REMARK VINA RESULT:      -9.2      1.067      1.296
REMARK  7 active torsions:
REMARK  status: ('A' for Active; 'I' for Inactive)
REMARK    1  A    between atoms: O_2  and  C_3 
REMARK    2  A    between atoms: C_6  and  C_7 
REMARK    3  A    between atoms: C_7  and  N_8 
REMARK    4  A    between atoms: C_7  and  C_25 
REMARK    5  A    between atoms: N_8  and  C_11 
REMARK    6  A    between atoms: C_11  and  C_12 
REMARK       I    between atoms: C_12  and  N_13 
REMARK    7  A    between atoms: N_13  and  C_14 
ROOT
HETATM    1  N   UNL     1      27.515  45.529  55.153  1.00  0.00    -0.055 N 
HETATM    2  H   UNL     1      26.805  44.841  54.848  1.00  0.00     0.278 HD
HETATM    3  H   UNL     1      27.378  45.584  56.167  1.00  0.00     0.278 HD
ENDROOT
BRANCH   1   4
HETATM    4  C   UNL     1      28.877  45.010  54.829  1.00  0.00     0.252 C 
BRANCH   4   5
HETATM    5  C   UNL     1      28.830  43.720  54.028  1.00  0.00    -0.023 A 
HETATM    6  C   UNL     1      27.847  42.758  54.328  1.00  0.00     0.012 A 
HETATM    7  C   UNL     1      27.749  41.568  53.595  1.00  0.00     0.037 A 
HETATM    8  C   UNL     1      28.625  41.321  52.542  1.00  0.00     0.068 A 
HETATM    9  C   UNL     1      29.605  42.266  52.239  1.00  0.00     0.037 A 
HETATM   10  C   UNL     1      29.708  43.455  52.966  1.00  0.00     0.012 A 
BRANCH   8  11
HETATM   11  O   UNL     1      28.633  40.213  51.743  1.00  0.00    -0.356 OA
HETATM   12  C   UNL     1      28.179  40.375  50.404  1.00  0.00     0.210 C 
ENDBRANCH   8  11
ENDBRANCH   4   5
BRANCH   4  13
HETATM   13  C   UNL     1      29.769  44.924  56.056  1.00  0.00    -0.023 A 
HETATM   14  C   UNL     1      30.723  43.894  56.150  1.00  0.00     0.009 A 
HETATM   15  C   UNL     1      31.569  43.805  57.256  1.00  0.00     0.001 A 
HETATM   16  C   UNL     1      31.475  44.739  58.284  1.00  0.00     0.000 A 
HETATM   17  C   UNL     1      30.530  45.759  58.212  1.00  0.00     0.001 A 
HETATM   18  C   UNL     1      29.679  45.851  57.109  1.00  0.00     0.009 A 
ENDBRANCH   4  13
ENDBRANCH   1   4
BRANCH   1  19
HETATM   19  C   UNL     1      27.144  46.855  54.538  1.00  0.00     0.336 C 
BRANCH  19  20
HETATM   20  C   UNL     1      26.506  46.626  53.167  1.00  0.00     0.248 C 
HETATM   21  N   UNL     1      26.240  45.304  52.877  1.00  0.00    -0.326 N 
HETATM   22  H   UNL     1      26.506  44.595  53.551  1.00  0.00     0.169 HD
HETATM   23  O   UNL     1      26.295  47.612  52.462  1.00  0.00    -0.271 OA
BRANCH  21  24
HETATM   24  C   UNL     1      25.632  44.798  51.703  1.00  0.00     0.037 A 
HETATM   25  C   UNL     1      24.257  44.872  51.446  1.00  0.00     0.061 A 
HETATM   26  C   UNL     1      23.810  44.329  50.262  1.00  0.00     0.065 A 
HETATM   27  C   UNL     1      24.665  43.728  49.342  1.00  0.00     0.063 A 
HETATM   28  N   UNL     1      22.517  44.255  49.753  1.00  0.00    -0.306 N 
HETATM   29  N   UNL     1      23.902  43.287  48.269  1.00  0.00    -0.307 N 
HETATM   30  C   UNL     1      26.016  43.638  49.558  1.00  0.00     0.034 A 
HETATM   31  C   UNL     1      22.559  43.607  48.509  1.00  0.00     0.325 A 
HETATM   32  H   UNL     1      24.219  42.810  47.439  1.00  0.00     0.170 HD
HETATM   33  O   UNL     1      21.611  43.369  47.783  1.00  0.00    -0.247 OA
HETATM   34  C   UNL     1      26.497  44.181  50.758  1.00  0.00     0.032 A 
HETATM   35  H   UNL     1      21.666  44.593  50.172  1.00  0.00     0.170 HD
ENDBRANCH  21  24
ENDBRANCH  19  20
ENDBRANCH   1  19
TORSDOF 7
ENDMDL
MODEL 3
REMARK VINA RESULT:      -9.0      2.846      7.445
REMARK  7 active torsions:
REMARK  status: ('A' for Active; 'I' for Inactive)
REMARK    1  A    between atoms: O_2  and  C_3 
REMARK    2  A    between atoms: C_6  and  C_7 
REMARK    3  A    between atoms: C_7  and  N_8 
REMARK    4  A    between atoms: C_7  and  C_25 
REMARK    5  A    between atoms: N_8  and  C_11 
REMARK    6  A    between atoms: C_11  and  C_12 
REMARK       I    between atoms: C_12  and  N_13 
REMARK    7  A    between atoms: N_13  and  C_14 
ROOT
HETATM    1  N   UNL     1      24.156  45.772  50.720  1.00  0.00    -0.055 N 
HETATM    2  H   UNL     1      23.853  45.509  51.673  1.00  0.00     0.278 HD
HETATM    3  H   UNL     1      23.510  46.523  50.460  1.00  0.00     0.278 HD
ENDROOT
BRANCH   1   4
HETATM    4  C   UNL     1      25.561  46.275  50.770  1.00  0.00     0.252 C 
BRANCH   4   5
HETATM    5  C   UNL     1      26.087  46.382  52.192  1.00  0.00    -0.023 A 
HETATM    6  C   UNL     1      26.924  45.369  52.696  1.00  0.00     0.012 A 
HETATM    7  C   UNL     1      27.454  45.442  53.990  1.00  0.00     0.037 A 
HETATM    8  C   UNL     1      27.166  46.534  54.803  1.00  0.00     0.068 A 
HETATM    9  C   UNL     1      26.334  47.542  54.316  1.00  0.00     0.037 A 
HETATM   10  C   UNL     1      25.803  47.475  53.025  1.00  0.00     0.012 A 
BRANCH   8  11
HETATM   11  O   UNL     1      27.624  46.735  56.074  1.00  0.00    -0.356 OA
HETATM   12  C   UNL     1      28.884  46.165  56.408  1.00  0.00     0.210 C 
ENDBRANCH   8  11
ENDBRANCH   4   5
BRANCH   4  13
HETATM   13  C   UNL     1      25.748  47.548  49.963  1.00  0.00    -0.023 A 
HETATM   14  C   UNL     1      27.047  48.008  49.681  1.00  0.00     0.009 A 
HETATM   15  C   UNL     1      27.247  49.162  48.922  1.00  0.00     0.001 A 
HETATM   16  C   UNL     1      26.155  49.876  48.438  1.00  0.00     0.000 A 
HETATM   17  C   UNL     1      24.862  49.442  48.715  1.00  0.00     0.001 A 
HETATM   18  C   UNL     1      24.656  48.289  49.475  1.00  0.00     0.009 A 
ENDBRANCH   4  13
ENDBRANCH   1   4
BRANCH   1  19
HETATM   19  C   UNL     1      23.906  44.583  49.828  1.00  0.00     0.336 C 
BRANCH  19  20
HETATM   20  C   UNL     1      24.610  43.352  50.401  1.00  0.00     0.248 C 
HETATM   21  N   UNL     1      25.896  43.165  49.940  1.00  0.00    -0.326 N 
HETATM   22  H   UNL     1      26.265  43.812  49.250  1.00  0.00     0.169 HD
HETATM   23  O   UNL     1      23.985  42.655  51.199  1.00  0.00    -0.271 OA
BRANCH  21  24
HETATM   24  C   UNL     1      26.791  42.134  50.313  1.00  0.00     0.037 A 
HETATM   25  C   UNL     1      27.232  41.133  49.437  1.00  0.00     0.061 A 
HETATM   26  C   UNL     1      28.099  40.191  49.947  1.00  0.00     0.065 A 
HETATM   27  C   UNL     1      28.535  40.210  51.268  1.00  0.00     0.063 A 
HETATM   28  N   UNL     1      28.687  39.097  49.320  1.00  0.00    -0.306 N 
HETATM   29  N   UNL     1      29.390  39.133  51.456  1.00  0.00    -0.307 N 
HETATM   30  C   UNL     1      28.126  41.174  52.154  1.00  0.00     0.034 A 
HETATM   31  C   UNL     1      29.495  38.426  50.250  1.00  0.00     0.325 A 
HETATM   32  H   UNL     1      29.872  38.865  52.300  1.00  0.00     0.170 HD
HETATM   33  O   UNL     1      30.158  37.425  50.046  1.00  0.00    -0.247 OA
HETATM   34  C   UNL     1      27.241  42.144  51.662  1.00  0.00     0.032 A 
HETATM   35  H   UNL     1      28.577  38.798  48.364  1.00  0.00     0.170 HD
ENDBRANCH  21  24
ENDBRANCH  19  20
ENDBRANCH   1  19
TORSDOF 7
ENDMDL
MODEL 4
REMARK VINA RESULT:      -8.9      4.676      7.672
REMARK  7 active torsions:
REMARK  status: ('A' for Active; 'I' for Inactive)
REMARK    1  A    between atoms: O_2  and  C_3 
REMARK    2  A    between atoms: C_6  and  C_7 
REMARK    3  A    between atoms: C_7  and  N_8 
REMARK    4  A    between atoms: C_7  and  C_25 
REMARK    5  A    between atoms: N_8  and  C_11 
REMARK    6  A    between atoms: C_11  and  C_12 
REMARK       I    between atoms: C_12  and  N_13 
REMARK    7  A    between atoms: N_13  and  C_14 
ROOT
HETATM    1  N   UNL     1      23.614  46.732  50.091  1.00  0.00    -0.055 N 
HETATM    2  H   UNL     1      23.261  46.163  50.879  1.00  0.00     0.278 HD
HETATM    3  H   UNL     1      23.321  47.684  50.330  1.00  0.00     0.278 HD
ENDROOT
BRANCH   1   4
HETATM    4  C   UNL     1      25.103  46.634  50.038  1.00  0.00     0.252 C 
BRANCH   4   5
HETATM    5  C   UNL     1      25.701  46.179  51.359  1.00  0.00    -0.023 A 
HETATM    6  C   UNL     1      26.477  45.006  51.397  1.00  0.00     0.012 A 
HETATM    7  C   UNL     1      27.071  44.567  52.587  1.00  0.00     0.037 A 
HETATM    8  C   UNL     1      26.907  45.296  53.761  1.00  0.00     0.068 A 
HETATM    9  C   UNL     1      26.135  46.458  53.736  1.00  0.00     0.037 A 
HETATM   10  C   UNL     1      25.541  46.902  52.551  1.00  0.00     0.012 A 
BRANCH   8  11
HETATM   11  O   UNL     1      27.436  44.988  54.982  1.00  0.00    -0.356 OA
HETATM   12  C   UNL     1      28.832  44.713  55.033  1.00  0.00     0.210 C 
ENDBRANCH   8  11
ENDBRANCH   4   5
BRANCH   4  13
HETATM   13  C   UNL     1      25.746  47.897  49.490  1.00  0.00    -0.023 A 
HETATM   14  C   UNL     1      27.146  48.036  49.529  1.00  0.00     0.009 A 
HETATM   15  C   UNL     1      27.763  49.176  49.012  1.00  0.00     0.001 A 
HETATM   16  C   UNL     1      26.995  50.193  48.454  1.00  0.00     0.000 A 
HETATM   17  C   UNL     1      25.608  50.077  48.416  1.00  0.00     0.001 A 
HETATM   18  C   UNL     1      24.985  48.939  48.933  1.00  0.00     0.009 A 
ENDBRANCH   4  13
ENDBRANCH   1   4
BRANCH   1  19
HETATM   19  C   UNL     1      22.873  46.289  48.855  1.00  0.00     0.336 C 
BRANCH  19  20
HETATM   20  C   UNL     1      21.888  47.378  48.428  1.00  0.00     0.248 C 
HETATM   21  N   UNL     1      21.609  48.309  49.407  1.00  0.00    -0.326 N 
HETATM   22  H   UNL     1      22.034  48.196  50.322  1.00  0.00     0.169 HD
HETATM   23  O   UNL     1      21.439  47.328  47.284  1.00  0.00    -0.271 OA
BRANCH  21  24
HETATM   24  C   UNL     1      20.761  49.436  49.291  1.00  0.00     0.037 A 
HETATM   25  C   UNL     1      19.471  49.496  49.835  1.00  0.00     0.061 A 
HETATM   26  C   UNL     1      18.759  50.658  49.634  1.00  0.00     0.065 A 
HETATM   27  C   UNL     1      19.275  51.741  48.928  1.00  0.00     0.063 A 
HETATM   28  N   UNL     1      17.474  50.993  50.048  1.00  0.00    -0.306 N 
HETATM   29  N   UNL     1      18.311  52.741  48.908  1.00  0.00    -0.307 N 
HETATM   30  C   UNL     1      20.532  51.720  48.382  1.00  0.00     0.034 A 
HETATM   31  C   UNL     1      17.180  52.291  49.602  1.00  0.00     0.325 A 
HETATM   32  H   UNL     1      18.372  53.650  48.476  1.00  0.00     0.170 HD
HETATM   33  O   UNL     1      16.143  52.903  49.783  1.00  0.00    -0.247 OA
HETATM   34  C   UNL     1      21.277  50.547  48.569  1.00  0.00     0.032 A 
HETATM   35  H   UNL     1      16.828  50.431  50.578  1.00  0.00     0.170 HD
ENDBRANCH  21  24
ENDBRANCH  19  20
ENDBRANCH   1  19
TORSDOF 7
ENDMDL
MODEL 5
REMARK VINA RESULT:      -8.7      3.697      6.145
REMARK  7 active torsions:
REMARK  status: ('A' for Active; 'I' for Inactive)
REMARK    1  A    between atoms: O_2  and  C_3 
REMARK    2  A    between atoms: C_6  and  C_7 
REMARK    3  A    between atoms: C_7  and  N_8 
REMARK    4  A    between atoms: C_7  and  C_25 
REMARK    5  A    between atoms: N_8  and  C_11 
REMARK    6  A    between atoms: C_11  and  C_12 
REMARK       I    between atoms: C_12  and  N_13 
REMARK    7  A    between atoms: N_13  and  C_14 
ROOT
HETATM    1  N   UNL     1      29.247  42.035  52.560  1.00  0.00    -0.055 N 
HETATM    2  H   UNL     1      29.328  42.461  51.622  1.00  0.00     0.278 HD
HETATM    3  H   UNL     1      30.204  42.067  52.924  1.00  0.00     0.278 HD
ENDROOT
BRANCH   1   4
HETATM    4  C   UNL     1      28.332  42.863  53.401  1.00  0.00     0.252 C 
BRANCH   4   5
HETATM    5  C   UNL     1      27.352  43.671  52.567  1.00  0.00    -0.023 A 
HETATM    6  C   UNL     1      27.755  44.161  51.311  1.00  0.00     0.012 A 
HETATM    7  C   UNL     1      26.875  44.884  50.497  1.00  0.00     0.037 A 
HETATM    8  C   UNL     1      25.570  45.125  50.919  1.00  0.00     0.068 A 
HETATM    9  C   UNL     1      25.161  44.648  52.164  1.00  0.00     0.037 A 
HETATM   10  C   UNL     1      26.035  43.924  52.981  1.00  0.00     0.012 A 
BRANCH   8  11
HETATM   11  O   UNL     1      24.611  45.804  50.223  1.00  0.00    -0.356 OA
HETATM   12  C   UNL     1      24.632  47.225  50.305  1.00  0.00     0.210 C 
ENDBRANCH   8  11
ENDBRANCH   4   5
BRANCH   4  13
HETATM   13  C   UNL     1      29.085  43.699  54.423  1.00  0.00    -0.023 A 
HETATM   14  C   UNL     1      30.270  43.198  54.992  1.00  0.00     0.009 A 
HETATM   15  C   UNL     1      30.993  43.955  55.915  1.00  0.00     0.001 A 
HETATM   16  C   UNL     1      30.542  45.218  56.287  1.00  0.00     0.000 A 
HETATM   17  C   UNL     1      29.366  45.726  55.742  1.00  0.00     0.001 A 
HETATM   18  C   UNL     1      28.638  44.972  54.819  1.00  0.00     0.009 A 
ENDBRANCH   4  13
ENDBRANCH   1   4
BRANCH   1  19
HETATM   19  C   UNL     1      28.848  40.594  52.364  1.00  0.00     0.336 C 
BRANCH  19  20
HETATM   20  C   UNL     1      28.136  40.436  51.020  1.00  0.00     0.248 C 
HETATM   21  N   UNL     1      28.971  40.143  49.963  1.00  0.00    -0.326 N 
HETATM   22  H   UNL     1      29.970  40.086  50.134  1.00  0.00     0.169 HD
HETATM   23  O   UNL     1      26.914  40.585  50.998  1.00  0.00    -0.271 OA
BRANCH  21  24
HETATM   24  C   UNL     1      28.594  39.917  48.618  1.00  0.00     0.037 A 
HETATM   25  C   UNL     1      28.157  40.930  47.754  1.00  0.00     0.061 A 
HETATM   26  C   UNL     1      27.816  40.557  46.472  1.00  0.00     0.065 A 
HETATM   27  C   UNL     1      27.893  39.240  46.029  1.00  0.00     0.063 A 
HETATM   28  N   UNL     1      27.353  41.335  45.416  1.00  0.00    -0.306 N 
HETATM   29  N   UNL     1      27.481  39.206  44.703  1.00  0.00    -0.307 N 
HETATM   30  C   UNL     1      28.316  38.222  46.845  1.00  0.00     0.034 A 
HETATM   31  C   UNL     1      27.138  40.506  44.305  1.00  0.00     0.325 A 
HETATM   32  H   UNL     1      27.419  38.405  44.095  1.00  0.00     0.170 HD
HETATM   33  O   UNL     1      26.733  40.850  43.210  1.00  0.00    -0.247 OA
HETATM   34  C   UNL     1      28.667  38.575  48.156  1.00  0.00     0.032 A 
HETATM   35  H   UNL     1      27.182  42.328  45.407  1.00  0.00     0.170 HD
ENDBRANCH  21  24
ENDBRANCH  19  20
ENDBRANCH   1  19
TORSDOF 7
ENDMDL
MODEL 6
REMARK VINA RESULT:      -8.6      2.551      8.495
REMARK  7 active torsions:
REMARK  status: ('A' for Active; 'I' for Inactive)
REMARK    1  A    between atoms: O_2  and  C_3 
REMARK    2  A    between atoms: C_6  and  C_7 
REMARK    3  A    between atoms: C_7  and  N_8 
REMARK    4  A    between atoms: C_7  and  C_25 
REMARK    5  A    between atoms: N_8  and  C_11 
REMARK    6  A    between atoms: C_11  and  C_12 
REMARK       I    between atoms: C_12  and  N_13 
REMARK    7  A    between atoms: N_13  and  C_14 
ROOT
HETATM    1  N   UNL     1      25.339  45.581  50.839  1.00  0.00    -0.055 N 
HETATM    2  H   UNL     1      25.775  44.920  50.174  1.00  0.00     0.278 HD
HETATM    3  H   UNL     1      26.141  46.038  51.285  1.00  0.00     0.278 HD
ENDROOT
BRANCH   1   4
HETATM    4  C   UNL     1      24.516  46.572  50.085  1.00  0.00     0.252 C 
BRANCH   4   5
HETATM    5  C   UNL     1      23.625  45.913  49.045  1.00  0.00    -0.023 A 
HETATM    6  C   UNL     1      24.055  44.726  48.422  1.00  0.00     0.012 A 
HETATM    7  C   UNL     1      23.253  44.070  47.480  1.00  0.00     0.037 A 
HETATM    8  C   UNL     1      22.002  44.582  47.148  1.00  0.00     0.068 A 
HETATM    9  C   UNL     1      21.568  45.760  47.756  1.00  0.00     0.037 A 
HETATM   10  C   UNL     1      22.363  46.419  48.698  1.00  0.00     0.012 A 
BRANCH   8  11
HETATM   11  O   UNL     1      21.120  44.040  46.258  1.00  0.00    -0.356 OA
HETATM   12  C   UNL     1      19.737  44.122  46.584  1.00  0.00     0.210 C 
ENDBRANCH   8  11
ENDBRANCH   4   5
BRANCH   4  13
HETATM   13  C   UNL     1      25.351  47.712  49.527  1.00  0.00    -0.023 A 
HETATM   14  C   UNL     1      24.711  48.821  48.944  1.00  0.00     0.009 A 
HETATM   15  C   UNL     1      25.455  49.891  48.444  1.00  0.00     0.001 A 
HETATM   16  C   UNL     1      26.844  49.869  48.515  1.00  0.00     0.000 A 
HETATM   17  C   UNL     1      27.495  48.775  49.079  1.00  0.00     0.001 A 
HETATM   18  C   UNL     1      26.756  47.701  49.579  1.00  0.00     0.009 A 
ENDBRANCH   4  13
ENDBRANCH   1   4
BRANCH   1  19
HETATM   19  C   UNL     1      24.610  44.758  51.872  1.00  0.00     0.336 C 
BRANCH  19  20
HETATM   20  C   UNL     1      25.450  44.671  53.147  1.00  0.00     0.248 C 
HETATM   21  N   UNL     1      26.793  44.920  52.962  1.00  0.00    -0.326 N 
HETATM   22  H   UNL     1      27.130  45.104  52.022  1.00  0.00     0.169 HD
HETATM   23  O   UNL     1      24.870  44.392  54.196  1.00  0.00    -0.271 OA
BRANCH  21  24
HETATM   24  C   UNL     1      27.799  44.937  53.958  1.00  0.00     0.037 A 
HETATM   25  C   UNL     1      28.689  43.878  54.180  1.00  0.00     0.061 A 
HETATM   26  C   UNL     1      29.611  44.035  55.191  1.00  0.00     0.065 A 
HETATM   27  C   UNL     1      29.679  45.185  55.972  1.00  0.00     0.063 A 
HETATM   28  N   UNL     1      30.600  43.162  55.633  1.00  0.00    -0.306 N 
HETATM   29  N   UNL     1      30.707  45.022  56.891  1.00  0.00    -0.307 N 
HETATM   30  C   UNL     1      28.826  46.242  55.784  1.00  0.00     0.034 A 
HETATM   31  C   UNL     1      31.292  43.764  56.695  1.00  0.00     0.325 A 
HETATM   32  H   UNL     1      31.012  45.672  57.600  1.00  0.00     0.170 HD
HETATM   33  O   UNL     1      32.219  43.284  57.322  1.00  0.00    -0.247 OA
HETATM   34  C   UNL     1      27.876  46.107  54.762  1.00  0.00     0.032 A 
HETATM   35  H   UNL     1      30.816  42.242  55.283  1.00  0.00     0.170 HD
ENDBRANCH  21  24
ENDBRANCH  19  20
ENDBRANCH   1  19
TORSDOF 7
ENDMDL
MODEL 7
REMARK VINA RESULT:      -8.6      3.754      9.271
REMARK  7 active torsions:
REMARK  status: ('A' for Active; 'I' for Inactive)
REMARK    1  A    between atoms: O_2  and  C_3 
REMARK    2  A    between atoms: C_6  and  C_7 
REMARK    3  A    between atoms: C_7  and  N_8 
REMARK    4  A    between atoms: C_7  and  C_25 
REMARK    5  A    between atoms: N_8  and  C_11 
REMARK    6  A    between atoms: C_11  and  C_12 
REMARK       I    between atoms: C_12  and  N_13 
REMARK    7  A    between atoms: N_13  and  C_14 
ROOT
HETATM    1  N   UNL     1      22.768  47.072  48.133  1.00  0.00    -0.055 N 
HETATM    2  H   UNL     1      21.986  47.329  47.508  1.00  0.00     0.278 HD
HETATM    3  H   UNL     1      23.548  46.907  47.489  1.00  0.00     0.278 HD
ENDROOT
BRANCH   1   4
HETATM    4  C   UNL     1      23.067  48.215  49.047  1.00  0.00     0.252 C 
BRANCH   4   5
HETATM    5  C   UNL     1      22.074  49.355  48.891  1.00  0.00    -0.023 A 
HETATM    6  C   UNL     1      21.352  49.481  47.690  1.00  0.00     0.012 A 
HETATM    7  C   UNL     1      20.406  50.499  47.515  1.00  0.00     0.037 A 
HETATM    8  C   UNL     1      20.157  51.406  48.541  1.00  0.00     0.068 A 
HETATM    9  C   UNL     1      20.871  51.293  49.734  1.00  0.00     0.037 A 
HETATM   10  C   UNL     1      21.815  50.279  49.915  1.00  0.00     0.012 A 
BRANCH   8  11
HETATM   11  O   UNL     1      19.259  52.435  48.508  1.00  0.00    -0.356 OA
HETATM   12  C   UNL     1      18.195  52.398  49.453  1.00  0.00     0.210 C 
ENDBRANCH   8  11
ENDBRANCH   4   5
BRANCH   4  13
HETATM   13  C   UNL     1      24.516  48.662  48.957  1.00  0.00    -0.023 A 
HETATM   14  C   UNL     1      24.858  49.750  48.132  1.00  0.00     0.009 A 
HETATM   15  C   UNL     1      26.178  50.195  48.049  1.00  0.00     0.001 A 
HETATM   16  C   UNL     1      27.175  49.560  48.784  1.00  0.00     0.000 A 
HETATM   17  C   UNL     1      26.858  48.476  49.597  1.00  0.00     0.001 A 
HETATM   18  C   UNL     1      25.539  48.025  49.682  1.00  0.00     0.009 A 
ENDBRANCH   4  13
ENDBRANCH   1   4
BRANCH   1  19
HETATM   19  C   UNL     1      22.399  45.769  48.796  1.00  0.00     0.336 C 
BRANCH  19  20
HETATM   20  C   UNL     1      23.663  45.073  49.301  1.00  0.00     0.248 C 
HETATM   21  N   UNL     1      23.842  45.138  50.667  1.00  0.00    -0.326 N 
HETATM   22  H   UNL     1      23.166  45.652  51.222  1.00  0.00     0.169 HD
HETATM   23  O   UNL     1      24.392  44.535  48.469  1.00  0.00    -0.271 OA
BRANCH  21  24
HETATM   24  C   UNL     1      24.899  44.565  51.414  1.00  0.00     0.037 A 
HETATM   25  C   UNL     1      25.307  43.231  51.286  1.00  0.00     0.061 A 
HETATM   26  C   UNL     1      26.348  42.814  52.086  1.00  0.00     0.065 A 
HETATM   27  C   UNL     1      26.986  43.660  52.989  1.00  0.00     0.063 A 
HETATM   28  N   UNL     1      26.951  41.564  52.176  1.00  0.00    -0.306 N 
HETATM   29  N   UNL     1      27.980  42.934  53.631  1.00  0.00    -0.307 N 
HETATM   30  C   UNL     1      26.616  44.972  53.141  1.00  0.00     0.034 A 
HETATM   31  C   UNL     1      27.971  41.623  53.137  1.00  0.00     0.325 A 
HETATM   32  H   UNL     1      28.619  43.255  54.342  1.00  0.00     0.170 HD
HETATM   33  O   UNL     1      28.704  40.711  53.474  1.00  0.00    -0.247 OA
HETATM   34  C   UNL     1      25.556  45.421  52.340  1.00  0.00     0.032 A 
HETATM   35  H   UNL     1      26.725  40.728  51.660  1.00  0.00     0.170 HD
ENDBRANCH  21  24
ENDBRANCH  19  20
ENDBRANCH   1  19
TORSDOF 7
ENDMDL
MODEL 8
REMARK VINA RESULT:      -8.5      5.569      9.925
REMARK  7 active torsions:
REMARK  status: ('A' for Active; 'I' for Inactive)
REMARK    1  A    between atoms: O_2  and  C_3 
REMARK    2  A    between atoms: C_6  and  C_7 
REMARK    3  A    between atoms: C_7  and  N_8 
REMARK    4  A    between atoms: C_7  and  C_25 
REMARK    5  A    between atoms: N_8  and  C_11 
REMARK    6  A    between atoms: C_11  and  C_12 
REMARK       I    between atoms: C_12  and  N_13 
REMARK    7  A    between atoms: N_13  and  C_14 
ROOT
HETATM    1  N   UNL     1      20.415  47.849  49.282  1.00  0.00    -0.055 N 
HETATM    2  H   UNL     1      21.264  47.345  49.587  1.00  0.00     0.278 HD
HETATM    3  H   UNL     1      20.030  48.225  50.155  1.00  0.00     0.278 HD
ENDROOT
BRANCH   1   4
HETATM    4  C   UNL     1      20.802  48.954  48.355  1.00  0.00     0.252 C 
BRANCH   4   5
HETATM    5  C   UNL     1      22.295  49.240  48.388  1.00  0.00    -0.023 A 
HETATM    6  C   UNL     1      23.149  48.365  49.084  1.00  0.00     0.012 A 
HETATM    7  C   UNL     1      24.534  48.574  49.114  1.00  0.00     0.037 A 
HETATM    8  C   UNL     1      25.092  49.658  48.443  1.00  0.00     0.068 A 
HETATM    9  C   UNL     1      24.254  50.534  47.754  1.00  0.00     0.037 A 
HETATM   10  C   UNL     1      22.872  50.330  47.718  1.00  0.00     0.012 A 
BRANCH   8  11
HETATM   11  O   UNL     1      26.420  49.971  48.382  1.00  0.00    -0.356 OA
HETATM   12  C   UNL     1      27.327  49.084  49.028  1.00  0.00     0.210 C 
ENDBRANCH   8  11
ENDBRANCH   4   5
BRANCH   4  13
HETATM   13  C   UNL     1      19.948  50.196  48.547  1.00  0.00    -0.023 A 
HETATM   14  C   UNL     1      19.312  50.779  47.436  1.00  0.00     0.009 A 
HETATM   15  C   UNL     1      18.503  51.906  47.588  1.00  0.00     0.001 A 
HETATM   16  C   UNL     1      18.321  52.469  48.847  1.00  0.00     0.000 A 
HETATM   17  C   UNL     1      18.950  51.912  49.956  1.00  0.00     0.001 A 
HETATM   18  C   UNL     1      19.762  50.785  49.810  1.00  0.00     0.009 A 
ENDBRANCH   4  13
ENDBRANCH   1   4
BRANCH   1  19
HETATM   19  C   UNL     1      19.460  46.822  48.730  1.00  0.00     0.336 C 
BRANCH  19  20
HETATM   20  C   UNL     1      20.140  45.453  48.695  1.00  0.00     0.248 C 
HETATM   21  N   UNL     1      21.501  45.488  48.914  1.00  0.00    -0.326 N 
HETATM   22  H   UNL     1      21.950  46.389  49.045  1.00  0.00     0.169 HD
HETATM   23  O   UNL     1      19.436  44.468  48.477  1.00  0.00    -0.271 OA
BRANCH  21  24
HETATM   24  C   UNL     1      22.383  44.382  48.965  1.00  0.00     0.037 A 
HETATM   25  C   UNL     1      23.097  44.010  50.112  1.00  0.00     0.061 A 
HETATM   26  C   UNL     1      23.923  42.912  50.008  1.00  0.00     0.065 A 
HETATM   27  C   UNL     1      24.060  42.186  48.828  1.00  0.00     0.063 A 
HETATM   28  N   UNL     1      24.743  42.326  50.966  1.00  0.00    -0.306 N 
HETATM   29  N   UNL     1      24.961  41.155  49.059  1.00  0.00    -0.307 N 
HETATM   30  C   UNL     1      23.378  42.519  47.686  1.00  0.00     0.034 A 
HETATM   31  C   UNL     1      25.398  41.228  50.389  1.00  0.00     0.325 A 
HETATM   32  H   UNL     1      25.277  40.453  48.409  1.00  0.00     0.170 HD
HETATM   33  O   UNL     1      26.191  40.485  50.938  1.00  0.00    -0.247 OA
HETATM   34  C   UNL     1      22.531  43.634  47.765  1.00  0.00     0.032 A 
HETATM   35  H   UNL     1      24.877  42.610  51.924  1.00  0.00     0.170 HD
ENDBRANCH  21  24
ENDBRANCH  19  20
ENDBRANCH   1  19
TORSDOF 7
ENDMDL
MODEL 9
REMARK VINA RESULT:      -8.4      3.807      7.125
REMARK  7 active torsions:
REMARK  status: ('A' for Active; 'I' for Inactive)
REMARK    1  A    between atoms: O_2  and  C_3 
REMARK    2  A    between atoms: C_6  and  C_7 
REMARK    3  A    between atoms: C_7  and  N_8 
REMARK    4  A    between atoms: C_7  and  C_25 
REMARK    5  A    between atoms: N_8  and  C_11 
REMARK    6  A    between atoms: C_11  and  C_12 
REMARK       I    between atoms: C_12  and  N_13 
REMARK    7  A    between atoms: N_13  and  C_14 
ROOT
HETATM    1  N   UNL     1      27.727  41.843  53.041  1.00  0.00    -0.055 N 
HETATM    2  H   UNL     1      27.847  41.674  54.054  1.00  0.00     0.278 HD
HETATM    3  H   UNL     1      26.720  41.724  52.894  1.00  0.00     0.278 HD
ENDROOT
BRANCH   1   4
HETATM    4  C   UNL     1      28.148  43.239  52.719  1.00  0.00     0.252 C 
BRANCH   4   5
HETATM    5  C   UNL     1      28.736  43.958  53.922  1.00  0.00    -0.023 A 
HETATM    6  C   UNL     1      29.867  43.418  54.563  1.00  0.00     0.012 A 
HETATM    7  C   UNL     1      30.458  44.063  55.656  1.00  0.00     0.037 A 
HETATM    8  C   UNL     1      29.937  45.266  56.125  1.00  0.00     0.068 A 
HETATM    9  C   UNL     1      28.814  45.808  55.500  1.00  0.00     0.037 A 
HETATM   10  C   UNL     1      28.219  45.169  54.408  1.00  0.00     0.012 A 
BRANCH   8  11
HETATM   11  O   UNL     1      30.420  46.001  57.170  1.00  0.00    -0.356 OA
HETATM   12  C   UNL     1      30.807  45.289  58.340  1.00  0.00     0.210 C 
ENDBRANCH   8  11
ENDBRANCH   4   5
BRANCH   4  13
HETATM   13  C   UNL     1      27.051  44.028  52.024  1.00  0.00    -0.023 A 
HETATM   14  C   UNL     1      27.327  44.675  50.806  1.00  0.00     0.009 A 
HETATM   15  C   UNL     1      26.332  45.388  50.135  1.00  0.00     0.001 A 
HETATM   16  C   UNL     1      25.050  45.467  50.671  1.00  0.00     0.000 A 
HETATM   17  C   UNL     1      24.761  44.842  51.881  1.00  0.00     0.001 A 
HETATM   18  C   UNL     1      25.754  44.129  52.557  1.00  0.00     0.009 A 
ENDBRANCH   4  13
ENDBRANCH   1   4
BRANCH   1  19
HETATM   19  C   UNL     1      28.459  40.743  52.315  1.00  0.00     0.336 C 
BRANCH  19  20
HETATM   20  C   UNL     1      27.835  40.533  50.935  1.00  0.00     0.248 C 
HETATM   21  N   UNL     1      28.744  40.265  49.934  1.00  0.00    -0.326 N 
HETATM   22  H   UNL     1      29.733  40.258  50.163  1.00  0.00     0.169 HD
HETATM   23  O   UNL     1      26.612  40.623  50.840  1.00  0.00    -0.271 OA
BRANCH  21  24
HETATM   24  C   UNL     1      28.457  40.004  48.573  1.00  0.00     0.037 A 
HETATM   25  C   UNL     1      28.051  40.988  47.662  1.00  0.00     0.061 A 
HETATM   26  C   UNL     1      27.800  40.581  46.370  1.00  0.00     0.065 A 
HETATM   27  C   UNL     1      27.938  39.258  45.960  1.00  0.00     0.063 A 
HETATM   28  N   UNL     1      27.384  41.326  45.271  1.00  0.00    -0.306 N 
HETATM   29  N   UNL     1      27.610  39.188  44.612  1.00  0.00    -0.307 N 
HETATM   30  C   UNL     1      28.334  38.268  46.822  1.00  0.00     0.034 A 
HETATM   31  C   UNL     1      27.261  40.470  44.166  1.00  0.00     0.325 A 
HETATM   32  H   UNL     1      27.606  38.374  44.018  1.00  0.00     0.170 HD
HETATM   33  O   UNL     1      26.917  40.783  43.041  1.00  0.00    -0.247 OA
HETATM   34  C   UNL     1      28.593  38.655  48.144  1.00  0.00     0.032 A 
HETATM   35  H   UNL     1      27.191  42.314  45.230  1.00  0.00     0.170 HD
ENDBRANCH  21  24
ENDBRANCH  19  20
ENDBRANCH   1  19
TORSDOF 7
ENDMDL
MODEL 10
REMARK VINA RESULT:      -8.4      4.063      6.771
REMARK  7 active torsions:
REMARK  status: ('A' for Active; 'I' for Inactive)
REMARK    1  A    between atoms: O_2  and  C_3 
REMARK    2  A    between atoms: C_6  and  C_7 
REMARK    3  A    between atoms: C_7  and  N_8 
REMARK    4  A    between atoms: C_7  and  C_25 
REMARK    5  A    between atoms: N_8  and  C_11 
REMARK    6  A    between atoms: C_11  and  C_12 
REMARK       I    between atoms: C_12  and  N_13 
REMARK    7  A    between atoms: N_13  and  C_14 
ROOT
HETATM    1  N   UNL     1      29.109  42.229  52.296  1.00  0.00    -0.055 N 
HETATM    2  H   UNL     1      28.919  42.558  51.335  1.00  0.00     0.278 HD
HETATM    3  H   UNL     1      30.092  42.476  52.445  1.00  0.00     0.278 HD
ENDROOT
BRANCH   1   4
HETATM    4  C   UNL     1      28.228  42.962  53.253  1.00  0.00     0.252 C 
BRANCH   4   5
HETATM    5  C   UNL     1      27.202  43.832  52.545  1.00  0.00    -0.023 A 
HETATM    6  C   UNL     1      27.535  44.429  51.315  1.00  0.00     0.012 A 
HETATM    7  C   UNL     1      26.610  45.213  50.614  1.00  0.00     0.037 A 
HETATM    8  C   UNL     1      25.331  45.409  51.126  1.00  0.00     0.068 A 
HETATM    9  C   UNL     1      24.991  44.826  52.346  1.00  0.00     0.037 A 
HETATM   10  C   UNL     1      25.909  44.041  53.050  1.00  0.00     0.012 A 
BRANCH   8  11
HETATM   11  O   UNL     1      24.333  46.138  50.544  1.00  0.00    -0.356 OA
HETATM   12  C   UNL     1      24.697  47.383  49.956  1.00  0.00     0.210 C 
ENDBRANCH   8  11
ENDBRANCH   4   5
BRANCH   4  13
HETATM   13  C   UNL     1      29.021  43.709  54.313  1.00  0.00    -0.023 A 
HETATM   14  C   UNL     1      30.159  43.107  54.880  1.00  0.00     0.009 A 
HETATM   15  C   UNL     1      30.918  43.780  55.839  1.00  0.00     0.001 A 
HETATM   16  C   UNL     1      30.550  45.058  56.248  1.00  0.00     0.000 A 
HETATM   17  C   UNL     1      29.421  45.665  55.705  1.00  0.00     0.001 A 
HETATM   18  C   UNL     1      28.657  44.995  54.747  1.00  0.00     0.009 A 
ENDBRANCH   4  13
ENDBRANCH   1   4
BRANCH   1  19
HETATM   19  C   UNL     1      28.979  40.727  52.288  1.00  0.00     0.336 C 
BRANCH  19  20
HETATM   20  C   UNL     1      28.366  40.271  50.964  1.00  0.00     0.248 C 
HETATM   21  N   UNL     1      28.551  38.934  50.681  1.00  0.00    -0.326 N 
HETATM   22  H   UNL     1      29.090  38.369  51.329  1.00  0.00     0.169 HD
HETATM   23  O   UNL     1      27.781  41.113  50.283  1.00  0.00    -0.271 OA
BRANCH  21  24
HETATM   24  C   UNL     1      28.075  38.231  49.548  1.00  0.00     0.037 A 
HETATM   25  C   UNL     1      26.808  37.638  49.478  1.00  0.00     0.061 A 
HETATM   26  C   UNL     1      26.487  36.980  48.310  1.00  0.00     0.065 A 
HETATM   27  C   UNL     1      27.363  36.896  47.232  1.00  0.00     0.063 A 
HETATM   28  N   UNL     1      25.321  36.305  47.965  1.00  0.00    -0.306 N 
HETATM   29  N   UNL     1      26.739  36.172  46.225  1.00  0.00    -0.307 N 
HETATM   30  C   UNL     1      28.611  37.464  47.263  1.00  0.00     0.034 A 
HETATM   31  C   UNL     1      25.463  35.794  46.666  1.00  0.00     0.325 A 
HETATM   32  H   UNL     1      27.105  35.932  45.317  1.00  0.00     0.170 HD
HETATM   33  O   UNL     1      24.638  35.149  46.046  1.00  0.00    -0.247 OA
HETATM   34  C   UNL     1      28.963  38.137  48.442  1.00  0.00     0.032 A 
HETATM   35  H   UNL     1      24.491  36.177  48.523  1.00  0.00     0.170 HD
ENDBRANCH  21  24
ENDBRANCH  19  20
ENDBRANCH   1  19
TORSDOF 7
ENDMDL
