MODEL 1
REMARK VINA RESULT:     -10.2      0.000      0.000
REMARK  5 active torsions:
REMARK  status: ('A' for Active; 'I' for Inactive)
REMARK    1  A    between atoms: N_7  and  N_8 
REMARK       I    between atoms: N_8  and  C_9 
REMARK    2  A    between atoms: C_9  and  C_10 
REMARK    3  A    between atoms: C_13  and  O_14 
REMARK    4  A    between atoms: O_14  and  C_15 
REMARK    5  A    between atoms: C_15  and  C_16 
ROOT
HETATM    1  N   UNL     1      26.454  44.528  51.721  1.00  0.00    -0.242 N 
HETATM    2  C   UNL     1      26.624  44.893  50.392  1.00  0.00     0.271 C 
HETATM    3  O   UNL     1      27.260  44.268  49.549  1.00  0.00    -0.266 OA
HETATM    4  H   UNL     1      26.133  45.216  52.383  1.00  0.00     0.192 HD
ENDROOT
BRANCH   2   5
HETATM    5  C   UNL     1      25.982  46.174  49.993  1.00  0.00     0.033 A 
HETATM    6  C   UNL     1      24.585  46.254  50.015  1.00  0.00     0.020 A 
HETATM    7  C   UNL     1      23.939  47.456  49.708  1.00  0.00     0.038 A 
HETATM    8  C   UNL     1      24.689  48.592  49.400  1.00  0.00     0.069 A 
HETATM    9  C   UNL     1      26.084  48.505  49.359  1.00  0.00     0.038 A 
HETATM   10  C   UNL     1      26.735  47.305  49.661  1.00  0.00     0.020 A 
BRANCH   8  11
HETATM   11  O   UNL     1      24.181  49.833  49.129  1.00  0.00    -0.347 OA
BRANCH  11  12
HETATM   12  C   UNL     1      23.307  49.931  48.005  1.00  0.00     0.214 C 
BRANCH  12  13
HETATM   13  C   UNL     1      21.967  50.438  48.484  1.00  0.00    -0.034 A 
HETATM   14  C   UNL     1      20.926  50.664  47.571  1.00  0.00     0.011 A 
HETATM   15  C   UNL     1      19.687  51.136  48.013  1.00  0.00     0.024 A 
HETATM   16  C   UNL     1      19.485  51.388  49.368  1.00  0.00     0.034 A 
HETATM   17 CL   UNL     1      17.960  51.968  49.913  1.00  0.00    -0.084 Cl
HETATM   18  C   UNL     1      20.512  51.176  50.286  1.00  0.00     0.024 A 
HETATM   19  C   UNL     1      21.750  50.705  49.845  1.00  0.00     0.011 A 
ENDBRANCH  12  13
ENDBRANCH  11  12
ENDBRANCH   8  11
ENDBRANCH   2   5
BRANCH   1  20
HETATM   20  N   UNL     1      27.058  43.399  52.171  1.00  0.00    -0.166 NA
HETATM   21  C   UNL     1      27.900  43.430  53.154  1.00  0.00     0.157 A 
HETATM   22  C   UNL     1      28.390  44.485  54.057  1.00  0.00     0.027 A 
HETATM   23  C   UNL     1      28.645  42.142  53.577  1.00  0.00     0.277 A 
HETATM   24  C   UNL     1      28.064  45.818  54.231  1.00  0.00     0.016 A 
HETATM   25  C   UNL     1      29.350  43.877  54.874  1.00  0.00     0.048 A 
HETATM   26  C   UNL     1      28.752  46.539  55.216  1.00  0.00     0.001 A 
HETATM   27  C   UNL     1      29.732  45.922  56.015  1.00  0.00     0.002 A 
HETATM   28  C   UNL     1      30.035  44.570  55.852  1.00  0.00     0.030 A 
HETATM   29  N   UNL     1      29.493  42.526  54.589  1.00  0.00    -0.321 N 
HETATM   30  H   UNL     1      30.104  41.875  55.058  1.00  0.00     0.169 HD
HETATM   31  O   UNL     1      28.509  41.034  53.111  1.00  0.00    -0.266 OA
ENDBRANCH   1  20
TORSDOF 5
ENDMDL
MODEL 2
REMARK VINA RESULT:      -9.6      1.316      1.926
REMARK  5 active torsions:
REMARK  status: ('A' for Active; 'I' for Inactive)
REMARK    1  A    between atoms: N_7  and  N_8 
REMARK       I    between atoms: N_8  and  C_9 
REMARK    2  A    between atoms: C_9  and  C_10 
REMARK    3  A    between atoms: C_13  and  O_14 
REMARK    4  A    between atoms: O_14  and  C_15 
REMARK    5  A    between atoms: C_15  and  C_16 
ROOT
HETATM    1  N   UNL     1      26.317  44.519  51.032  1.00  0.00    -0.242 N 
HETATM    2  C   UNL     1      24.936  44.596  51.146  1.00  0.00     0.271 C 
HETATM    3  O   UNL     1      24.233  43.900  51.871  1.00  0.00    -0.266 OA
HETATM    4  H   UNL     1      26.771  44.952  50.243  1.00  0.00     0.192 HD
ENDROOT
BRANCH   2   5
HETATM    5  C   UNL     1      24.278  45.611  50.280  1.00  0.00     0.033 A 
HETATM    6  C   UNL     1      24.705  46.940  50.368  1.00  0.00     0.020 A 
HETATM    7  C   UNL     1      24.160  47.918  49.530  1.00  0.00     0.038 A 
HETATM    8  C   UNL     1      23.199  47.567  48.581  1.00  0.00     0.069 A 
HETATM    9  C   UNL     1      22.758  46.241  48.507  1.00  0.00     0.038 A 
HETATM   10  C   UNL     1      23.297  45.261  49.346  1.00  0.00     0.020 A 
BRANCH   8  11
HETATM   11  O   UNL     1      22.625  48.415  47.675  1.00  0.00    -0.347 OA
BRANCH  11  12
HETATM   12  C   UNL     1      22.848  49.810  47.880  1.00  0.00     0.214 C 
BRANCH  12  13
HETATM   13  C   UNL     1      21.569  50.429  48.391  1.00  0.00    -0.034 A 
HETATM   14  C   UNL     1      21.423  50.738  49.752  1.00  0.00     0.011 A 
HETATM   15  C   UNL     1      20.238  51.310  50.225  1.00  0.00     0.024 A 
HETATM   16  C   UNL     1      19.194  51.570  49.342  1.00  0.00     0.034 A 
HETATM   17 CL   UNL     1      17.735  52.274  49.923  1.00  0.00    -0.084 Cl
HETATM   18  C   UNL     1      19.320  51.262  47.989  1.00  0.00     0.024 A 
HETATM   19  C   UNL     1      20.503  50.691  47.515  1.00  0.00     0.011 A 
ENDBRANCH  12  13
ENDBRANCH  11  12
ENDBRANCH   8  11
ENDBRANCH   2   5
BRANCH   1  20
HETATM   20  N   UNL     1      26.981  43.578  51.750  1.00  0.00    -0.166 NA
HETATM   21  C   UNL     1      27.533  43.861  52.886  1.00  0.00     0.157 A 
HETATM   22  C   UNL     1      27.589  45.064  53.733  1.00  0.00     0.027 A 
HETATM   23  C   UNL     1      28.366  42.791  53.630  1.00  0.00     0.277 A 
HETATM   24  C   UNL     1      26.998  46.313  53.654  1.00  0.00     0.016 A 
HETATM   25  C   UNL     1      28.408  44.734  54.818  1.00  0.00     0.048 A 
HETATM   26  C   UNL     1      27.282  47.237  54.668  1.00  0.00     0.001 A 
HETATM   27  C   UNL     1      28.126  46.901  55.741  1.00  0.00     0.002 A 
HETATM   28  C   UNL     1      28.696  45.631  55.828  1.00  0.00     0.030 A 
HETATM   29  N   UNL     1      28.855  43.422  54.750  1.00  0.00    -0.321 N 
HETATM   30  H   UNL     1      29.436  42.949  55.425  1.00  0.00     0.169 HD
HETATM   31  O   UNL     1      28.549  41.644  53.292  1.00  0.00    -0.266 OA
ENDBRANCH   1  20
TORSDOF 5
ENDMDL
MODEL 3
REMARK VINA RESULT:      -9.2      4.678     10.285
REMARK  5 active torsions:
REMARK  status: ('A' for Active; 'I' for Inactive)
REMARK    1  A    between atoms: N_7  and  N_8 
REMARK       I    between atoms: N_8  and  C_9 
REMARK    2  A    between atoms: C_9  and  C_10 
REMARK    3  A    between atoms: C_13  and  O_14 
REMARK    4  A    between atoms: O_14  and  C_15 
REMARK    5  A    between atoms: C_15  and  C_16 
ROOT
HETATM    1  N   UNL     1      22.139  45.779  49.217  1.00  0.00    -0.242 N 
HETATM    2  C   UNL     1      22.856  44.596  49.107  1.00  0.00     0.271 C 
HETATM    3  O   UNL     1      22.627  43.686  48.317  1.00  0.00    -0.266 OA
HETATM    4  H   UNL     1      22.245  46.344  50.045  1.00  0.00     0.192 HD
ENDROOT
BRANCH   2   5
HETATM    5  C   UNL     1      23.985  44.441  50.062  1.00  0.00     0.033 A 
HETATM    6  C   UNL     1      24.400  43.148  50.399  1.00  0.00     0.020 A 
HETATM    7  C   UNL     1      25.497  42.952  51.244  1.00  0.00     0.038 A 
HETATM    8  C   UNL     1      26.201  44.050  51.738  1.00  0.00     0.069 A 
HETATM    9  C   UNL     1      25.774  45.343  51.417  1.00  0.00     0.038 A 
HETATM   10  C   UNL     1      24.675  45.544  50.576  1.00  0.00     0.020 A 
BRANCH   8  11
HETATM   11  O   UNL     1      27.314  43.993  52.532  1.00  0.00    -0.347 OA
BRANCH  11  12
HETATM   12  C   UNL     1      27.397  44.955  53.581  1.00  0.00     0.214 C 
BRANCH  12  13
HETATM   13  C   UNL     1      28.577  44.608  54.458  1.00  0.00    -0.034 A 
HETATM   14  C   UNL     1      29.239  43.381  54.305  1.00  0.00     0.011 A 
HETATM   15  C   UNL     1      30.329  43.059  55.118  1.00  0.00     0.024 A 
HETATM   16  C   UNL     1      30.758  43.958  56.090  1.00  0.00     0.034 A 
HETATM   17 CL   UNL     1      32.101  43.562  57.091  1.00  0.00    -0.084 Cl
HETATM   18  C   UNL     1      30.106  45.178  56.260  1.00  0.00     0.024 A 
HETATM   19  C   UNL     1      29.017  45.501  55.448  1.00  0.00     0.011 A 
ENDBRANCH  12  13
ENDBRANCH  11  12
ENDBRANCH   8  11
ENDBRANCH   2   5
BRANCH   1  20
HETATM   20  N   UNL     1      21.060  45.967  48.416  1.00  0.00    -0.166 NA
HETATM   21  C   UNL     1      20.645  47.154  48.110  1.00  0.00     0.157 A 
HETATM   22  C   UNL     1      21.127  48.517  48.388  1.00  0.00     0.027 A 
HETATM   23  C   UNL     1      19.354  47.333  47.276  1.00  0.00     0.277 A 
HETATM   24  C   UNL     1      22.252  49.020  49.018  1.00  0.00     0.016 A 
HETATM   25  C   UNL     1      20.185  49.382  47.819  1.00  0.00     0.048 A 
HETATM   26  C   UNL     1      22.390  50.412  49.100  1.00  0.00     0.001 A 
HETATM   27  C   UNL     1      21.424  51.271  48.546  1.00  0.00     0.002 A 
HETATM   28  C   UNL     1      20.306  50.756  47.888  1.00  0.00     0.030 A 
HETATM   29  N   UNL     1      19.164  48.691  47.183  1.00  0.00    -0.321 N 
HETATM   30  H   UNL     1      18.387  49.095  46.682  1.00  0.00     0.169 HD
HETATM   31  O   UNL     1      18.660  46.458  46.810  1.00  0.00    -0.266 OA
ENDBRANCH   1  20
TORSDOF 5
ENDMDL
MODEL 4
REMARK VINA RESULT:      -9.0      4.805     10.542
REMARK  5 active torsions:
REMARK  status: ('A' for Active; 'I' for Inactive)
REMARK    1  A    between atoms: N_7  and  N_8 
REMARK       I    between atoms: N_8  and  C_9 
REMARK    2  A    between atoms: C_9  and  C_10 
REMARK    3  A    between atoms: C_13  and  O_14 
REMARK    4  A    between atoms: O_14  and  C_15 
REMARK    5  A    between atoms: C_15  and  C_16 
ROOT
HETATM    1  N   UNL     1      20.687  46.933  48.796  1.00  0.00    -0.242 N 
HETATM    2  C   UNL     1      21.866  46.766  48.084  1.00  0.00     0.271 C 
HETATM    3  O   UNL     1      21.972  46.731  46.862  1.00  0.00    -0.266 OA
HETATM    4  H   UNL     1      20.666  46.703  49.777  1.00  0.00     0.192 HD
ENDROOT
BRANCH   2   5
HETATM    5  C   UNL     1      23.093  46.594  48.909  1.00  0.00     0.033 A 
HETATM    6  C   UNL     1      23.706  47.735  49.437  1.00  0.00     0.020 A 
HETATM    7  C   UNL     1      24.824  47.619  50.269  1.00  0.00     0.038 A 
HETATM    8  C   UNL     1      25.321  46.356  50.597  1.00  0.00     0.069 A 
HETATM    9  C   UNL     1      24.719  45.217  50.052  1.00  0.00     0.038 A 
HETATM   10  C   UNL     1      23.604  45.329  49.216  1.00  0.00     0.020 A 
BRANCH   8  11
HETATM   11  O   UNL     1      26.374  46.107  51.433  1.00  0.00    -0.347 OA
BRANCH  11  12
HETATM   12  C   UNL     1      26.064  45.953  52.817  1.00  0.00     0.214 C 
BRANCH  12  13
HETATM   13  C   UNL     1      27.233  45.279  53.498  1.00  0.00    -0.034 A 
HETATM   14  C   UNL     1      27.833  44.148  52.925  1.00  0.00     0.011 A 
HETATM   15  C   UNL     1      28.913  43.524  53.555  1.00  0.00     0.024 A 
HETATM   16  C   UNL     1      29.393  44.023  54.764  1.00  0.00     0.034 A 
HETATM   17 CL   UNL     1      30.722  43.255  55.540  1.00  0.00    -0.084 Cl
HETATM   18  C   UNL     1      28.802  45.141  55.350  1.00  0.00     0.024 A 
HETATM   19  C   UNL     1      27.723  45.766  54.720  1.00  0.00     0.011 A 
ENDBRANCH  12  13
ENDBRANCH  11  12
ENDBRANCH   8  11
ENDBRANCH   2   5
BRANCH   1  20
HETATM   20  N   UNL     1      19.519  47.041  48.112  1.00  0.00    -0.166 NA
HETATM   21  C   UNL     1      18.975  48.192  47.882  1.00  0.00     0.157 A 
HETATM   22  C   UNL     1      19.364  49.587  48.149  1.00  0.00     0.027 A 
HETATM   23  C   UNL     1      17.596  48.272  47.186  1.00  0.00     0.277 A 
HETATM   24  C   UNL     1      20.500  50.175  48.677  1.00  0.00     0.016 A 
HETATM   25  C   UNL     1      18.298  50.376  47.702  1.00  0.00     0.048 A 
HETATM   26  C   UNL     1      20.526  51.571  48.785  1.00  0.00     0.001 A 
HETATM   27  C   UNL     1      19.438  52.353  48.354  1.00  0.00     0.002 A 
HETATM   28  C   UNL     1      18.308  51.754  47.797  1.00  0.00     0.030 A 
HETATM   29  N   UNL     1      17.281  49.610  47.151  1.00  0.00    -0.321 N 
HETATM   30  H   UNL     1      16.425  49.953  46.742  1.00  0.00     0.169 HD
HETATM   31  O   UNL     1      16.935  47.349  46.768  1.00  0.00    -0.266 OA
ENDBRANCH   1  20
TORSDOF 5
ENDMDL
MODEL 5
REMARK VINA RESULT:      -8.8      2.468      3.822
REMARK  5 active torsions:
REMARK  status: ('A' for Active; 'I' for Inactive)
REMARK    1  A    between atoms: N_7  and  N_8 
REMARK       I    between atoms: N_8  and  C_9 
REMARK    2  A    between atoms: C_9  and  C_10 
REMARK    3  A    between atoms: C_13  and  O_14 
REMARK    4  A    between atoms: O_14  and  C_15 
REMARK    5  A    between atoms: C_15  and  C_16 
ROOT
HETATM    1  N   UNL     1      26.777  44.523  51.490  1.00  0.00    -0.242 N 
HETATM    2  C   UNL     1      25.422  44.656  51.763  1.00  0.00     0.271 C 
HETATM    3  O   UNL     1      24.815  44.112  52.680  1.00  0.00    -0.266 OA
HETATM    4  H   UNL     1      27.127  44.803  50.588  1.00  0.00     0.192 HD
ENDROOT
BRANCH   2   5
HETATM    5  C   UNL     1      24.663  45.526  50.825  1.00  0.00     0.033 A 
HETATM    6  C   UNL     1      24.878  46.907  50.875  1.00  0.00     0.020 A 
HETATM    7  C   UNL     1      24.235  47.759  49.973  1.00  0.00     0.038 A 
HETATM    8  C   UNL     1      23.388  47.230  48.997  1.00  0.00     0.069 A 
HETATM    9  C   UNL     1      23.158  45.851  48.961  1.00  0.00     0.038 A 
HETATM   10  C   UNL     1      23.796  44.996  49.864  1.00  0.00     0.020 A 
BRANCH   8  11
HETATM   11  O   UNL     1      22.739  47.948  48.031  1.00  0.00    -0.347 OA
BRANCH  11  12
HETATM   12  C   UNL     1      22.823  49.369  48.129  1.00  0.00     0.214 C 
BRANCH  12  13
HETATM   13  C   UNL     1      21.479  49.900  48.568  1.00  0.00    -0.034 A 
HETATM   14  C   UNL     1      20.498  49.028  49.063  1.00  0.00     0.011 A 
HETATM   15  C   UNL     1      19.254  49.519  49.467  1.00  0.00     0.024 A 
HETATM   16  C   UNL     1      18.982  50.882  49.373  1.00  0.00     0.034 A 
HETATM   17 CL   UNL     1      17.450  51.487  49.871  1.00  0.00    -0.084 Cl
HETATM   18  C   UNL     1      19.943  51.760  48.876  1.00  0.00     0.024 A 
HETATM   19  C   UNL     1      21.187  51.270  48.473  1.00  0.00     0.011 A 
ENDBRANCH  12  13
ENDBRANCH  11  12
ENDBRANCH   8  11
ENDBRANCH   2   5
BRANCH   1  20
HETATM   20  N   UNL     1      27.523  43.700  52.270  1.00  0.00    -0.166 NA
HETATM   21  C   UNL     1      27.864  42.518  51.871  1.00  0.00     0.157 A 
HETATM   22  C   UNL     1      27.684  41.761  50.621  1.00  0.00     0.027 A 
HETATM   23  C   UNL     1      28.630  41.570  52.823  1.00  0.00     0.277 A 
HETATM   24  C   UNL     1      27.146  42.076  49.385  1.00  0.00     0.016 A 
HETATM   25  C   UNL     1      28.240  40.498  50.852  1.00  0.00     0.048 A 
HETATM   26  C   UNL     1      27.142  41.081  48.399  1.00  0.00     0.001 A 
HETATM   27  C   UNL     1      27.683  39.807  48.651  1.00  0.00     0.002 A 
HETATM   28  C   UNL     1      28.248  39.506  49.891  1.00  0.00     0.030 A 
HETATM   29  N   UNL     1      28.781  40.394  52.126  1.00  0.00    -0.321 N 
HETATM   30  H   UNL     1      29.255  39.593  52.513  1.00  0.00     0.169 HD
HETATM   31  O   UNL     1      29.011  41.814  53.946  1.00  0.00    -0.266 OA
ENDBRANCH   1  20
TORSDOF 5
ENDMDL
MODEL 6
REMARK VINA RESULT:      -8.8      6.188      8.792
REMARK  5 active torsions:
REMARK  status: ('A' for Active; 'I' for Inactive)
REMARK    1  A    between atoms: N_7  and  N_8 
REMARK       I    between atoms: N_8  and  C_9 
REMARK    2  A    between atoms: C_9  and  C_10 
REMARK    3  A    between atoms: C_13  and  O_14 
REMARK    4  A    between atoms: O_14  and  C_15 
REMARK    5  A    between atoms: C_15  and  C_16 
ROOT
HETATM    1  N   UNL     1      26.091  45.554  51.988  1.00  0.00    -0.242 N 
HETATM    2  C   UNL     1      25.319  44.406  52.098  1.00  0.00     0.271 C 
HETATM    3  O   UNL     1      24.611  44.103  53.054  1.00  0.00    -0.266 OA
HETATM    4  H   UNL     1      26.817  45.595  51.289  1.00  0.00     0.192 HD
ENDROOT
BRANCH   2   5
HETATM    5  C   UNL     1      25.395  43.470  50.945  1.00  0.00     0.033 A 
HETATM    6  C   UNL     1      26.612  43.348  50.265  1.00  0.00     0.020 A 
HETATM    7  C   UNL     1      26.750  42.435  49.215  1.00  0.00     0.038 A 
HETATM    8  C   UNL     1      25.676  41.620  48.854  1.00  0.00     0.069 A 
HETATM    9  C   UNL     1      24.454  41.757  49.521  1.00  0.00     0.038 A 
HETATM   10  C   UNL     1      24.310  42.672  50.569  1.00  0.00     0.020 A 
BRANCH   8  11
HETATM   11  O   UNL     1      25.696  40.660  47.881  1.00  0.00    -0.347 OA
BRANCH  11  12
HETATM   12  C   UNL     1      26.978  40.303  47.366  1.00  0.00     0.214 C 
BRANCH  12  13
HETATM   13  C   UNL     1      27.636  39.351  48.337  1.00  0.00    -0.034 A 
HETATM   14  C   UNL     1      28.967  39.548  48.733  1.00  0.00     0.011 A 
HETATM   15  C   UNL     1      29.576  38.666  49.630  1.00  0.00     0.024 A 
HETATM   16  C   UNL     1      28.861  37.581  50.129  1.00  0.00     0.034 A 
HETATM   17 CL   UNL     1      29.610  36.495  51.233  1.00  0.00    -0.084 Cl
HETATM   18  C   UNL     1      27.540  37.367  49.739  1.00  0.00     0.024 A 
HETATM   19  C   UNL     1      26.931  38.248  48.843  1.00  0.00     0.011 A 
ENDBRANCH  12  13
ENDBRANCH  11  12
ENDBRANCH   8  11
ENDBRANCH   2   5
BRANCH   1  20
HETATM   20  N   UNL     1      26.115  46.429  53.026  1.00  0.00    -0.166 NA
HETATM   21  C   UNL     1      26.956  46.297  54.001  1.00  0.00     0.157 A 
HETATM   22  C   UNL     1      28.064  45.371  54.286  1.00  0.00     0.027 A 
HETATM   23  C   UNL     1      26.890  47.252  55.215  1.00  0.00     0.277 A 
HETATM   24  C   UNL     1      28.660  44.348  53.570  1.00  0.00     0.016 A 
HETATM   25  C   UNL     1      28.546  45.726  55.552  1.00  0.00     0.048 A 
HETATM   26  C   UNL     1      29.724  43.662  54.169  1.00  0.00     0.001 A 
HETATM   27  C   UNL     1      30.184  44.012  55.451  1.00  0.00     0.002 A 
HETATM   28  C   UNL     1      29.596  45.063  56.156  1.00  0.00     0.030 A 
HETATM   29  N   UNL     1      27.861  46.810  56.082  1.00  0.00    -0.321 N 
HETATM   30  H   UNL     1      28.042  47.260  56.966  1.00  0.00     0.169 HD
HETATM   31  O   UNL     1      26.137  48.188  55.368  1.00  0.00    -0.266 OA
ENDBRANCH   1  20
TORSDOF 5
ENDMDL
MODEL 7
REMARK VINA RESULT:      -8.8      7.073      8.841
REMARK  5 active torsions:
REMARK  status: ('A' for Active; 'I' for Inactive)
REMARK    1  A    between atoms: N_7  and  N_8 
REMARK       I    between atoms: N_8  and  C_9 
REMARK    2  A    between atoms: C_9  and  C_10 
REMARK    3  A    between atoms: C_13  and  O_14 
REMARK    4  A    between atoms: O_14  and  C_15 
REMARK    5  A    between atoms: C_15  and  C_16 
ROOT
HETATM    1  N   UNL     1      27.971  44.477  53.374  1.00  0.00    -0.242 N 
HETATM    2  C   UNL     1      27.338  43.262  53.594  1.00  0.00     0.271 C 
HETATM    3  O   UNL     1      26.608  42.991  54.542  1.00  0.00    -0.266 OA
HETATM    4  H   UNL     1      28.734  44.523  52.716  1.00  0.00     0.192 HD
ENDROOT
BRANCH   2   5
HETATM    5  C   UNL     1      27.608  42.206  52.581  1.00  0.00     0.033 A 
HETATM    6  C   UNL     1      26.827  42.182  51.420  1.00  0.00     0.020 A 
HETATM    7  C   UNL     1      27.084  41.248  50.412  1.00  0.00     0.038 A 
HETATM    8  C   UNL     1      28.141  40.347  50.548  1.00  0.00     0.069 A 
HETATM    9  C   UNL     1      28.908  40.359  51.718  1.00  0.00     0.038 A 
HETATM   10  C   UNL     1      28.652  41.288  52.731  1.00  0.00     0.020 A 
BRANCH   8  11
HETATM   11  O   UNL     1      28.524  39.420  49.619  1.00  0.00    -0.347 OA
BRANCH  11  12
HETATM   12  C   UNL     1      27.494  38.894  48.784  1.00  0.00     0.214 C 
BRANCH  12  13
HETATM   13  C   UNL     1      27.797  39.272  47.353  1.00  0.00    -0.034 A 
HETATM   14  C   UNL     1      27.999  38.279  46.383  1.00  0.00     0.011 A 
HETATM   15  C   UNL     1      28.281  38.629  45.060  1.00  0.00     0.024 A 
HETATM   16  C   UNL     1      28.368  39.972  44.702  1.00  0.00     0.034 A 
HETATM   17 CL   UNL     1      28.716  40.404  43.073  1.00  0.00    -0.084 Cl
HETATM   18  C   UNL     1      28.178  40.970  45.655  1.00  0.00     0.024 A 
HETATM   19  C   UNL     1      27.895  40.621  46.978  1.00  0.00     0.011 A 
ENDBRANCH  12  13
ENDBRANCH  11  12
ENDBRANCH   8  11
ENDBRANCH   2   5
BRANCH   1  20
HETATM   20  N   UNL     1      27.817  45.470  54.286  1.00  0.00    -0.166 NA
HETATM   21  C   UNL     1      28.548  45.526  55.353  1.00  0.00     0.157 A 
HETATM   22  C   UNL     1      29.676  44.735  55.871  1.00  0.00     0.027 A 
HETATM   23  C   UNL     1      28.279  46.613  56.420  1.00  0.00     0.277 A 
HETATM   24  C   UNL     1      30.418  43.685  55.360  1.00  0.00     0.016 A 
HETATM   25  C   UNL     1      29.985  45.279  57.123  1.00  0.00     0.048 A 
HETATM   26  C   UNL     1      31.451  43.165  56.151  1.00  0.00     0.001 A 
HETATM   27  C   UNL     1      31.736  43.705  57.418  1.00  0.00     0.002 A 
HETATM   28  C   UNL     1      31.001  44.782  57.915  1.00  0.00     0.030 A 
HETATM   29  N   UNL     1      29.172  46.360  57.434  1.00  0.00    -0.321 N 
HETATM   30  H   UNL     1      29.219  46.927  58.266  1.00  0.00     0.169 HD
HETATM   31  O   UNL     1      27.452  47.496  56.370  1.00  0.00    -0.266 OA
ENDBRANCH   1  20
TORSDOF 5
ENDMDL
MODEL 8
REMARK VINA RESULT:      -8.5      2.257      2.912
REMARK  5 active torsions:
REMARK  status: ('A' for Active; 'I' for Inactive)
REMARK    1  A    between atoms: N_7  and  N_8 
REMARK       I    between atoms: N_8  and  C_9 
REMARK    2  A    between atoms: C_9  and  C_10 
REMARK    3  A    between atoms: C_13  and  O_14 
REMARK    4  A    between atoms: O_14  and  C_15 
REMARK    5  A    between atoms: C_15  and  C_16 
ROOT
HETATM    1  N   UNL     1      25.598  43.042  49.657  1.00  0.00    -0.242 N 
HETATM    2  C   UNL     1      24.608  43.059  48.684  1.00  0.00     0.271 C 
HETATM    3  O   UNL     1      24.335  42.140  47.918  1.00  0.00    -0.266 OA
HETATM    4  H   UNL     1      25.908  43.913  50.059  1.00  0.00     0.192 HD
ENDROOT
BRANCH   2   5
HETATM    5  C   UNL     1      23.843  44.329  48.571  1.00  0.00     0.033 A 
HETATM    6  C   UNL     1      24.182  45.389  49.419  1.00  0.00     0.020 A 
HETATM    7  C   UNL     1      23.533  46.623  49.307  1.00  0.00     0.038 A 
HETATM    8  C   UNL     1      22.556  46.811  48.328  1.00  0.00     0.069 A 
HETATM    9  C   UNL     1      22.204  45.744  47.494  1.00  0.00     0.038 A 
HETATM   10  C   UNL     1      22.847  44.508  47.605  1.00  0.00     0.020 A 
BRANCH   8  11
HETATM   11  O   UNL     1      21.883  47.977  48.087  1.00  0.00    -0.347 OA
BRANCH  11  12
HETATM   12  C   UNL     1      22.294  49.116  48.841  1.00  0.00     0.214 C 
BRANCH  12  13
HETATM   13  C   UNL     1      21.085  49.988  49.089  1.00  0.00    -0.034 A 
HETATM   14  C   UNL     1      20.055  49.550  49.934  1.00  0.00     0.011 A 
HETATM   15  C   UNL     1      18.936  50.356  50.161  1.00  0.00     0.024 A 
HETATM   16  C   UNL     1      18.839  51.599  49.541  1.00  0.00     0.034 A 
HETATM   17 CL   UNL     1      17.462  52.591  49.821  1.00  0.00    -0.084 Cl
HETATM   18  C   UNL     1      19.851  52.044  48.693  1.00  0.00     0.024 A 
HETATM   19  C   UNL     1      20.969  51.240  48.465  1.00  0.00     0.011 A 
ENDBRANCH  12  13
ENDBRANCH  11  12
ENDBRANCH   8  11
ENDBRANCH   2   5
BRANCH   1  20
HETATM   20  N   UNL     1      26.375  41.936  49.781  1.00  0.00    -0.166 NA
HETATM   21  C   UNL     1      27.279  41.846  50.702  1.00  0.00     0.157 A 
HETATM   22  C   UNL     1      27.699  42.706  51.820  1.00  0.00     0.027 A 
HETATM   23  C   UNL     1      28.213  40.614  50.753  1.00  0.00     0.277 A 
HETATM   24  C   UNL     1      27.219  43.896  52.340  1.00  0.00     0.016 A 
HETATM   25  C   UNL     1      28.789  42.061  52.414  1.00  0.00     0.048 A 
HETATM   26  C   UNL     1      27.884  44.444  53.444  1.00  0.00     0.001 A 
HETATM   27  C   UNL     1      28.994  43.798  54.018  1.00  0.00     0.002 A 
HETATM   28  C   UNL     1      29.454  42.585  53.505  1.00  0.00     0.030 A 
HETATM   29  N   UNL     1      29.081  40.856  51.791  1.00  0.00    -0.321 N 
HETATM   30  H   UNL     1      29.805  40.204  52.053  1.00  0.00     0.169 HD
HETATM   31  O   UNL     1      28.184  39.646  50.027  1.00  0.00    -0.266 OA
ENDBRANCH   1  20
TORSDOF 5
ENDMDL
MODEL 9
REMARK VINA RESULT:      -8.4     12.752     15.675
REMARK  5 active torsions:
REMARK  status: ('A' for Active; 'I' for Inactive)
REMARK    1  A    between atoms: N_7  and  N_8 
REMARK       I    between atoms: N_8  and  C_9 
REMARK    2  A    between atoms: C_9  and  C_10 
REMARK    3  A    between atoms: C_13  and  O_14 
REMARK    4  A    between atoms: O_14  and  C_15 
REMARK    5  A    between atoms: C_15  and  C_16 
ROOT
HETATM    1  N   UNL     1      32.249  48.866  40.555  1.00  0.00    -0.242 N 
HETATM    2  C   UNL     1      31.970  49.172  41.879  1.00  0.00     0.271 C 
HETATM    3  O   UNL     1      31.020  48.750  42.531  1.00  0.00    -0.266 OA
HETATM    4  H   UNL     1      32.896  49.445  40.041  1.00  0.00     0.192 HD
ENDROOT
BRANCH   2   5
HETATM    5  C   UNL     1      32.915  50.118  42.531  1.00  0.00     0.033 A 
HETATM    6  C   UNL     1      34.204  50.242  42.002  1.00  0.00     0.020 A 
HETATM    7  C   UNL     1      35.107  51.163  42.542  1.00  0.00     0.038 A 
HETATM    8  C   UNL     1      34.716  51.985  43.600  1.00  0.00     0.069 A 
HETATM    9  C   UNL     1      33.434  51.846  44.142  1.00  0.00     0.038 A 
HETATM   10  C   UNL     1      32.529  50.923  43.608  1.00  0.00     0.020 A 
BRANCH   8  11
HETATM   11  O   UNL     1      35.485  52.953  44.184  1.00  0.00    -0.347 OA
BRANCH  11  12
HETATM   12  C   UNL     1      36.802  53.122  43.661  1.00  0.00     0.214 C 
BRANCH  12  13
HETATM   13  C   UNL     1      37.746  53.379  44.811  1.00  0.00    -0.034 A 
HETATM   14  C   UNL     1      38.663  52.396  45.212  1.00  0.00     0.011 A 
HETATM   15  C   UNL     1      39.534  52.634  46.278  1.00  0.00     0.024 A 
HETATM   16  C   UNL     1      39.490  53.852  46.951  1.00  0.00     0.034 A 
HETATM   17 CL   UNL     1      40.564  54.145  48.264  1.00  0.00    -0.084 Cl
HETATM   18  C   UNL     1      38.580  54.836  46.571  1.00  0.00     0.024 A 
HETATM   19  C   UNL     1      37.708  54.599  45.505  1.00  0.00     0.011 A 
ENDBRANCH  12  13
ENDBRANCH  11  12
ENDBRANCH   8  11
ENDBRANCH   2   5
BRANCH   1  20
HETATM   20  N   UNL     1      31.399  48.053  39.878  1.00  0.00    -0.166 NA
HETATM   21  C   UNL     1      30.321  48.512  39.326  1.00  0.00     0.157 A 
HETATM   22  C   UNL     1      29.735  49.853  39.172  1.00  0.00     0.027 A 
HETATM   23  C   UNL     1      29.325  47.542  38.649  1.00  0.00     0.277 A 
HETATM   24  C   UNL     1      30.169  51.126  39.497  1.00  0.00     0.016 A 
HETATM   25  C   UNL     1      28.509  49.665  38.522  1.00  0.00     0.048 A 
HETATM   26  C   UNL     1      29.327  52.203  39.192  1.00  0.00     0.001 A 
HETATM   27  C   UNL     1      28.086  51.999  38.560  1.00  0.00     0.002 A 
HETATM   28  C   UNL     1      27.668  50.714  38.211  1.00  0.00     0.030 A 
HETATM   29  N   UNL     1      28.279  48.328  38.227  1.00  0.00    -0.321 N 
HETATM   30  H   UNL     1      27.480  47.950  37.743  1.00  0.00     0.169 HD
HETATM   31  O   UNL     1      29.443  46.344  38.523  1.00  0.00    -0.266 OA
ENDBRANCH   1  20
TORSDOF 5
ENDMDL
MODEL 10
REMARK VINA RESULT:      -8.3     12.878     16.017
REMARK  5 active torsions:
REMARK  status: ('A' for Active; 'I' for Inactive)
REMARK    1  A    between atoms: N_7  and  N_8 
REMARK       I    between atoms: N_8  and  C_9 
REMARK    2  A    between atoms: C_9  and  C_10 
REMARK    3  A    between atoms: C_13  and  O_14 
REMARK    4  A    between atoms: O_14  and  C_15 
REMARK    5  A    between atoms: C_15  and  C_16 
ROOT
HETATM    1  N   UNL     1      32.488  50.459  43.149  1.00  0.00    -0.242 N 
HETATM    2  C   UNL     1      33.576  50.455  42.288  1.00  0.00     0.271 C 
HETATM    3  O   UNL     1      33.641  49.867  41.213  1.00  0.00    -0.266 OA
HETATM    4  H   UNL     1      32.616  50.758  44.104  1.00  0.00     0.192 HD
ENDROOT
BRANCH   2   5
HETATM    5  C   UNL     1      34.762  51.224  42.750  1.00  0.00     0.033 A 
HETATM    6  C   UNL     1      35.917  51.207  41.961  1.00  0.00     0.020 A 
HETATM    7  C   UNL     1      37.035  51.965  42.323  1.00  0.00     0.038 A 
HETATM    8  C   UNL     1      36.995  52.765  43.465  1.00  0.00     0.069 A 
HETATM    9  C   UNL     1      35.847  52.766  44.265  1.00  0.00     0.038 A 
HETATM   10  C   UNL     1      34.728  52.007  43.909  1.00  0.00     0.020 A 
BRANCH   8  11
HETATM   11  O   UNL     1      38.000  53.585  43.900  1.00  0.00    -0.347 OA
BRANCH  11  12
HETATM   12  C   UNL     1      37.728  54.359  45.067  1.00  0.00     0.214 C 
BRANCH  12  13
HETATM   13  C   UNL     1      38.907  54.241  46.005  1.00  0.00    -0.034 A 
HETATM   14  C   UNL     1      40.218  54.308  45.511  1.00  0.00     0.011 A 
HETATM   15  C   UNL     1      41.308  54.196  46.378  1.00  0.00     0.024 A 
HETATM   16  C   UNL     1      41.092  54.013  47.742  1.00  0.00     0.034 A 
HETATM   17 CL   UNL     1      42.434  53.876  48.810  1.00  0.00    -0.084 Cl
HETATM   18  C   UNL     1      39.796  53.936  48.248  1.00  0.00     0.024 A 
HETATM   19  C   UNL     1      38.707  54.048  47.381  1.00  0.00     0.011 A 
ENDBRANCH  12  13
ENDBRANCH  11  12
ENDBRANCH   8  11
ENDBRANCH   2   5
BRANCH   1  20
HETATM   20  N   UNL     1      31.390  49.732  42.820  1.00  0.00    -0.166 NA
HETATM   21  C   UNL     1      30.432  50.240  42.113  1.00  0.00     0.157 A 
HETATM   22  C   UNL     1      30.220  51.533  41.443  1.00  0.00     0.027 A 
HETATM   23  C   UNL     1      29.151  49.416  41.840  1.00  0.00     0.277 A 
HETATM   24  C   UNL     1      31.012  52.654  41.263  1.00  0.00     0.016 A 
HETATM   25  C   UNL     1      28.935  51.476  40.891  1.00  0.00     0.048 A 
HETATM   26  C   UNL     1      30.470  53.732  40.551  1.00  0.00     0.001 A 
HETATM   27  C   UNL     1      29.168  53.671  40.021  1.00  0.00     0.002 A 
HETATM   28  C   UNL     1      28.386  52.527  40.184  1.00  0.00     0.030 A 
HETATM   29  N   UNL     1      28.324  50.252  41.127  1.00  0.00    -0.321 N 
HETATM   30  H   UNL     1      27.411  49.966  40.810  1.00  0.00     0.169 HD
HETATM   31  O   UNL     1      28.927  48.279  42.186  1.00  0.00    -0.266 OA
ENDBRANCH   1  20
TORSDOF 5
ENDMDL
