MODEL 1
REMARK VINA RESULT:     -10.1      0.000      0.000
REMARK  3 active torsions:
REMARK  status: ('A' for Active; 'I' for Inactive)
REMARK    1  A    between atoms: C_5  and  C_6 
REMARK    2  A    between atoms: C_10  and  N_11 
REMARK    3  A    between atoms: N_11  and  N_12 
ROOT
HETATM    1  N   UNL     1      23.379  46.819  49.240  1.00  0.00    -0.261 N 
HETATM    2  H   UNL     1      22.456  46.412  49.066  1.00  0.00     0.191 HD
ENDROOT
BRANCH   1   3
HETATM    3  C   UNL     1      24.080  46.375  50.315  1.00  0.00     0.140 A 
HETATM    4  N   UNL     1      23.833  45.155  50.872  1.00  0.00    -0.261 N 
HETATM    5  N   UNL     1      24.615  44.858  51.919  1.00  0.00    -0.172 NA
HETATM    6  H   UNL     1      23.140  44.474  50.592  1.00  0.00     0.191 HD
HETATM    7  C   UNL     1      25.419  45.928  52.059  1.00  0.00     0.090 A 
HETATM    8  C   UNL     1      25.101  46.909  51.071  1.00  0.00     0.085 A 
BRANCH   7   9
HETATM    9  C   UNL     1      26.460  45.960  53.101  1.00  0.00    -0.006 A 
HETATM   10  C   UNL     1      26.695  47.141  53.827  1.00  0.00     0.014 A 
HETATM   11  C   UNL     1      27.634  47.184  54.863  1.00  0.00     0.007 A 
HETATM   12  C   UNL     1      28.370  46.045  55.197  1.00  0.00    -0.062 A 
HETATM   13  C   UNL     1      29.342  46.064  56.340  1.00  0.00     0.048 C 
HETATM   14  C   UNL     1      28.161  44.869  54.465  1.00  0.00     0.007 A 
HETATM   15  C   UNL     1      27.218  44.828  53.427  1.00  0.00     0.014 A 
ENDBRANCH   7   9
ENDBRANCH   1   3
BRANCH   1  16
HETATM   16  N   UNL     1      23.590  48.078  48.751  1.00  0.00    -0.166 NA
HETATM   17  C   UNL     1      22.565  48.870  48.591  1.00  0.00     0.169 C 
HETATM   18  C   UNL     1      22.786  50.306  48.153  1.00  0.00     0.278 C 
HETATM   19  C   UNL     1      21.157  48.437  48.794  1.00  0.00     0.067 C 
HETATM   20  O   UNL     1      23.867  50.643  47.682  1.00  0.00    -0.265 OA
HETATM   21  N   UNL     1      21.753  51.224  48.204  1.00  0.00    -0.319 N 
HETATM   22  C   UNL     1      20.432  51.189  48.724  1.00  0.00     0.064 A 
HETATM   23  H   UNL     1      22.044  52.102  47.789  1.00  0.00     0.169 HD
HETATM   24  C   UNL     1      19.867  50.138  49.486  1.00  0.00     0.084 A 
HETATM   25  C   UNL     1      19.645  52.320  48.454  1.00  0.00     0.032 A 
HETATM   26  C   UNL     1      18.562  50.263  49.978  1.00  0.00     0.034 A 
HETATM   27  N   UNL     1      20.579  48.973  49.819  1.00  0.00    -0.249 NA
HETATM   28  C   UNL     1      17.796  51.394  49.696  1.00  0.00     0.002 A 
HETATM   29  C   UNL     1      18.335  52.419  48.927  1.00  0.00     0.002 A 
HETATM   30  C   UNL     1      20.445  47.874  47.600  1.00  0.00     0.073 C 
ENDBRANCH   1  16
TORSDOF 3
ENDMDL
MODEL 2
REMARK VINA RESULT:      -9.9      2.546      3.956
REMARK  3 active torsions:
REMARK  status: ('A' for Active; 'I' for Inactive)
REMARK    1  A    between atoms: C_5  and  C_6 
REMARK    2  A    between atoms: C_10  and  N_11 
REMARK    3  A    between atoms: N_11  and  N_12 
ROOT
HETATM    1  N   UNL     1      25.949  44.419  49.194  1.00  0.00    -0.261 N 
HETATM    2  H   UNL     1      26.487  44.194  48.354  1.00  0.00     0.191 HD
ENDROOT
BRANCH   1   3
HETATM    3  C   UNL     1      26.491  44.113  50.401  1.00  0.00     0.140 A 
HETATM    4  N   UNL     1      25.878  43.249  51.259  1.00  0.00    -0.261 N 
HETATM    5  N   UNL     1      26.543  43.042  52.404  1.00  0.00    -0.172 NA
HETATM    6  H   UNL     1      24.997  42.767  51.131  1.00  0.00     0.191 HD
HETATM    7  C   UNL     1      27.650  43.800  52.296  1.00  0.00     0.090 A 
HETATM    8  C   UNL     1      27.644  44.498  51.051  1.00  0.00     0.085 A 
BRANCH   7   9
HETATM    9  C   UNL     1      28.666  43.809  53.363  1.00  0.00    -0.006 A 
HETATM   10  C   UNL     1      28.560  44.718  54.431  1.00  0.00     0.014 A 
HETATM   11  C   UNL     1      29.476  44.709  55.488  1.00  0.00     0.007 A 
HETATM   12  C   UNL     1      30.528  43.790  55.504  1.00  0.00    -0.062 A 
HETATM   13  C   UNL     1      31.486  43.737  56.658  1.00  0.00     0.048 C 
HETATM   14  C   UNL     1      30.657  42.896  54.434  1.00  0.00     0.007 A 
HETATM   15  C   UNL     1      29.737  42.906  53.375  1.00  0.00     0.014 A 
ENDBRANCH   7   9
ENDBRANCH   1   3
BRANCH   1  16
HETATM   16  N   UNL     1      24.592  44.492  49.046  1.00  0.00    -0.166 NA
HETATM   17  C   UNL     1      24.003  45.643  49.218  1.00  0.00     0.169 C 
HETATM   18  C   UNL     1      22.514  45.773  48.953  1.00  0.00     0.278 C 
HETATM   19  C   UNL     1      24.710  46.862  49.692  1.00  0.00     0.067 C 
HETATM   20  O   UNL     1      21.819  44.766  48.857  1.00  0.00    -0.265 OA
HETATM   21  N   UNL     1      21.914  47.018  48.899  1.00  0.00    -0.319 N 
HETATM   22  C   UNL     1      22.410  48.348  48.915  1.00  0.00     0.064 A 
HETATM   23  H   UNL     1      20.909  46.918  48.809  1.00  0.00     0.169 HD
HETATM   24  C   UNL     1      23.773  48.728  48.868  1.00  0.00     0.084 A 
HETATM   25  C   UNL     1      21.433  49.357  48.968  1.00  0.00     0.032 A 
HETATM   26  C   UNL     1      24.113  50.086  48.840  1.00  0.00     0.034 A 
HETATM   27  N   UNL     1      24.820  47.793  48.800  1.00  0.00    -0.249 NA
HETATM   28  C   UNL     1      23.129  51.072  48.896  1.00  0.00     0.002 A 
HETATM   29  C   UNL     1      21.789  50.707  48.968  1.00  0.00     0.002 A 
HETATM   30  C   UNL     1      24.762  47.080  51.175  1.00  0.00     0.073 C 
ENDBRANCH   1  16
TORSDOF 3
ENDMDL
MODEL 3
REMARK VINA RESULT:      -9.9      2.300      9.602
REMARK  3 active torsions:
REMARK  status: ('A' for Active; 'I' for Inactive)
REMARK    1  A    between atoms: C_5  and  C_6 
REMARK    2  A    between atoms: C_10  and  N_11 
REMARK    3  A    between atoms: N_11  and  N_12 
ROOT
HETATM    1  N   UNL     1      24.759  47.725  49.637  1.00  0.00    -0.261 N 
HETATM    2  H   UNL     1      25.487  47.293  49.064  1.00  0.00     0.191 HD
ENDROOT
BRANCH   1   3
HETATM    3  C   UNL     1      23.900  48.588  49.034  1.00  0.00     0.140 A 
HETATM    4  N   UNL     1      24.315  49.433  48.048  1.00  0.00    -0.261 N 
HETATM    5  N   UNL     1      23.349  50.214  47.546  1.00  0.00    -0.172 NA
HETATM    6  H   UNL     1      25.248  49.536  47.670  1.00  0.00     0.191 HD
HETATM    7  C   UNL     1      22.242  49.867  48.230  1.00  0.00     0.090 A 
HETATM    8  C   UNL     1      22.556  48.853  49.184  1.00  0.00     0.085 A 
BRANCH   7   9
HETATM    9  C   UNL     1      20.942  50.493  47.931  1.00  0.00    -0.006 A 
HETATM   10  C   UNL     1      20.086  49.918  46.975  1.00  0.00     0.014 A 
HETATM   11  C   UNL     1      18.821  50.455  46.715  1.00  0.00     0.007 A 
HETATM   12  C   UNL     1      18.379  51.588  47.401  1.00  0.00    -0.062 A 
HETATM   13  C   UNL     1      17.004  52.143  47.168  1.00  0.00     0.048 C 
HETATM   14  C   UNL     1      19.233  52.183  48.339  1.00  0.00     0.007 A 
HETATM   15  C   UNL     1      20.501  51.643  48.599  1.00  0.00     0.014 A 
ENDBRANCH   7   9
ENDBRANCH   1   3
BRANCH   1  16
HETATM   16  N   UNL     1      25.022  47.836  50.974  1.00  0.00    -0.166 NA
HETATM   17  C   UNL     1      25.464  46.788  51.615  1.00  0.00     0.169 C 
HETATM   18  C   UNL     1      25.866  46.913  53.073  1.00  0.00     0.278 C 
HETATM   19  C   UNL     1      25.579  45.440  50.998  1.00  0.00     0.067 C 
HETATM   20  O   UNL     1      25.519  47.896  53.721  1.00  0.00    -0.265 OA
HETATM   21  N   UNL     1      26.552  45.892  53.704  1.00  0.00    -0.319 N 
HETATM   22  C   UNL     1      27.137  44.678  53.256  1.00  0.00     0.064 A 
HETATM   23  H   UNL     1      26.655  46.098  54.692  1.00  0.00     0.169 HD
HETATM   24  C   UNL     1      27.260  44.263  51.908  1.00  0.00     0.084 A 
HETATM   25  C   UNL     1      27.643  43.842  54.265  1.00  0.00     0.032 A 
HETATM   26  C   UNL     1      27.909  43.058  51.611  1.00  0.00     0.034 A 
HETATM   27  N   UNL     1      26.797  45.036  50.830  1.00  0.00    -0.249 NA
HETATM   28  C   UNL     1      28.402  42.241  52.628  1.00  0.00     0.002 A 
HETATM   29  C   UNL     1      28.262  42.629  53.955  1.00  0.00     0.002 A 
HETATM   30  C   UNL     1      24.381  44.544  51.103  1.00  0.00     0.073 C 
ENDBRANCH   1  16
TORSDOF 3
ENDMDL
MODEL 4
REMARK VINA RESULT:      -9.5      1.872      9.285
REMARK  3 active torsions:
REMARK  status: ('A' for Active; 'I' for Inactive)
REMARK    1  A    between atoms: C_5  and  C_6 
REMARK    2  A    between atoms: C_10  and  N_11 
REMARK    3  A    between atoms: N_11  and  N_12 
ROOT
HETATM    1  N   UNL     1      23.193  48.186  49.144  1.00  0.00    -0.261 N 
HETATM    2  H   UNL     1      23.895  48.849  49.484  1.00  0.00     0.191 HD
ENDROOT
BRANCH   1   3
HETATM    3  C   UNL     1      21.889  48.564  49.177  1.00  0.00     0.140 A 
HETATM    4  N   UNL     1      20.889  47.657  49.363  1.00  0.00    -0.261 N 
HETATM    5  N   UNL     1      19.659  48.187  49.382  1.00  0.00    -0.172 NA
HETATM    6  H   UNL     1      20.973  46.656  49.480  1.00  0.00     0.191 HD
HETATM    7  C   UNL     1      19.854  49.507  49.203  1.00  0.00     0.090 A 
HETATM    8  C   UNL     1      21.248  49.778  49.059  1.00  0.00     0.085 A 
BRANCH   7   9
HETATM    9  C   UNL     1      18.718  50.445  49.202  1.00  0.00    -0.006 A 
HETATM   10  C   UNL     1      17.468  50.040  48.701  1.00  0.00     0.014 A 
HETATM   11  C   UNL     1      16.357  50.888  48.743  1.00  0.00     0.007 A 
HETATM   12  C   UNL     1      16.467  52.171  49.284  1.00  0.00    -0.062 A 
HETATM   13  C   UNL     1      15.270  53.071  49.382  1.00  0.00     0.048 C 
HETATM   14  C   UNL     1      17.713  52.594  49.765  1.00  0.00     0.007 A 
HETATM   15  C   UNL     1      18.826  51.742  49.722  1.00  0.00     0.014 A 
ENDBRANCH   7   9
ENDBRANCH   1   3
BRANCH   1  16
HETATM   16  N   UNL     1      23.530  46.863  49.198  1.00  0.00    -0.166 NA
HETATM   17  C   UNL     1      24.495  46.493  49.995  1.00  0.00     0.169 C 
HETATM   18  C   UNL     1      24.815  45.018  50.155  1.00  0.00     0.278 C 
HETATM   19  C   UNL     1      25.340  47.451  50.757  1.00  0.00     0.067 C 
HETATM   20  O   UNL     1      24.376  44.206  49.347  1.00  0.00    -0.265 OA
HETATM   21  N   UNL     1      25.663  44.587  51.158  1.00  0.00    -0.319 N 
HETATM   22  C   UNL     1      26.285  45.227  52.262  1.00  0.00     0.064 A 
HETATM   23  H   UNL     1      25.841  43.593  51.062  1.00  0.00     0.169 HD
HETATM   24  C   UNL     1      26.056  46.558  52.687  1.00  0.00     0.084 A 
HETATM   25  C   UNL     1      27.195  44.439  52.986  1.00  0.00     0.032 A 
HETATM   26  C   UNL     1      26.707  47.042  53.829  1.00  0.00     0.034 A 
HETATM   27  N   UNL     1      25.156  47.420  52.037  1.00  0.00    -0.249 NA
HETATM   28  C   UNL     1      27.608  46.244  54.532  1.00  0.00     0.002 A 
HETATM   29  C   UNL     1      27.858  44.944  54.106  1.00  0.00     0.002 A 
HETATM   30  C   UNL     1      26.582  47.946  50.077  1.00  0.00     0.073 C 
ENDBRANCH   1  16
TORSDOF 3
ENDMDL
MODEL 5
REMARK VINA RESULT:      -9.4      8.700     11.087
REMARK  3 active torsions:
REMARK  status: ('A' for Active; 'I' for Inactive)
REMARK    1  A    between atoms: C_5  and  C_6 
REMARK    2  A    between atoms: C_10  and  N_11 
REMARK    3  A    between atoms: N_11  and  N_12 
ROOT
HETATM    1  N   UNL     1      27.630  40.244  51.285  1.00  0.00    -0.261 N 
HETATM    2  H   UNL     1      26.777  40.191  50.723  1.00  0.00     0.191 HD
ENDROOT
BRANCH   1   3
HETATM    3  C   UNL     1      27.791  41.319  52.099  1.00  0.00     0.140 A 
HETATM    4  N   UNL     1      26.877  42.330  52.135  1.00  0.00    -0.261 N 
HETATM    5  N   UNL     1      27.173  43.312  52.996  1.00  0.00    -0.172 NA
HETATM    6  H   UNL     1      26.027  42.417  51.593  1.00  0.00     0.191 HD
HETATM    7  C   UNL     1      28.336  42.933  53.559  1.00  0.00     0.090 A 
HETATM    8  C   UNL     1      28.760  41.686  53.008  1.00  0.00     0.085 A 
BRANCH   7   9
HETATM    9  C   UNL     1      28.973  43.754  54.603  1.00  0.00    -0.006 A 
HETATM   10  C   UNL     1      28.345  44.926  55.060  1.00  0.00     0.014 A 
HETATM   11  C   UNL     1      28.896  45.693  56.093  1.00  0.00     0.007 A 
HETATM   12  C   UNL     1      30.097  45.308  56.694  1.00  0.00    -0.062 A 
HETATM   13  C   UNL     1      30.671  46.094  57.837  1.00  0.00     0.048 C 
HETATM   14  C   UNL     1      30.743  44.156  56.231  1.00  0.00     0.007 A 
HETATM   15  C   UNL     1      30.189  43.388  55.196  1.00  0.00     0.014 A 
ENDBRANCH   7   9
ENDBRANCH   1   3
BRANCH   1  16
HETATM   16  N   UNL     1      28.720  39.574  50.802  1.00  0.00    -0.166 NA
HETATM   17  C   UNL     1      28.570  38.799  49.764  1.00  0.00     0.169 C 
HETATM   18  C   UNL     1      29.783  38.130  49.143  1.00  0.00     0.278 C 
HETATM   19  C   UNL     1      27.249  38.501  49.148  1.00  0.00     0.067 C 
HETATM   20  O   UNL     1      30.840  38.083  49.764  1.00  0.00    -0.265 OA
HETATM   21  N   UNL     1      29.689  37.501  47.916  1.00  0.00    -0.319 N 
HETATM   22  C   UNL     1      28.668  37.411  46.933  1.00  0.00     0.064 A 
HETATM   23  H   UNL     1      30.560  37.029  47.697  1.00  0.00     0.169 HD
HETATM   24  C   UNL     1      27.439  38.115  46.945  1.00  0.00     0.084 A 
HETATM   25  C   UNL     1      28.936  36.548  45.857  1.00  0.00     0.032 A 
HETATM   26  C   UNL     1      26.545  37.965  45.878  1.00  0.00     0.034 A 
HETATM   27  N   UNL     1      27.086  39.010  47.969  1.00  0.00    -0.249 NA
HETATM   28  C   UNL     1      26.829  37.102  44.821  1.00  0.00     0.002 A 
HETATM   29  C   UNL     1      28.022  36.387  44.815  1.00  0.00     0.002 A 
HETATM   30  C   UNL     1      26.505  37.315  49.684  1.00  0.00     0.073 C 
ENDBRANCH   1  16
TORSDOF 3
ENDMDL
MODEL 6
REMARK VINA RESULT:      -9.4      8.468     10.556
REMARK  3 active torsions:
REMARK  status: ('A' for Active; 'I' for Inactive)
REMARK    1  A    between atoms: C_5  and  C_6 
REMARK    2  A    between atoms: C_10  and  N_11 
REMARK    3  A    between atoms: N_11  and  N_12 
ROOT
HETATM    1  N   UNL     1      27.147  41.556  50.865  1.00  0.00    -0.261 N 
HETATM    2  H   UNL     1      26.139  41.588  51.039  1.00  0.00     0.191 HD
ENDROOT
BRANCH   1   3
HETATM    3  C   UNL     1      27.977  41.999  51.844  1.00  0.00     0.140 A 
HETATM    4  N   UNL     1      29.245  41.516  51.977  1.00  0.00    -0.261 N 
HETATM    5  N   UNL     1      29.942  42.059  52.983  1.00  0.00    -0.172 NA
HETATM    6  H   UNL     1      29.701  40.807  51.416  1.00  0.00     0.191 HD
HETATM    7  C   UNL     1      29.098  42.947  53.541  1.00  0.00     0.090 A 
HETATM    8  C   UNL     1      27.846  42.927  52.855  1.00  0.00     0.085 A 
BRANCH   7   9
HETATM    9  C   UNL     1      29.523  43.784  54.677  1.00  0.00    -0.006 A 
HETATM   10  C   UNL     1      28.779  44.923  55.031  1.00  0.00     0.014 A 
HETATM   11  C   UNL     1      29.124  45.702  56.141  1.00  0.00     0.007 A 
HETATM   12  C   UNL     1      30.229  45.364  56.925  1.00  0.00    -0.062 A 
HETATM   13  C   UNL     1      30.578  46.162  58.147  1.00  0.00     0.048 C 
HETATM   14  C   UNL     1      30.991  44.246  56.568  1.00  0.00     0.007 A 
HETATM   15  C   UNL     1      30.644  43.465  55.455  1.00  0.00     0.014 A 
ENDBRANCH   7   9
ENDBRANCH   1   3
BRANCH   1  16
HETATM   16  N   UNL     1      27.541  41.596  49.557  1.00  0.00    -0.166 NA
HETATM   17  C   UNL     1      27.701  40.471  48.916  1.00  0.00     0.169 C 
HETATM   18  C   UNL     1      28.031  40.490  47.435  1.00  0.00     0.278 C 
HETATM   19  C   UNL     1      27.603  39.137  49.566  1.00  0.00     0.067 C 
HETATM   20  O   UNL     1      28.421  41.527  46.908  1.00  0.00    -0.265 OA
HETATM   21  N   UNL     1      27.975  39.329  46.685  1.00  0.00    -0.319 N 
HETATM   22  C   UNL     1      27.528  38.008  46.953  1.00  0.00     0.064 A 
HETATM   23  H   UNL     1      28.315  39.502  45.746  1.00  0.00     0.169 HD
HETATM   24  C   UNL     1      26.868  37.576  48.129  1.00  0.00     0.084 A 
HETATM   25  C   UNL     1      27.765  37.070  45.934  1.00  0.00     0.032 A 
HETATM   26  C   UNL     1      26.439  36.247  48.234  1.00  0.00     0.034 A 
HETATM   27  N   UNL     1      26.575  38.442  49.197  1.00  0.00    -0.249 NA
HETATM   28  C   UNL     1      26.685  35.332  47.212  1.00  0.00     0.002 A 
HETATM   29  C   UNL     1      27.355  35.742  46.065  1.00  0.00     0.002 A 
HETATM   30  C   UNL     1      28.867  38.569  50.138  1.00  0.00     0.073 C 
ENDBRANCH   1  16
TORSDOF 3
ENDMDL
MODEL 7
REMARK VINA RESULT:      -9.2      8.313     10.063
REMARK  3 active torsions:
REMARK  status: ('A' for Active; 'I' for Inactive)
REMARK    1  A    between atoms: C_5  and  C_6 
REMARK    2  A    between atoms: C_10  and  N_11 
REMARK    3  A    between atoms: N_11  and  N_12 
ROOT
HETATM    1  N   UNL     1      26.920  41.423  51.131  1.00  0.00    -0.261 N 
HETATM    2  H   UNL     1      26.445  42.063  50.490  1.00  0.00     0.191 HD
ENDROOT
BRANCH   1   3
HETATM    3  C   UNL     1      27.798  41.950  52.024  1.00  0.00     0.140 A 
HETATM    4  N   UNL     1      29.143  41.769  51.892  1.00  0.00    -0.261 N 
HETATM    5  N   UNL     1      29.876  42.359  52.846  1.00  0.00    -0.172 NA
HETATM    6  H   UNL     1      29.632  41.247  51.176  1.00  0.00     0.191 HD
HETATM    7  C   UNL     1      28.975  42.961  53.644  1.00  0.00     0.090 A 
HETATM    8  C   UNL     1      27.654  42.714  53.161  1.00  0.00     0.085 A 
BRANCH   7   9
HETATM    9  C   UNL     1      29.408  43.758  54.805  1.00  0.00    -0.006 A 
HETATM   10  C   UNL     1      30.517  43.350  55.567  1.00  0.00     0.014 A 
HETATM   11  C   UNL     1      30.988  44.118  56.637  1.00  0.00     0.007 A 
HETATM   12  C   UNL     1      30.356  45.316  56.978  1.00  0.00    -0.062 A 
HETATM   13  C   UNL     1      30.883  46.174  58.091  1.00  0.00     0.048 C 
HETATM   14  C   UNL     1      29.236  45.721  56.242  1.00  0.00     0.007 A 
HETATM   15  C   UNL     1      28.766  44.950  55.168  1.00  0.00     0.014 A 
ENDBRANCH   7   9
ENDBRANCH   1   3
BRANCH   1  16
HETATM   16  N   UNL     1      27.056  40.130  50.711  1.00  0.00    -0.166 NA
HETATM   17  C   UNL     1      27.107  39.888  49.430  1.00  0.00     0.169 C 
HETATM   18  C   UNL     1      27.365  38.475  48.941  1.00  0.00     0.278 C 
HETATM   19  C   UNL     1      26.897  40.932  48.391  1.00  0.00     0.067 C 
HETATM   20  O   UNL     1      27.247  37.529  49.713  1.00  0.00    -0.265 OA
HETATM   21  N   UNL     1      27.656  38.233  47.611  1.00  0.00    -0.319 N 
HETATM   22  C   UNL     1      27.914  39.070  46.493  1.00  0.00     0.064 A 
HETATM   23  H   UNL     1      27.706  37.234  47.440  1.00  0.00     0.169 HD
HETATM   24  C   UNL     1      28.058  40.478  46.525  1.00  0.00     0.084 A 
HETATM   25  C   UNL     1      28.045  38.410  45.260  1.00  0.00     0.032 A 
HETATM   26  C   UNL     1      28.362  41.170  45.346  1.00  0.00     0.034 A 
HETATM   27  N   UNL     1      27.958  41.225  47.712  1.00  0.00    -0.249 NA
HETATM   28  C   UNL     1      28.487  40.497  44.132  1.00  0.00     0.002 A 
HETATM   29  C   UNL     1      28.320  39.117  44.087  1.00  0.00     0.002 A 
HETATM   30  C   UNL     1      25.488  41.147  47.925  1.00  0.00     0.073 C 
ENDBRANCH   1  16
TORSDOF 3
ENDMDL
MODEL 8
REMARK VINA RESULT:      -8.9      6.902      9.947
REMARK  3 active torsions:
REMARK  status: ('A' for Active; 'I' for Inactive)
REMARK    1  A    between atoms: C_5  and  C_6 
REMARK    2  A    between atoms: C_10  and  N_11 
REMARK    3  A    between atoms: N_11  and  N_12 
ROOT
HETATM    1  N   UNL     1      27.577  40.785  52.789  1.00  0.00    -0.261 N 
HETATM    2  H   UNL     1      26.939  40.189  53.324  1.00  0.00     0.191 HD
ENDROOT
BRANCH   1   3
HETATM    3  C   UNL     1      27.778  40.488  51.479  1.00  0.00     0.140 A 
HETATM    4  N   UNL     1      28.807  39.688  51.079  1.00  0.00    -0.261 N 
HETATM    5  N   UNL     1      28.865  39.482  49.756  1.00  0.00    -0.172 NA
HETATM    6  H   UNL     1      29.514  39.251  51.656  1.00  0.00     0.191 HD
HETATM    7  C   UNL     1      27.824  40.176  49.258  1.00  0.00     0.090 A 
HETATM    8  C   UNL     1      27.124  40.832  50.315  1.00  0.00     0.085 A 
BRANCH   7   9
HETATM    9  C   UNL     1      27.530  40.164  47.814  1.00  0.00    -0.006 A 
HETATM   10  C   UNL     1      26.425  39.444  47.325  1.00  0.00     0.014 A 
HETATM   11  C   UNL     1      26.086  39.464  45.968  1.00  0.00     0.007 A 
HETATM   12  C   UNL     1      26.849  40.203  45.060  1.00  0.00    -0.062 A 
HETATM   13  C   UNL     1      26.465  40.273  43.611  1.00  0.00     0.048 C 
HETATM   14  C   UNL     1      27.965  40.904  45.532  1.00  0.00     0.007 A 
HETATM   15  C   UNL     1      28.303  40.883  46.893  1.00  0.00     0.014 A 
ENDBRANCH   7   9
ENDBRANCH   1   3
BRANCH   1  16
HETATM   16  N   UNL     1      28.539  41.441  53.504  1.00  0.00    -0.166 NA
HETATM   17  C   UNL     1      28.436  42.733  53.655  1.00  0.00     0.169 C 
HETATM   18  C   UNL     1      29.431  43.469  54.534  1.00  0.00     0.278 C 
HETATM   19  C   UNL     1      27.393  43.556  52.986  1.00  0.00     0.067 C 
HETATM   20  O   UNL     1      30.477  42.920  54.866  1.00  0.00    -0.265 OA
HETATM   21  N   UNL     1      29.210  44.784  54.899  1.00  0.00    -0.319 N 
HETATM   22  C   UNL     1      28.118  45.678  54.739  1.00  0.00     0.064 A 
HETATM   23  H   UNL     1      30.012  45.147  55.403  1.00  0.00     0.169 HD
HETATM   24  C   UNL     1      26.843  45.347  54.220  1.00  0.00     0.084 A 
HETATM   25  C   UNL     1      28.351  46.999  55.156  1.00  0.00     0.032 A 
HETATM   26  C   UNL     1      25.841  46.325  54.168  1.00  0.00     0.034 A 
HETATM   27  N   UNL     1      26.510  44.051  53.791  1.00  0.00    -0.249 NA
HETATM   28  C   UNL     1      26.094  47.631  54.584  1.00  0.00     0.002 A 
HETATM   29  C   UNL     1      27.351  47.970  55.071  1.00  0.00     0.002 A 
HETATM   30  C   UNL     1      27.734  44.109  51.634  1.00  0.00     0.073 C 
ENDBRANCH   1  16
TORSDOF 3
ENDMDL
MODEL 9
REMARK VINA RESULT:      -8.7     13.409     14.583
REMARK  3 active torsions:
REMARK  status: ('A' for Active; 'I' for Inactive)
REMARK    1  A    between atoms: C_5  and  C_6 
REMARK    2  A    between atoms: C_10  and  N_11 
REMARK    3  A    between atoms: N_11  and  N_12 
ROOT
HETATM    1  N   UNL     1      35.387  52.002  42.556  1.00  0.00    -0.261 N 
HETATM    2  H   UNL     1      35.246  52.825  41.964  1.00  0.00     0.191 HD
ENDROOT
BRANCH   1   3
HETATM    3  C   UNL     1      36.474  51.982  43.371  1.00  0.00     0.140 A 
HETATM    4  N   UNL     1      37.259  50.873  43.484  1.00  0.00    -0.261 N 
HETATM    5  N   UNL     1      38.297  51.014  44.319  1.00  0.00    -0.172 NA
HETATM    6  H   UNL     1      37.142  49.980  43.023  1.00  0.00     0.191 HD
HETATM    7  C   UNL     1      38.197  52.276  44.777  1.00  0.00     0.090 A 
HETATM    8  C   UNL     1      37.051  52.911  44.208  1.00  0.00     0.085 A 
BRANCH   7   9
HETATM    9  C   UNL     1      39.199  52.824  45.708  1.00  0.00    -0.006 A 
HETATM   10  C   UNL     1      38.802  53.306  46.968  1.00  0.00     0.014 A 
HETATM   11  C   UNL     1      39.738  53.776  47.895  1.00  0.00     0.007 A 
HETATM   12  C   UNL     1      41.099  53.781  47.585  1.00  0.00    -0.062 A 
HETATM   13  C   UNL     1      42.117  54.234  48.591  1.00  0.00     0.048 C 
HETATM   14  C   UNL     1      41.504  53.325  46.324  1.00  0.00     0.007 A 
HETATM   15  C   UNL     1      40.564  52.854  45.395  1.00  0.00     0.014 A 
ENDBRANCH   7   9
ENDBRANCH   1   3
BRANCH   1  16
HETATM   16  N   UNL     1      34.834  50.833  42.114  1.00  0.00    -0.166 NA
HETATM   17  C   UNL     1      33.535  50.709  42.128  1.00  0.00     0.169 C 
HETATM   18  C   UNL     1      32.892  49.465  41.544  1.00  0.00     0.278 C 
HETATM   19  C   UNL     1      32.622  51.724  42.718  1.00  0.00     0.067 C 
HETATM   20  O   UNL     1      33.575  48.470  41.321  1.00  0.00    -0.265 OA
HETATM   21  N   UNL     1      31.527  49.411  41.332  1.00  0.00    -0.319 N 
HETATM   22  C   UNL     1      30.480  50.366  41.426  1.00  0.00     0.064 A 
HETATM   23  H   UNL     1      31.256  48.482  41.029  1.00  0.00     0.169 HD
HETATM   24  C   UNL     1      30.638  51.751  41.668  1.00  0.00     0.084 A 
HETATM   25  C   UNL     1      29.182  49.861  41.243  1.00  0.00     0.032 A 
HETATM   26  C   UNL     1      29.513  52.585  41.685  1.00  0.00     0.034 A 
HETATM   27  N   UNL     1      31.896  52.352  41.850  1.00  0.00    -0.249 NA
HETATM   28  C   UNL     1      28.233  52.064  41.503  1.00  0.00     0.002 A 
HETATM   29  C   UNL     1      28.066  50.700  41.290  1.00  0.00     0.002 A 
HETATM   30  C   UNL     1      32.287  51.569  44.171  1.00  0.00     0.073 C 
ENDBRANCH   1  16
TORSDOF 3
ENDMDL
MODEL 10
REMARK VINA RESULT:      -8.7      7.535      8.383
REMARK  3 active torsions:
REMARK  status: ('A' for Active; 'I' for Inactive)
REMARK    1  A    between atoms: C_5  and  C_6 
REMARK    2  A    between atoms: C_10  and  N_11 
REMARK    3  A    between atoms: N_11  and  N_12 
ROOT
HETATM    1  N   UNL     1      28.547  40.517  50.848  1.00  0.00    -0.261 N 
HETATM    2  H   UNL     1      28.103  39.623  51.075  1.00  0.00     0.191 HD
ENDROOT
BRANCH   1   3
HETATM    3  C   UNL     1      28.504  41.505  51.779  1.00  0.00     0.140 A 
HETATM    4  N   UNL     1      27.454  42.372  51.850  1.00  0.00    -0.261 N 
HETATM    5  N   UNL     1      27.554  43.283  52.827  1.00  0.00    -0.172 NA
HETATM    6  H   UNL     1      26.634  42.404  51.257  1.00  0.00     0.191 HD
HETATM    7  C   UNL     1      28.723  43.004  53.433  1.00  0.00     0.090 A 
HETATM    8  C   UNL     1      29.354  41.896  52.790  1.00  0.00     0.085 A 
BRANCH   7   9
HETATM    9  C   UNL     1      29.173  43.782  54.602  1.00  0.00    -0.006 A 
HETATM   10  C   UNL     1      30.339  43.407  55.291  1.00  0.00     0.014 A 
HETATM   11  C   UNL     1      30.823  44.161  56.366  1.00  0.00     0.007 A 
HETATM   12  C   UNL     1      30.149  45.310  56.783  1.00  0.00    -0.062 A 
HETATM   13  C   UNL     1      30.687  46.156  57.901  1.00  0.00     0.048 C 
HETATM   14  C   UNL     1      28.973  45.680  56.119  1.00  0.00     0.007 A 
HETATM   15  C   UNL     1      28.489  44.923  55.041  1.00  0.00     0.014 A 
ENDBRANCH   7   9
ENDBRANCH   1   3
BRANCH   1  16
HETATM   16  N   UNL     1      28.652  40.824  49.520  1.00  0.00    -0.166 NA
HETATM   17  C   UNL     1      27.595  40.712  48.764  1.00  0.00     0.169 C 
HETATM   18  C   UNL     1      27.659  41.149  47.313  1.00  0.00     0.278 C 
HETATM   19  C   UNL     1      26.305  40.145  49.240  1.00  0.00     0.067 C 
HETATM   20  O   UNL     1      28.747  41.336  46.777  1.00  0.00    -0.265 OA
HETATM   21  N   UNL     1      26.504  41.262  46.560  1.00  0.00    -0.319 N 
HETATM   22  C   UNL     1      25.120  41.175  46.865  1.00  0.00     0.064 A 
HETATM   23  H   UNL     1      26.735  41.470  45.594  1.00  0.00     0.169 HD
HETATM   24  C   UNL     1      24.561  41.056  48.160  1.00  0.00     0.084 A 
HETATM   25  C   UNL     1      24.253  41.228  45.761  1.00  0.00     0.032 A 
HETATM   26  C   UNL     1      23.169  41.031  48.314  1.00  0.00     0.034 A 
HETATM   27  N   UNL     1      25.345  41.009  49.325  1.00  0.00    -0.249 NA
HETATM   28  C   UNL     1      22.325  41.082  47.205  1.00  0.00     0.002 A 
HETATM   29  C   UNL     1      22.867  41.173  45.928  1.00  0.00     0.002 A 
HETATM   30  C   UNL     1      26.120  38.665  49.090  1.00  0.00     0.073 C 
ENDBRANCH   1  16
TORSDOF 3
ENDMDL
