MODEL 1
REMARK VINA RESULT:      -8.6      0.000      0.000
REMARK  5 active torsions:
REMARK  status: ('A' for Active; 'I' for Inactive)
REMARK    1  A    between atoms: O_2  and  C_3 
REMARK    2  A    between atoms: C_5  and  C_6 
REMARK    3  A    between atoms: C_10  and  C_11 
REMARK       I    between atoms: C_11  and  N_12 
REMARK    4  A    between atoms: N_12  and  C_13 
REMARK    5  A    between atoms: C_15  and  O_16 
ROOT
HETATM    1  C   UNL     1      24.678  46.758  50.723  1.00  0.00     0.063 A 
HETATM    2  N   UNL     1      23.995  45.567  50.756  1.00  0.00    -0.277 N 
HETATM    3  H   UNL     1      23.253  45.266  50.134  1.00  0.00     0.189 HD
HETATM    4  N   UNL     1      24.393  44.719  51.722  1.00  0.00    -0.169 NA
HETATM    5  C   UNL     1      25.400  45.374  52.332  1.00  0.00     0.147 A 
HETATM    6  C   UNL     1      25.602  46.648  51.745  1.00  0.00     0.071 A 
ENDROOT
BRANCH   5   7
HETATM    7  C   UNL     1      26.160  44.780  53.449  1.00  0.00     0.276 C 
HETATM    8  N   UNL     1      27.505  45.082  53.367  1.00  0.00    -0.322 N 
HETATM    9  H   UNL     1      27.742  45.633  52.544  1.00  0.00     0.169 HD
HETATM   10  O   UNL     1      25.606  44.113  54.315  1.00  0.00    -0.266 OA
BRANCH   8  11
HETATM   11  C   UNL     1      28.539  44.742  54.255  1.00  0.00     0.037 A 
HETATM   12  C   UNL     1      28.914  45.527  55.351  1.00  0.00     0.066 A 
HETATM   13  C   UNL     1      29.968  45.130  56.181  1.00  0.00     0.070 A 
HETATM   14  C   UNL     1      30.637  43.934  55.918  1.00  0.00     0.037 A 
HETATM   15  C   UNL     1      30.271  43.144  54.832  1.00  0.00     0.005 A 
HETATM   16  C   UNL     1      29.226  43.549  54.002  1.00  0.00     0.029 A 
BRANCH  13  17
HETATM   17  O   UNL     1      30.433  45.814  57.272  1.00  0.00    -0.356 OA
HETATM   18  C   UNL     1      31.016  45.040  58.315  1.00  0.00     0.210 C 
ENDBRANCH  13  17
ENDBRANCH   8  11
ENDBRANCH   5   7
BRANCH   1  19
HETATM   19  C   UNL     1      24.427  47.823  49.749  1.00  0.00    -0.005 A 
HETATM   20  C   UNL     1      23.129  48.027  49.247  1.00  0.00     0.050 A 
HETATM   21  C   UNL     1      22.864  49.041  48.323  1.00  0.00     0.069 A 
HETATM   22  C   UNL     1      23.904  49.866  47.897  1.00  0.00     0.037 A 
HETATM   23  C   UNL     1      25.198  49.677  48.377  1.00  0.00     0.004 A 
HETATM   24  C   UNL     1      25.459  48.658  49.296  1.00  0.00     0.014 A 
BRANCH  21  25
HETATM   25  O   UNL     1      21.646  49.329  47.770  1.00  0.00    -0.356 OA
HETATM   26  C   UNL     1      20.656  48.310  47.824  1.00  0.00     0.210 C 
ENDBRANCH  21  25
ENDBRANCH   1  19
TORSDOF 5
ENDMDL
MODEL 2
REMARK VINA RESULT:      -8.4      1.258      9.101
REMARK  5 active torsions:
REMARK  status: ('A' for Active; 'I' for Inactive)
REMARK    1  A    between atoms: O_2  and  C_3 
REMARK    2  A    between atoms: C_5  and  C_6 
REMARK    3  A    between atoms: C_10  and  C_11 
REMARK       I    between atoms: C_11  and  N_12 
REMARK    4  A    between atoms: N_12  and  C_13 
REMARK    5  A    between atoms: C_15  and  O_16 
ROOT
HETATM    1  C   UNL     1      27.040  44.497  53.299  1.00  0.00     0.063 A 
HETATM    2  N   UNL     1      25.878  43.794  53.494  1.00  0.00    -0.277 N 
HETATM    3  H   UNL     1      25.692  43.097  54.206  1.00  0.00     0.189 HD
HETATM    4  N   UNL     1      24.885  44.104  52.639  1.00  0.00    -0.169 NA
HETATM    5  C   UNL     1      25.415  45.073  51.866  1.00  0.00     0.147 A 
HETATM    6  C   UNL     1      26.756  45.339  52.241  1.00  0.00     0.071 A 
ENDROOT
BRANCH   5   7
HETATM    7  C   UNL     1      24.642  45.735  50.799  1.00  0.00     0.276 C 
HETATM    8  N   UNL     1      24.979  47.070  50.680  1.00  0.00    -0.322 N 
HETATM    9  H   UNL     1      25.676  47.368  51.359  1.00  0.00     0.169 HD
HETATM   10  O   UNL     1      23.817  45.121  50.131  1.00  0.00    -0.266 OA
BRANCH   8  11
HETATM   11  C   UNL     1      24.503  48.019  49.760  1.00  0.00     0.037 A 
HETATM   12  C   UNL     1      23.152  48.175  49.431  1.00  0.00     0.066 A 
HETATM   13  C   UNL     1      22.756  49.132  48.490  1.00  0.00     0.070 A 
HETATM   14  C   UNL     1      23.720  49.944  47.889  1.00  0.00     0.037 A 
HETATM   15  C   UNL     1      25.067  49.799  48.211  1.00  0.00     0.005 A 
HETATM   16  C   UNL     1      25.456  48.838  49.142  1.00  0.00     0.029 A 
BRANCH  13  17
HETATM   17  O   UNL     1      21.473  49.371  48.078  1.00  0.00    -0.356 OA
HETATM   18  C   UNL     1      20.481  48.440  48.496  1.00  0.00     0.210 C 
ENDBRANCH  13  17
ENDBRANCH   8  11
ENDBRANCH   5   7
BRANCH   1  19
HETATM   19  C   UNL     1      28.245  44.338  54.118  1.00  0.00    -0.005 A 
HETATM   20  C   UNL     1      28.531  45.265  55.137  1.00  0.00     0.050 A 
HETATM   21  C   UNL     1      29.670  45.131  55.935  1.00  0.00     0.069 A 
HETATM   22  C   UNL     1      30.533  44.056  55.719  1.00  0.00     0.037 A 
HETATM   23  C   UNL     1      30.271  43.131  54.712  1.00  0.00     0.004 A 
HETATM   24  C   UNL     1      29.134  43.273  53.913  1.00  0.00     0.014 A 
BRANCH  21  25
HETATM   25  O   UNL     1      30.046  45.968  56.950  1.00  0.00    -0.356 OA
HETATM   26  C   UNL     1      30.467  45.361  58.165  1.00  0.00     0.210 C 
ENDBRANCH  21  25
ENDBRANCH   1  19
TORSDOF 5
ENDMDL
MODEL 3
REMARK VINA RESULT:      -7.7      2.000      9.872
REMARK  5 active torsions:
REMARK  status: ('A' for Active; 'I' for Inactive)
REMARK    1  A    between atoms: O_2  and  C_3 
REMARK    2  A    between atoms: C_5  and  C_6 
REMARK    3  A    between atoms: C_10  and  C_11 
REMARK       I    between atoms: C_11  and  N_12 
REMARK    4  A    between atoms: N_12  and  C_13 
REMARK    5  A    between atoms: C_15  and  O_16 
ROOT
HETATM    1  C   UNL     1      25.679  45.908  51.559  1.00  0.00     0.063 A 
HETATM    2  N   UNL     1      24.809  45.219  50.751  1.00  0.00    -0.277 N 
HETATM    3  H   UNL     1      24.660  44.217  50.721  1.00  0.00     0.189 HD
HETATM    4  N   UNL     1      24.069  45.992  49.935  1.00  0.00    -0.169 NA
HETATM    5  C   UNL     1      24.455  47.246  50.241  1.00  0.00     0.147 A 
HETATM    6  C   UNL     1      25.460  47.235  51.241  1.00  0.00     0.071 A 
ENDROOT
BRANCH   5   7
HETATM    7  C   UNL     1      23.859  48.430  49.593  1.00  0.00     0.276 C 
HETATM    8  N   UNL     1      22.483  48.333  49.521  1.00  0.00    -0.322 N 
HETATM    9  H   UNL     1      22.124  47.459  49.899  1.00  0.00     0.169 HD
HETATM   10  O   UNL     1      24.555  49.357  49.192  1.00  0.00    -0.266 OA
BRANCH   8  11
HETATM   11  C   UNL     1      21.560  49.266  49.020  1.00  0.00     0.037 A 
HETATM   12  C   UNL     1      20.881  49.115  47.806  1.00  0.00     0.066 A 
HETATM   13  C   UNL     1      19.989  50.098  47.365  1.00  0.00     0.070 A 
HETATM   14  C   UNL     1      19.768  51.230  48.152  1.00  0.00     0.037 A 
HETATM   15  C   UNL     1      20.438  51.390  49.363  1.00  0.00     0.005 A 
HETATM   16  C   UNL     1      21.332  50.411  49.794  1.00  0.00     0.029 A 
BRANCH  13  17
HETATM   17  O   UNL     1      19.276  50.071  46.196  1.00  0.00    -0.356 OA
HETATM   18  C   UNL     1      18.519  48.895  45.934  1.00  0.00     0.210 C 
ENDBRANCH  13  17
ENDBRANCH   8  11
ENDBRANCH   5   7
BRANCH   1  19
HETATM   19  C   UNL     1      26.569  45.277  52.537  1.00  0.00    -0.005 A 
HETATM   20  C   UNL     1      26.865  45.933  53.746  1.00  0.00     0.050 A 
HETATM   21  C   UNL     1      27.706  45.349  54.696  1.00  0.00     0.069 A 
HETATM   22  C   UNL     1      28.257  44.093  54.441  1.00  0.00     0.037 A 
HETATM   23  C   UNL     1      27.982  43.430  53.247  1.00  0.00     0.004 A 
HETATM   24  C   UNL     1      27.145  44.021  52.298  1.00  0.00     0.014 A 
BRANCH  21  25
HETATM   25  O   UNL     1      28.061  45.892  55.901  1.00  0.00    -0.356 OA
HETATM   26  C   UNL     1      29.447  45.913  56.216  1.00  0.00     0.210 C 
ENDBRANCH  21  25
ENDBRANCH   1  19
TORSDOF 5
ENDMDL
MODEL 4
REMARK VINA RESULT:      -7.7      2.545      9.911
REMARK  5 active torsions:
REMARK  status: ('A' for Active; 'I' for Inactive)
REMARK    1  A    between atoms: O_2  and  C_3 
REMARK    2  A    between atoms: C_5  and  C_6 
REMARK    3  A    between atoms: C_10  and  C_11 
REMARK       I    between atoms: C_11  and  N_12 
REMARK    4  A    between atoms: N_12  and  C_13 
REMARK    5  A    between atoms: C_15  and  O_16 
ROOT
HETATM    1  C   UNL     1      25.709  45.877  51.358  1.00  0.00     0.063 A 
HETATM    2  N   UNL     1      24.758  45.223  50.615  1.00  0.00    -0.277 N 
HETATM    3  H   UNL     1      24.572  44.227  50.592  1.00  0.00     0.189 HD
HETATM    4  N   UNL     1      23.987  46.026  49.858  1.00  0.00    -0.169 NA
HETATM    5  C   UNL     1      24.438  47.265  50.140  1.00  0.00     0.147 A 
HETATM    6  C   UNL     1      25.514  47.212  51.062  1.00  0.00     0.071 A 
ENDROOT
BRANCH   5   7
HETATM    7  C   UNL     1      23.838  48.473  49.543  1.00  0.00     0.276 C 
HETATM    8  N   UNL     1      22.463  48.369  49.457  1.00  0.00    -0.322 N 
HETATM    9  H   UNL     1      22.109  47.476  49.792  1.00  0.00     0.169 HD
HETATM   10  O   UNL     1      24.529  49.422  49.188  1.00  0.00    -0.266 OA
BRANCH   8  11
HETATM   11  C   UNL     1      21.537  49.318  48.993  1.00  0.00     0.037 A 
HETATM   12  C   UNL     1      20.888  49.233  47.756  1.00  0.00     0.066 A 
HETATM   13  C   UNL     1      19.991  50.228  47.355  1.00  0.00     0.070 A 
HETATM   14  C   UNL     1      19.732  51.304  48.206  1.00  0.00     0.037 A 
HETATM   15  C   UNL     1      20.370  51.398  49.440  1.00  0.00     0.005 A 
HETATM   16  C   UNL     1      21.271  50.408  49.830  1.00  0.00     0.029 A 
BRANCH  13  17
HETATM   17  O   UNL     1      19.306  50.263  46.170  1.00  0.00    -0.356 OA
HETATM   18  C   UNL     1      17.944  50.672  46.227  1.00  0.00     0.210 C 
ENDBRANCH  13  17
ENDBRANCH   8  11
ENDBRANCH   5   7
BRANCH   1  19
HETATM   19  C   UNL     1      26.647  45.209  52.264  1.00  0.00    -0.005 A 
HETATM   20  C   UNL     1      27.460  44.163  51.790  1.00  0.00     0.050 A 
HETATM   21  C   UNL     1      28.367  43.516  52.633  1.00  0.00     0.069 A 
HETATM   22  C   UNL     1      28.469  43.919  53.965  1.00  0.00     0.037 A 
HETATM   23  C   UNL     1      27.669  44.948  54.455  1.00  0.00     0.004 A 
HETATM   24  C   UNL     1      26.760  45.588  53.609  1.00  0.00     0.014 A 
BRANCH  21  25
HETATM   25  O   UNL     1      29.203  42.492  52.282  1.00  0.00    -0.356 OA
HETATM   26  C   UNL     1      28.766  41.171  52.577  1.00  0.00     0.210 C 
ENDBRANCH  21  25
ENDBRANCH   1  19
TORSDOF 5
ENDMDL
MODEL 5
REMARK VINA RESULT:      -7.6      2.706      9.767
REMARK  5 active torsions:
REMARK  status: ('A' for Active; 'I' for Inactive)
REMARK    1  A    between atoms: O_2  and  C_3 
REMARK    2  A    between atoms: C_5  and  C_6 
REMARK    3  A    between atoms: C_10  and  C_11 
REMARK       I    between atoms: C_11  and  N_12 
REMARK    4  A    between atoms: N_12  and  C_13 
REMARK    5  A    between atoms: C_15  and  O_16 
ROOT
HETATM    1  C   UNL     1      24.909  45.939  50.537  1.00  0.00     0.063 A 
HETATM    2  N   UNL     1      24.048  45.175  49.789  1.00  0.00    -0.277 N 
HETATM    3  H   UNL     1      23.994  44.164  49.755  1.00  0.00     0.189 HD
HETATM    4  N   UNL     1      23.175  45.879  49.044  1.00  0.00    -0.169 NA
HETATM    5  C   UNL     1      23.462  47.163  49.338  1.00  0.00     0.147 A 
HETATM    6  C   UNL     1      24.540  47.241  50.257  1.00  0.00     0.071 A 
ENDROOT
BRANCH   5   7
HETATM    7  C   UNL     1      22.707  48.289  48.757  1.00  0.00     0.276 C 
HETATM    8  N   UNL     1      21.692  48.708  49.595  1.00  0.00    -0.322 N 
HETATM    9  H   UNL     1      21.624  48.156  50.447  1.00  0.00     0.169 HD
HETATM   10  O   UNL     1      22.996  48.754  47.660  1.00  0.00    -0.266 OA
BRANCH   8  11
HETATM   11  C   UNL     1      20.789  49.770  49.420  1.00  0.00     0.037 A 
HETATM   12  C   UNL     1      19.513  49.810  49.993  1.00  0.00     0.066 A 
HETATM   13  C   UNL     1      18.663  50.895  49.758  1.00  0.00     0.070 A 
HETATM   14  C   UNL     1      19.101  51.951  48.956  1.00  0.00     0.037 A 
HETATM   15  C   UNL     1      20.369  51.922  48.381  1.00  0.00     0.005 A 
HETATM   16  C   UNL     1      21.209  50.833  48.612  1.00  0.00     0.029 A 
BRANCH  13  17
HETATM   17  O   UNL     1      17.394  51.044  50.251  1.00  0.00    -0.356 OA
HETATM   18  C   UNL     1      16.720  52.257  49.933  1.00  0.00     0.210 C 
ENDBRANCH  13  17
ENDBRANCH   8  11
ENDBRANCH   5   7
BRANCH   1  19
HETATM   19  C   UNL     1      25.930  45.391  51.433  1.00  0.00    -0.005 A 
HETATM   20  C   UNL     1      26.009  45.834  52.766  1.00  0.00     0.050 A 
HETATM   21  C   UNL     1      26.970  45.320  53.640  1.00  0.00     0.069 A 
HETATM   22  C   UNL     1      27.861  44.349  53.183  1.00  0.00     0.037 A 
HETATM   23  C   UNL     1      27.804  43.902  51.865  1.00  0.00     0.004 A 
HETATM   24  C   UNL     1      26.845  44.423  50.994  1.00  0.00     0.014 A 
BRANCH  21  25
HETATM   25  O   UNL     1      27.138  45.675  54.951  1.00  0.00    -0.356 OA
HETATM   26  C   UNL     1      27.920  46.834  55.211  1.00  0.00     0.210 C 
ENDBRANCH  21  25
ENDBRANCH   1  19
TORSDOF 5
ENDMDL
MODEL 6
REMARK VINA RESULT:      -7.6      3.071      5.311
REMARK  5 active torsions:
REMARK  status: ('A' for Active; 'I' for Inactive)
REMARK    1  A    between atoms: O_2  and  C_3 
REMARK    2  A    between atoms: C_5  and  C_6 
REMARK    3  A    between atoms: C_10  and  C_11 
REMARK       I    between atoms: C_11  and  N_12 
REMARK    4  A    between atoms: N_12  and  C_13 
REMARK    5  A    between atoms: C_15  and  O_16 
ROOT
HETATM    1  C   UNL     1      22.090  50.118  48.235  1.00  0.00     0.063 A 
HETATM    2  N   UNL     1      23.155  50.377  47.409  1.00  0.00    -0.277 N 
HETATM    3  H   UNL     1      23.174  50.993  46.604  1.00  0.00     0.189 HD
HETATM    4  N   UNL     1      24.294  49.743  47.746  1.00  0.00    -0.169 NA
HETATM    5  C   UNL     1      23.964  49.057  48.858  1.00  0.00     0.147 A 
HETATM    6  C   UNL     1      22.600  49.258  49.189  1.00  0.00     0.071 A 
ENDROOT
BRANCH   5   7
HETATM    7  C   UNL     1      24.945  48.236  49.593  1.00  0.00     0.276 C 
HETATM    8  N   UNL     1      24.349  47.527  50.618  1.00  0.00    -0.322 N 
HETATM    9  H   UNL     1      23.352  47.713  50.705  1.00  0.00     0.169 HD
HETATM   10  O   UNL     1      26.130  48.224  49.281  1.00  0.00    -0.266 OA
BRANCH   8  11
HETATM   11  C   UNL     1      24.932  46.609  51.508  1.00  0.00     0.037 A 
HETATM   12  C   UNL     1      25.744  46.977  52.586  1.00  0.00     0.066 A 
HETATM   13  C   UNL     1      26.304  46.002  53.418  1.00  0.00     0.070 A 
HETATM   14  C   UNL     1      26.036  44.654  53.175  1.00  0.00     0.037 A 
HETATM   15  C   UNL     1      25.227  44.276  52.107  1.00  0.00     0.005 A 
HETATM   16  C   UNL     1      24.679  45.252  51.275  1.00  0.00     0.029 A 
BRANCH  13  17
HETATM   17  O   UNL     1      27.121  46.235  54.492  1.00  0.00    -0.356 OA
HETATM   18  C   UNL     1      28.020  45.193  54.853  1.00  0.00     0.210 C 
ENDBRANCH  13  17
ENDBRANCH   8  11
ENDBRANCH   5   7
BRANCH   1  19
HETATM   19  C   UNL     1      20.759  50.708  48.071  1.00  0.00    -0.005 A 
HETATM   20  C   UNL     1      19.941  50.312  46.997  1.00  0.00     0.050 A 
HETATM   21  C   UNL     1      18.665  50.856  46.825  1.00  0.00     0.069 A 
HETATM   22  C   UNL     1      18.196  51.803  47.735  1.00  0.00     0.037 A 
HETATM   23  C   UNL     1      18.994  52.213  48.801  1.00  0.00     0.004 A 
HETATM   24  C   UNL     1      20.270  51.670  48.966  1.00  0.00     0.014 A 
BRANCH  21  25
HETATM   25  O   UNL     1      17.786  50.546  45.822  1.00  0.00    -0.356 OA
HETATM   26  C   UNL     1      17.938  51.244  44.593  1.00  0.00     0.210 C 
ENDBRANCH  21  25
ENDBRANCH   1  19
TORSDOF 5
ENDMDL
MODEL 7
REMARK VINA RESULT:      -7.5      5.774      9.339
REMARK  5 active torsions:
REMARK  status: ('A' for Active; 'I' for Inactive)
REMARK    1  A    between atoms: O_2  and  C_3 
REMARK    2  A    between atoms: C_5  and  C_6 
REMARK    3  A    between atoms: C_10  and  C_11 
REMARK       I    between atoms: C_11  and  N_12 
REMARK    4  A    between atoms: N_12  and  C_13 
REMARK    5  A    between atoms: C_15  and  O_16 
ROOT
HETATM    1  C   UNL     1      29.072  42.722  53.473  1.00  0.00     0.063 A 
HETATM    2  N   UNL     1      29.132  41.357  53.603  1.00  0.00    -0.277 N 
HETATM    3  H   UNL     1      29.428  40.829  54.416  1.00  0.00     0.189 HD
HETATM    4  N   UNL     1      28.727  40.671  52.518  1.00  0.00    -0.169 NA
HETATM    5  C   UNL     1      28.360  41.632  51.647  1.00  0.00     0.147 A 
HETATM    6  C   UNL     1      28.567  42.921  52.201  1.00  0.00     0.071 A 
ENDROOT
BRANCH   5   7
HETATM    7  C   UNL     1      27.810  41.315  50.316  1.00  0.00     0.276 C 
HETATM    8  N   UNL     1      28.640  40.465  49.611  1.00  0.00    -0.322 N 
HETATM    9  H   UNL     1      29.491  40.228  50.117  1.00  0.00     0.169 HD
HETATM   10  O   UNL     1      26.740  41.780  49.939  1.00  0.00    -0.266 OA
BRANCH   8  11
HETATM   11  C   UNL     1      28.448  39.903  48.338  1.00  0.00     0.037 A 
HETATM   12  C   UNL     1      28.515  38.531  48.074  1.00  0.00     0.066 A 
HETATM   13  C   UNL     1      28.330  38.047  46.775  1.00  0.00     0.070 A 
HETATM   14  C   UNL     1      28.064  38.945  45.739  1.00  0.00     0.037 A 
HETATM   15  C   UNL     1      27.994  40.313  45.990  1.00  0.00     0.005 A 
HETATM   16  C   UNL     1      28.187  40.789  47.286  1.00  0.00     0.029 A 
BRANCH  13  17
HETATM   17  O   UNL     1      28.382  36.734  46.390  1.00  0.00    -0.356 OA
HETATM   18  C   UNL     1      27.205  35.960  46.591  1.00  0.00     0.210 C 
ENDBRANCH  13  17
ENDBRANCH   8  11
ENDBRANCH   5   7
BRANCH   1  19
HETATM   19  C   UNL     1      29.447  43.667  54.527  1.00  0.00    -0.005 A 
HETATM   20  C   UNL     1      28.640  44.791  54.785  1.00  0.00     0.050 A 
HETATM   21  C   UNL     1      28.974  45.702  55.791  1.00  0.00     0.069 A 
HETATM   22  C   UNL     1      30.123  45.490  56.552  1.00  0.00     0.037 A 
HETATM   23  C   UNL     1      30.939  44.387  56.308  1.00  0.00     0.004 A 
HETATM   24  C   UNL     1      30.604  43.482  55.298  1.00  0.00     0.014 A 
BRANCH  21  25
HETATM   25  O   UNL     1      28.267  46.824  56.128  1.00  0.00    -0.356 OA
HETATM   26  C   UNL     1      27.485  47.426  55.104  1.00  0.00     0.210 C 
ENDBRANCH  21  25
ENDBRANCH   1  19
TORSDOF 5
ENDMDL
MODEL 8
REMARK VINA RESULT:      -7.2      5.670      9.445
REMARK  5 active torsions:
REMARK  status: ('A' for Active; 'I' for Inactive)
REMARK    1  A    between atoms: O_2  and  C_3 
REMARK    2  A    between atoms: C_5  and  C_6 
REMARK    3  A    between atoms: C_10  and  C_11 
REMARK       I    between atoms: C_11  and  N_12 
REMARK    4  A    between atoms: N_12  and  C_13 
REMARK    5  A    between atoms: C_15  and  O_16 
ROOT
HETATM    1  C   UNL     1      28.242  43.194  52.984  1.00  0.00     0.063 A 
HETATM    2  N   UNL     1      27.169  43.899  52.499  1.00  0.00    -0.277 N 
HETATM    3  H   UNL     1      26.824  44.795  52.823  1.00  0.00     0.189 HD
HETATM    4  N   UNL     1      26.539  43.319  51.460  1.00  0.00    -0.169 NA
HETATM    5  C   UNL     1      27.249  42.194  51.240  1.00  0.00     0.147 A 
HETATM    6  C   UNL     1      28.311  42.077  52.173  1.00  0.00     0.071 A 
ENDROOT
BRANCH   5   7
HETATM    7  C   UNL     1      26.919  41.259  50.148  1.00  0.00     0.276 C 
HETATM    8  N   UNL     1      28.046  40.882  49.443  1.00  0.00    -0.322 N 
HETATM    9  H   UNL     1      28.895  41.331  49.778  1.00  0.00     0.169 HD
HETATM   10  O   UNL     1      25.766  40.896  49.944  1.00  0.00    -0.266 OA
BRANCH   8  11
HETATM   11  C   UNL     1      28.152  39.980  48.371  1.00  0.00     0.037 A 
HETATM   12  C   UNL     1      27.884  40.317  47.040  1.00  0.00     0.066 A 
HETATM   13  C   UNL     1      27.994  39.357  46.028  1.00  0.00     0.070 A 
HETATM   14  C   UNL     1      28.389  38.058  46.354  1.00  0.00     0.037 A 
HETATM   15  C   UNL     1      28.659  37.712  47.675  1.00  0.00     0.005 A 
HETATM   16  C   UNL     1      28.539  38.670  48.680  1.00  0.00     0.029 A 
BRANCH  13  17
HETATM   17  O   UNL     1      27.750  39.561  44.697  1.00  0.00    -0.356 OA
HETATM   18  C   UNL     1      28.613  38.901  43.777  1.00  0.00     0.210 C 
ENDBRANCH  13  17
ENDBRANCH   8  11
ENDBRANCH   5   7
BRANCH   1  19
HETATM   19  C   UNL     1      29.084  43.640  54.097  1.00  0.00    -0.005 A 
HETATM   20  C   UNL     1      28.693  44.743  54.878  1.00  0.00     0.050 A 
HETATM   21  C   UNL     1      29.476  45.182  55.948  1.00  0.00     0.069 A 
HETATM   22  C   UNL     1      30.662  44.512  56.248  1.00  0.00     0.037 A 
HETATM   23  C   UNL     1      31.070  43.422  55.483  1.00  0.00     0.004 A 
HETATM   24  C   UNL     1      30.287  42.990  54.410  1.00  0.00     0.014 A 
BRANCH  21  25
HETATM   25  O   UNL     1      29.195  46.238  56.772  1.00  0.00    -0.356 OA
HETATM   26  C   UNL     1      29.621  46.133  58.124  1.00  0.00     0.210 C 
ENDBRANCH  21  25
ENDBRANCH   1  19
TORSDOF 5
ENDMDL
MODEL 9
REMARK VINA RESULT:      -7.1      3.336      9.437
REMARK  5 active torsions:
REMARK  status: ('A' for Active; 'I' for Inactive)
REMARK    1  A    between atoms: O_2  and  C_3 
REMARK    2  A    between atoms: C_5  and  C_6 
REMARK    3  A    between atoms: C_10  and  C_11 
REMARK       I    between atoms: C_11  and  N_12 
REMARK    4  A    between atoms: N_12  and  C_13 
REMARK    5  A    between atoms: C_15  and  O_16 
ROOT
HETATM    1  C   UNL     1      28.150  43.397  53.026  1.00  0.00     0.063 A 
HETATM    2  N   UNL     1      27.864  42.054  53.009  1.00  0.00    -0.277 N 
HETATM    3  H   UNL     1      28.030  41.380  53.747  1.00  0.00     0.189 HD
HETATM    4  N   UNL     1      27.279  41.619  51.877  1.00  0.00    -0.169 NA
HETATM    5  C   UNL     1      27.154  42.735  51.130  1.00  0.00     0.147 A 
HETATM    6  C   UNL     1      27.691  43.858  51.807  1.00  0.00     0.071 A 
ENDROOT
BRANCH   5   7
HETATM    7  C   UNL     1      26.519  42.719  49.798  1.00  0.00     0.276 C 
HETATM    8  N   UNL     1      25.189  43.088  49.864  1.00  0.00    -0.322 N 
HETATM    9  H   UNL     1      24.874  43.278  50.813  1.00  0.00     0.169 HD
HETATM   10  O   UNL     1      27.150  42.411  48.793  1.00  0.00    -0.266 OA
BRANCH   8  11
HETATM   11  C   UNL     1      24.265  43.237  48.817  1.00  0.00     0.037 A 
HETATM   12  C   UNL     1      23.879  44.473  48.288  1.00  0.00     0.066 A 
HETATM   13  C   UNL     1      22.938  44.542  47.256  1.00  0.00     0.070 A 
HETATM   14  C   UNL     1      22.392  43.363  46.743  1.00  0.00     0.037 A 
HETATM   15  C   UNL     1      22.770  42.127  47.261  1.00  0.00     0.005 A 
HETATM   16  C   UNL     1      23.702  42.065  48.296  1.00  0.00     0.029 A 
BRANCH  13  17
HETATM   17  O   UNL     1      22.473  45.687  46.666  1.00  0.00    -0.356 OA
HETATM   18  C   UNL     1      21.913  46.671  47.528  1.00  0.00     0.210 C 
ENDBRANCH  13  17
ENDBRANCH   8  11
ENDBRANCH   5   7
BRANCH   1  19
HETATM   19  C   UNL     1      28.770  44.091  54.157  1.00  0.00    -0.005 A 
HETATM   20  C   UNL     1      29.894  43.534  54.794  1.00  0.00     0.050 A 
HETATM   21  C   UNL     1      30.507  44.181  55.871  1.00  0.00     0.069 A 
HETATM   22  C   UNL     1      29.997  45.401  56.315  1.00  0.00     0.037 A 
HETATM   23  C   UNL     1      28.881  45.966  55.702  1.00  0.00     0.004 A 
HETATM   24  C   UNL     1      28.269  45.312  54.631  1.00  0.00     0.014 A 
BRANCH  21  25
HETATM   25  O   UNL     1      31.600  43.735  56.563  1.00  0.00    -0.356 OA
HETATM   26  C   UNL     1      31.733  44.171  57.909  1.00  0.00     0.210 C 
ENDBRANCH  21  25
ENDBRANCH   1  19
TORSDOF 5
ENDMDL
MODEL 10
REMARK VINA RESULT:      -7.0      4.897      9.564
REMARK  5 active torsions:
REMARK  status: ('A' for Active; 'I' for Inactive)
REMARK    1  A    between atoms: O_2  and  C_3 
REMARK    2  A    between atoms: C_5  and  C_6 
REMARK    3  A    between atoms: C_10  and  C_11 
REMARK       I    between atoms: C_11  and  N_12 
REMARK    4  A    between atoms: N_12  and  C_13 
REMARK    5  A    between atoms: C_15  and  O_16 
ROOT
HETATM    1  C   UNL     1      28.228  43.528  53.271  1.00  0.00     0.063 A 
HETATM    2  N   UNL     1      28.054  42.169  53.344  1.00  0.00    -0.277 N 
HETATM    3  H   UNL     1      28.248  41.566  54.136  1.00  0.00     0.189 HD
HETATM    4  N   UNL     1      27.548  41.606  52.231  1.00  0.00    -0.169 NA
HETATM    5  C   UNL     1      27.359  42.650  51.400  1.00  0.00     0.147 A 
HETATM    6  C   UNL     1      27.777  43.861  52.007  1.00  0.00     0.071 A 
ENDROOT
BRANCH   5   7
HETATM    7  C   UNL     1      26.776  42.486  50.054  1.00  0.00     0.276 C 
HETATM    8  N   UNL     1      25.893  41.425  50.008  1.00  0.00    -0.322 N 
HETATM    9  H   UNL     1      25.818  40.929  50.894  1.00  0.00     0.169 HD
HETATM   10  O   UNL     1      27.078  43.234  49.131  1.00  0.00    -0.266 OA
BRANCH   8  11
HETATM   11  C   UNL     1      25.109  40.978  48.931  1.00  0.00     0.037 A 
HETATM   12  C   UNL     1      25.545  40.042  47.987  1.00  0.00     0.066 A 
HETATM   13  C   UNL     1      24.712  39.660  46.930  1.00  0.00     0.070 A 
HETATM   14  C   UNL     1      23.433  40.209  46.829  1.00  0.00     0.037 A 
HETATM   15  C   UNL     1      22.988  41.140  47.765  1.00  0.00     0.005 A 
HETATM   16  C   UNL     1      23.826  41.524  48.811  1.00  0.00     0.029 A 
BRANCH  13  17
HETATM   17  O   UNL     1      25.027  38.766  45.941  1.00  0.00    -0.356 OA
HETATM   18  C   UNL     1      26.407  38.471  45.758  1.00  0.00     0.210 C 
ENDBRANCH  13  17
ENDBRANCH   8  11
ENDBRANCH   5   7
BRANCH   1  19
HETATM   19  C   UNL     1      28.748  44.352  54.365  1.00  0.00    -0.005 A 
HETATM   20  C   UNL     1      29.884  43.935  55.081  1.00  0.00     0.050 A 
HETATM   21  C   UNL     1      30.402  44.707  56.125  1.00  0.00     0.069 A 
HETATM   22  C   UNL     1      29.783  45.913  56.455  1.00  0.00     0.037 A 
HETATM   23  C   UNL     1      28.653  46.340  55.762  1.00  0.00     0.004 A 
HETATM   24  C   UNL     1      28.136  45.562  54.724  1.00  0.00     0.014 A 
BRANCH  21  25
HETATM   25  O   UNL     1      31.497  44.401  56.886  1.00  0.00    -0.356 OA
HETATM   26  C   UNL     1      31.718  43.027  57.177  1.00  0.00     0.210 C 
ENDBRANCH  21  25
ENDBRANCH   1  19
TORSDOF 5
ENDMDL
