MODEL 1
REMARK VINA RESULT:      -9.2      0.000      0.000
REMARK  7 active torsions:
REMARK  status: ('A' for Active; 'I' for Inactive)
REMARK    1  A    between atoms: C_2  and  C_3 
REMARK       I    between atoms: C_3  and  N_4 
REMARK    2  A    between atoms: N_7  and  C_8 
REMARK    3  A    between atoms: C_12  and  N_13 
REMARK    4  A    between atoms: N_13  and  C_14 
REMARK    5  A    between atoms: C_14  and  N_15 
REMARK       I    between atoms: N_15  and  C_16 
REMARK    6  A    between atoms: C_16  and  C_17 
REMARK    7  A    between atoms: C_18  and  O_19 
ROOT
HETATM    1  C   UNL     1      23.124  47.285  49.207  1.00  0.00     0.052 A 
HETATM    2  C   UNL     1      23.093  45.889  49.035  1.00  0.00     0.062 A 
HETATM    3 CL   UNL     1      21.643  45.007  48.684  1.00  0.00    -0.082 Cl
HETATM    4  C   UNL     1      24.254  45.114  49.189  1.00  0.00     0.055 A 
HETATM    5  C   UNL     1      25.472  45.698  49.524  1.00  0.00     0.036 A 
HETATM    6  C   UNL     1      25.485  47.059  49.828  1.00  0.00     0.032 A 
HETATM    7  C   UNL     1      24.332  47.838  49.665  1.00  0.00     0.033 A 
ENDROOT
BRANCH   5   8
HETATM    8  N   UNL     1      26.705  45.014  49.591  1.00  0.00    -0.333 N 
HETATM    9  H   UNL     1      27.392  45.293  48.887  1.00  0.00     0.168 HD
BRANCH   8  10
HETATM   10  C   UNL     1      27.105  43.917  50.322  1.00  0.00     0.179 C 
HETATM   11  S   UNL     1      27.103  42.296  49.916  1.00  0.00    -0.040 SA
BRANCH  10  12
HETATM   12  N   UNL     1      27.615  44.210  51.574  1.00  0.00    -0.299 N 
HETATM   13  C   UNL     1      26.970  44.639  52.725  1.00  0.00     0.260 C 
HETATM   14  O   UNL     1      25.778  44.921  52.781  1.00  0.00    -0.267 OA
HETATM   15  H   UNL     1      28.619  44.072  51.635  1.00  0.00     0.171 HD
BRANCH  13  16
HETATM   16  C   UNL     1      27.857  44.828  53.900  1.00  0.00     0.066 A 
HETATM   17  C   UNL     1      28.879  43.920  54.225  1.00  0.00     0.089 A 
HETATM   18  C   UNL     1      29.786  44.206  55.256  1.00  0.00    -0.028 A 
HETATM   19  C   UNL     1      30.937  43.287  55.556  1.00  0.00     0.051 C 
HETATM   20  C   UNL     1      29.627  45.394  55.986  1.00  0.00     0.009 A 
HETATM   21  C   UNL     1      28.579  46.271  55.701  1.00  0.00     0.002 A 
HETATM   22  C   UNL     1      27.692  45.990  54.661  1.00  0.00     0.020 A 
BRANCH  17  23
HETATM   23  O   UNL     1      29.062  42.760  53.513  1.00  0.00    -0.354 OA
HETATM   24  C   UNL     1      28.162  41.737  53.961  1.00  0.00     0.210 C 
ENDBRANCH  17  23
ENDBRANCH  13  16
ENDBRANCH  10  12
ENDBRANCH   8  10
ENDBRANCH   5   8
BRANCH   1  25
HETATM   25  N   UNL     1      22.101  48.194  48.919  1.00  0.00    -0.376 N 
HETATM   26  C   UNL     1      21.557  48.129  47.549  1.00  0.00     0.143 C 
HETATM   27  C   UNL     1      20.187  48.841  47.497  1.00  0.00     0.145 C 
HETATM   28  N   UNL     1      20.191  50.176  48.119  1.00  0.00    -0.349 N 
HETATM   29  C   UNL     1      19.239  51.096  47.693  1.00  0.00     0.219 C 
HETATM   30  C   UNL     1      20.861  50.252  49.429  1.00  0.00     0.145 C 
HETATM   31  O   UNL     1      18.498  50.871  46.735  1.00  0.00    -0.273 OA
HETATM   32  C   UNL     1      22.241  49.576  49.410  1.00  0.00     0.143 C 
BRANCH  29  33
HETATM   33  C   UNL     1      19.175  52.413  48.454  1.00  0.00     0.098 C 
HETATM   34  C   UNL     1      17.963  52.509  49.364  1.00  0.00     0.014 C 
ENDBRANCH  29  33
ENDBRANCH   1  25
TORSDOF 7
ENDMDL
MODEL 2
REMARK VINA RESULT:      -9.1      1.882      3.032
REMARK  7 active torsions:
REMARK  status: ('A' for Active; 'I' for Inactive)
REMARK    1  A    between atoms: C_2  and  C_3 
REMARK       I    between atoms: C_3  and  N_4 
REMARK    2  A    between atoms: N_7  and  C_8 
REMARK    3  A    between atoms: C_12  and  N_13 
REMARK    4  A    between atoms: N_13  and  C_14 
REMARK    5  A    between atoms: C_14  and  N_15 
REMARK       I    between atoms: N_15  and  C_16 
REMARK    6  A    between atoms: C_16  and  C_17 
REMARK    7  A    between atoms: C_18  and  O_19 
ROOT
HETATM    1  C   UNL     1      23.916  45.174  49.474  1.00  0.00     0.052 A 
HETATM    2  C   UNL     1      24.070  44.034  48.663  1.00  0.00     0.062 A 
HETATM    3 CL   UNL     1      23.515  43.952  47.024  1.00  0.00    -0.082 Cl
HETATM    4  C   UNL     1      24.651  42.859  49.168  1.00  0.00     0.055 A 
HETATM    5  C   UNL     1      25.089  42.779  50.487  1.00  0.00     0.036 A 
HETATM    6  C   UNL     1      24.819  43.854  51.333  1.00  0.00     0.032 A 
HETATM    7  C   UNL     1      24.250  45.032  50.832  1.00  0.00     0.033 A 
ENDROOT
BRANCH   5   8
HETATM    8  N   UNL     1      25.780  41.681  51.044  1.00  0.00    -0.333 N 
HETATM    9  H   UNL     1      25.191  41.009  51.542  1.00  0.00     0.168 HD
BRANCH   8  10
HETATM   10  C   UNL     1      27.125  41.427  51.193  1.00  0.00     0.179 C 
HETATM   11  S   UNL     1      28.114  40.359  50.370  1.00  0.00    -0.040 SA
BRANCH  10  12
HETATM   12  N   UNL     1      27.759  42.198  52.149  1.00  0.00    -0.299 N 
HETATM   13  C   UNL     1      28.324  41.832  53.363  1.00  0.00     0.260 C 
HETATM   14  O   UNL     1      28.268  40.701  53.835  1.00  0.00    -0.267 OA
HETATM   15  H   UNL     1      27.813  43.180  51.896  1.00  0.00     0.171 HD
BRANCH  13  16
HETATM   16  C   UNL     1      28.945  42.947  54.120  1.00  0.00     0.066 A 
HETATM   17  C   UNL     1      28.266  44.147  54.385  1.00  0.00     0.089 A 
HETATM   18  C   UNL     1      28.833  45.118  55.225  1.00  0.00    -0.028 A 
HETATM   19  C   UNL     1      28.079  46.367  55.588  1.00  0.00     0.051 C 
HETATM   20  C   UNL     1      30.109  44.887  55.759  1.00  0.00     0.009 A 
HETATM   21  C   UNL     1      30.810  43.718  55.452  1.00  0.00     0.002 A 
HETATM   22  C   UNL     1      30.232  42.749  54.632  1.00  0.00     0.020 A 
BRANCH  17  23
HETATM   23  O   UNL     1      27.009  44.386  53.885  1.00  0.00    -0.354 OA
HETATM   24  C   UNL     1      26.002  43.886  54.775  1.00  0.00     0.210 C 
ENDBRANCH  17  23
ENDBRANCH  13  16
ENDBRANCH  10  12
ENDBRANCH   8  10
ENDBRANCH   5   8
BRANCH   1  25
HETATM   25  N   UNL     1      23.522  46.452  49.067  1.00  0.00    -0.376 N 
HETATM   26  C   UNL     1      24.180  47.574  49.763  1.00  0.00     0.143 C 
HETATM   27  C   UNL     1      24.000  48.873  48.944  1.00  0.00     0.145 C 
HETATM   28  N   UNL     1      22.611  49.113  48.516  1.00  0.00    -0.349 N 
HETATM   29  C   UNL     1      22.227  50.425  48.261  1.00  0.00     0.219 C 
HETATM   30  C   UNL     1      21.922  47.942  47.948  1.00  0.00     0.145 C 
HETATM   31  O   UNL     1      22.964  51.381  48.508  1.00  0.00    -0.273 OA
HETATM   32  C   UNL     1      22.089  46.693  48.827  1.00  0.00     0.143 C 
BRANCH  29  33
HETATM   33  C   UNL     1      20.834  50.627  47.681  1.00  0.00     0.098 C 
HETATM   34  C   UNL     1      20.028  51.672  48.434  1.00  0.00     0.014 C 
ENDBRANCH  29  33
ENDBRANCH   1  25
TORSDOF 7
ENDMDL
MODEL 3
REMARK VINA RESULT:      -8.6      2.375      3.158
REMARK  7 active torsions:
REMARK  status: ('A' for Active; 'I' for Inactive)
REMARK    1  A    between atoms: C_2  and  C_3 
REMARK       I    between atoms: C_3  and  N_4 
REMARK    2  A    between atoms: N_7  and  C_8 
REMARK    3  A    between atoms: C_12  and  N_13 
REMARK    4  A    between atoms: N_13  and  C_14 
REMARK    5  A    between atoms: C_14  and  N_15 
REMARK       I    between atoms: N_15  and  C_16 
REMARK    6  A    between atoms: C_16  and  C_17 
REMARK    7  A    between atoms: C_18  and  O_19 
ROOT
HETATM    1  C   UNL     1      21.310  49.028  48.732  1.00  0.00     0.052 A 
HETATM    2  C   UNL     1      22.503  49.771  48.799  1.00  0.00     0.062 A 
HETATM    3 CL   UNL     1      22.570  51.484  48.544  1.00  0.00    -0.082 Cl
HETATM    4  C   UNL     1      23.737  49.142  49.033  1.00  0.00     0.055 A 
HETATM    5  C   UNL     1      23.823  47.763  49.199  1.00  0.00     0.036 A 
HETATM    6  C   UNL     1      22.669  47.005  49.001  1.00  0.00     0.032 A 
HETATM    7  C   UNL     1      21.435  47.629  48.780  1.00  0.00     0.033 A 
ENDROOT
BRANCH   5   8
HETATM    8  N   UNL     1      24.999  47.063  49.545  1.00  0.00    -0.333 N 
HETATM    9  H   UNL     1      24.880  46.054  49.668  1.00  0.00     0.168 HD
BRANCH   8  10
HETATM   10  C   UNL     1      26.250  47.502  49.916  1.00  0.00     0.179 C 
HETATM   11  S   UNL     1      27.300  48.543  49.135  1.00  0.00    -0.040 SA
BRANCH  10  12
HETATM   12  N   UNL     1      26.690  47.032  51.141  1.00  0.00    -0.299 N 
HETATM   13  C   UNL     1      26.082  47.079  52.387  1.00  0.00     0.260 C 
HETATM   14  O   UNL     1      25.025  47.657  52.616  1.00  0.00    -0.267 OA
HETATM   15  H   UNL     1      27.598  46.581  51.090  1.00  0.00     0.171 HD
BRANCH  13  16
HETATM   16  C   UNL     1      26.856  46.440  53.480  1.00  0.00     0.066 A 
HETATM   17  C   UNL     1      27.263  45.096  53.429  1.00  0.00     0.089 A 
HETATM   18  C   UNL     1      28.115  44.571  54.412  1.00  0.00    -0.028 A 
HETATM   19  C   UNL     1      28.628  43.161  54.322  1.00  0.00     0.051 C 
HETATM   20  C   UNL     1      28.517  45.398  55.470  1.00  0.00     0.009 A 
HETATM   21  C   UNL     1      28.070  46.719  55.553  1.00  0.00     0.002 A 
HETATM   22  C   UNL     1      27.239  47.241  54.562  1.00  0.00     0.020 A 
BRANCH  17  23
HETATM   23  O   UNL     1      26.893  44.273  52.393  1.00  0.00    -0.354 OA
HETATM   24  C   UNL     1      25.538  43.834  52.548  1.00  0.00     0.210 C 
ENDBRANCH  17  23
ENDBRANCH  13  16
ENDBRANCH  10  12
ENDBRANCH   8  10
ENDBRANCH   5   8
BRANCH   1  25
HETATM   25  N   UNL     1      20.005  49.528  48.681  1.00  0.00    -0.376 N 
HETATM   26  C   UNL     1      19.582  50.072  47.377  1.00  0.00     0.143 C 
HETATM   27  C   UNL     1      18.040  50.174  47.330  1.00  0.00     0.145 C 
HETATM   28  N   UNL     1      17.454  50.825  48.515  1.00  0.00    -0.349 N 
HETATM   29  C   UNL     1      16.213  51.437  48.374  1.00  0.00     0.219 C 
HETATM   30  C   UNL     1      17.990  50.366  49.807  1.00  0.00     0.145 C 
HETATM   31  O   UNL     1      15.667  51.560  47.277  1.00  0.00    -0.273 OA
HETATM   32  C   UNL     1      19.526  50.335  49.817  1.00  0.00     0.143 C 
BRANCH  29  33
HETATM   33  C   UNL     1      15.570  51.973  49.646  1.00  0.00     0.098 C 
HETATM   34  C   UNL     1      15.716  53.478  49.791  1.00  0.00     0.014 C 
ENDBRANCH  29  33
ENDBRANCH   1  25
TORSDOF 7
ENDMDL
MODEL 4
REMARK VINA RESULT:      -8.6      2.413     10.868
REMARK  7 active torsions:
REMARK  status: ('A' for Active; 'I' for Inactive)
REMARK    1  A    between atoms: C_2  and  C_3 
REMARK       I    between atoms: C_3  and  N_4 
REMARK    2  A    between atoms: N_7  and  C_8 
REMARK    3  A    between atoms: C_12  and  N_13 
REMARK    4  A    between atoms: N_13  and  C_14 
REMARK    5  A    between atoms: C_14  and  N_15 
REMARK       I    between atoms: N_15  and  C_16 
REMARK    6  A    between atoms: C_16  and  C_17 
REMARK    7  A    between atoms: C_18  and  O_19 
ROOT
HETATM    1  C   UNL     1      26.048  45.665  51.747  1.00  0.00     0.052 A 
HETATM    2  C   UNL     1      25.094  44.819  51.152  1.00  0.00     0.062 A 
HETATM    3 CL   UNL     1      24.996  43.120  51.479  1.00  0.00    -0.082 Cl
HETATM    4  C   UNL     1      24.181  45.309  50.203  1.00  0.00     0.055 A 
HETATM    5  C   UNL     1      24.193  46.646  49.814  1.00  0.00     0.036 A 
HETATM    6  C   UNL     1      25.219  47.460  50.296  1.00  0.00     0.032 A 
HETATM    7  C   UNL     1      26.123  46.978  51.250  1.00  0.00     0.033 A 
ENDROOT
BRANCH   5   8
HETATM    8  N   UNL     1      23.248  47.246  48.954  1.00  0.00    -0.333 N 
HETATM    9  H   UNL     1      23.536  48.143  48.557  1.00  0.00     0.168 HD
BRANCH   8  10
HETATM   10  C   UNL     1      21.935  46.936  48.678  1.00  0.00     0.179 C 
HETATM   11  S   UNL     1      21.200  45.447  48.483  1.00  0.00    -0.040 SA
BRANCH  10  12
HETATM   12  N   UNL     1      21.090  48.026  48.579  1.00  0.00    -0.299 N 
HETATM   13  C   UNL     1      21.287  49.257  47.971  1.00  0.00     0.260 C 
HETATM   14  O   UNL     1      22.346  49.614  47.465  1.00  0.00    -0.267 OA
HETATM   15  H   UNL     1      20.190  47.872  49.022  1.00  0.00     0.171 HD
BRANCH  13  16
HETATM   16  C   UNL     1      20.128  50.180  48.049  1.00  0.00     0.066 A 
HETATM   17  C   UNL     1      18.805  49.745  47.865  1.00  0.00     0.089 A 
HETATM   18  C   UNL     1      17.728  50.617  48.089  1.00  0.00    -0.028 A 
HETATM   19  C   UNL     1      16.307  50.140  47.983  1.00  0.00     0.051 C 
HETATM   20  C   UNL     1      17.999  51.944  48.455  1.00  0.00     0.009 A 
HETATM   21  C   UNL     1      19.315  52.394  48.584  1.00  0.00     0.002 A 
HETATM   22  C   UNL     1      20.379  51.517  48.379  1.00  0.00     0.020 A 
BRANCH  17  23
HETATM   23  O   UNL     1      18.517  48.446  47.523  1.00  0.00    -0.354 OA
HETATM   24  C   UNL     1      18.466  48.292  46.098  1.00  0.00     0.210 C 
ENDBRANCH  17  23
ENDBRANCH  13  16
ENDBRANCH  10  12
ENDBRANCH   8  10
ENDBRANCH   5   8
BRANCH   1  25
HETATM   25  N   UNL     1      26.893  45.362  52.819  1.00  0.00    -0.376 N 
HETATM   26  C   UNL     1      27.242  46.497  53.695  1.00  0.00     0.143 C 
HETATM   27  C   UNL     1      27.789  45.967  55.040  1.00  0.00     0.145 C 
HETATM   28  N   UNL     1      28.827  44.932  54.890  1.00  0.00    -0.349 N 
HETATM   29  C   UNL     1      29.736  44.768  55.929  1.00  0.00     0.219 C 
HETATM   30  C   UNL     1      28.520  43.880  53.908  1.00  0.00     0.145 C 
HETATM   31  O   UNL     1      29.777  45.538  56.890  1.00  0.00    -0.273 OA
HETATM   32  C   UNL     1      28.033  44.462  52.572  1.00  0.00     0.143 C 
BRANCH  29  33
HETATM   33  C   UNL     1      30.703  43.598  55.809  1.00  0.00     0.098 C 
HETATM   34  C   UNL     1      31.552  43.405  57.055  1.00  0.00     0.014 C 
ENDBRANCH  29  33
ENDBRANCH   1  25
TORSDOF 7
ENDMDL
MODEL 5
REMARK VINA RESULT:      -8.5      2.823      9.830
REMARK  7 active torsions:
REMARK  status: ('A' for Active; 'I' for Inactive)
REMARK    1  A    between atoms: C_2  and  C_3 
REMARK       I    between atoms: C_3  and  N_4 
REMARK    2  A    between atoms: N_7  and  C_8 
REMARK    3  A    between atoms: C_12  and  N_13 
REMARK    4  A    between atoms: N_13  and  C_14 
REMARK    5  A    between atoms: C_14  and  N_15 
REMARK       I    between atoms: N_15  and  C_16 
REMARK    6  A    between atoms: C_16  and  C_17 
REMARK    7  A    between atoms: C_18  and  O_19 
ROOT
HETATM    1  C   UNL     1      25.837  44.441  51.323  1.00  0.00     0.052 A 
HETATM    2  C   UNL     1      26.077  44.979  50.045  1.00  0.00     0.062 A 
HETATM    3 CL   UNL     1      27.471  45.935  49.662  1.00  0.00    -0.082 Cl
HETATM    4  C   UNL     1      25.154  44.806  49.000  1.00  0.00     0.055 A 
HETATM    5  C   UNL     1      23.968  44.103  49.195  1.00  0.00     0.036 A 
HETATM    6  C   UNL     1      23.659  43.684  50.489  1.00  0.00     0.032 A 
HETATM    7  C   UNL     1      24.582  43.845  51.530  1.00  0.00     0.033 A 
ENDROOT
BRANCH   5   8
HETATM    8  N   UNL     1      23.039  43.788  48.180  1.00  0.00    -0.333 N 
HETATM    9  H   UNL     1      22.641  42.847  48.236  1.00  0.00     0.168 HD
BRANCH   8  10
HETATM   10  C   UNL     1      22.689  44.448  47.023  1.00  0.00     0.179 C 
HETATM   11  S   UNL     1      22.653  43.902  45.443  1.00  0.00    -0.040 SA
BRANCH  10  12
HETATM   12  N   UNL     1      22.272  45.754  47.204  1.00  0.00    -0.299 N 
HETATM   13  C   UNL     1      21.279  46.270  48.024  1.00  0.00     0.260 C 
HETATM   14  O   UNL     1      20.516  45.585  48.697  1.00  0.00    -0.267 OA
HETATM   15  H   UNL     1      22.796  46.419  46.644  1.00  0.00     0.171 HD
BRANCH  13  16
HETATM   16  C   UNL     1      21.133  47.746  47.969  1.00  0.00     0.066 A 
HETATM   17  C   UNL     1      22.233  48.615  48.058  1.00  0.00     0.089 A 
HETATM   18  C   UNL     1      22.072  49.994  47.858  1.00  0.00    -0.028 A 
HETATM   19  C   UNL     1      23.254  50.923  47.862  1.00  0.00     0.051 C 
HETATM   20  C   UNL     1      20.785  50.495  47.611  1.00  0.00     0.009 A 
HETATM   21  C   UNL     1      19.681  49.640  47.577  1.00  0.00     0.002 A 
HETATM   22  C   UNL     1      19.852  48.267  47.758  1.00  0.00     0.020 A 
BRANCH  17  23
HETATM   23  O   UNL     1      23.504  48.143  48.283  1.00  0.00    -0.354 OA
HETATM   24  C   UNL     1      23.778  48.059  49.687  1.00  0.00     0.210 C 
ENDBRANCH  17  23
ENDBRANCH  13  16
ENDBRANCH  10  12
ENDBRANCH   8  10
ENDBRANCH   5   8
BRANCH   1  25
HETATM   25  N   UNL     1      26.732  44.384  52.396  1.00  0.00    -0.376 N 
HETATM   26  C   UNL     1      26.845  45.617  53.198  1.00  0.00     0.143 C 
HETATM   27  C   UNL     1      27.496  45.293  54.562  1.00  0.00     0.145 C 
HETATM   28  N   UNL     1      28.723  44.486  54.455  1.00  0.00    -0.349 N 
HETATM   29  C   UNL     1      29.653  44.575  55.486  1.00  0.00     0.219 C 
HETATM   30  C   UNL     1      28.635  43.335  53.541  1.00  0.00     0.145 C 
HETATM   31  O   UNL     1      29.538  45.394  56.399  1.00  0.00    -0.273 OA
HETATM   32  C   UNL     1      28.031  43.723  52.182  1.00  0.00     0.143 C 
BRANCH  29  33
HETATM   33  C   UNL     1      30.839  43.623  55.418  1.00  0.00     0.098 C 
HETATM   34  C   UNL     1      31.434  43.326  56.783  1.00  0.00     0.014 C 
ENDBRANCH  29  33
ENDBRANCH   1  25
TORSDOF 7
ENDMDL
MODEL 6
REMARK VINA RESULT:      -8.2      2.610     10.126
REMARK  7 active torsions:
REMARK  status: ('A' for Active; 'I' for Inactive)
REMARK    1  A    between atoms: C_2  and  C_3 
REMARK       I    between atoms: C_3  and  N_4 
REMARK    2  A    between atoms: N_7  and  C_8 
REMARK    3  A    between atoms: C_12  and  N_13 
REMARK    4  A    between atoms: N_13  and  C_14 
REMARK    5  A    between atoms: C_14  and  N_15 
REMARK       I    between atoms: N_15  and  C_16 
REMARK    6  A    between atoms: C_16  and  C_17 
REMARK    7  A    between atoms: C_18  and  O_19 
ROOT
HETATM    1  C   UNL     1      25.957  44.045  51.521  1.00  0.00     0.052 A 
HETATM    2  C   UNL     1      25.547  42.892  50.826  1.00  0.00     0.062 A 
HETATM    3 CL   UNL     1      26.309  41.347  51.016  1.00  0.00    -0.082 Cl
HETATM    4  C   UNL     1      24.505  42.944  49.885  1.00  0.00     0.055 A 
HETATM    5  C   UNL     1      23.849  44.138  49.601  1.00  0.00     0.036 A 
HETATM    6  C   UNL     1      24.336  45.308  50.183  1.00  0.00     0.032 A 
HETATM    7  C   UNL     1      25.366  45.259  51.131  1.00  0.00     0.033 A 
ENDROOT
BRANCH   5   8
HETATM    8  N   UNL     1      22.725  44.261  48.756  1.00  0.00    -0.333 N 
HETATM    9  H   UNL     1      21.945  43.640  48.982  1.00  0.00     0.168 HD
BRANCH   8  10
HETATM   10  C   UNL     1      22.540  44.942  47.573  1.00  0.00     0.179 C 
HETATM   11  S   UNL     1      22.361  44.362  46.016  1.00  0.00    -0.040 SA
BRANCH  10  12
HETATM   12  N   UNL     1      22.459  46.317  47.702  1.00  0.00    -0.299 N 
HETATM   13  C   UNL     1      21.518  47.099  48.356  1.00  0.00     0.260 C 
HETATM   14  O   UNL     1      20.503  46.658  48.886  1.00  0.00    -0.267 OA
HETATM   15  H   UNL     1      23.222  46.804  47.244  1.00  0.00     0.171 HD
BRANCH  13  16
HETATM   16  C   UNL     1      21.777  48.559  48.299  1.00  0.00     0.066 A 
HETATM   17  C   UNL     1      20.743  49.509  48.322  1.00  0.00     0.089 A 
HETATM   18  C   UNL     1      21.034  50.879  48.411  1.00  0.00    -0.028 A 
HETATM   19  C   UNL     1      19.936  51.900  48.526  1.00  0.00     0.051 C 
HETATM   20  C   UNL     1      22.376  51.285  48.434  1.00  0.00     0.009 A 
HETATM   21  C   UNL     1      23.407  50.345  48.355  1.00  0.00     0.002 A 
HETATM   22  C   UNL     1      23.111  48.984  48.286  1.00  0.00     0.020 A 
BRANCH  17  23
HETATM   23  O   UNL     1      19.422  49.132  48.318  1.00  0.00    -0.354 OA
HETATM   24  C   UNL     1      18.911  49.074  46.980  1.00  0.00     0.210 C 
ENDBRANCH  17  23
ENDBRANCH  13  16
ENDBRANCH  10  12
ENDBRANCH   8  10
ENDBRANCH   5   8
BRANCH   1  25
HETATM   25  N   UNL     1      26.847  44.110  52.597  1.00  0.00    -0.376 N 
HETATM   26  C   UNL     1      26.800  45.355  53.388  1.00  0.00     0.143 C 
HETATM   27  C   UNL     1      27.481  45.128  54.757  1.00  0.00     0.145 C 
HETATM   28  N   UNL     1      28.800  44.481  54.661  1.00  0.00    -0.349 N 
HETATM   29  C   UNL     1      29.706  44.696  55.694  1.00  0.00     0.219 C 
HETATM   30  C   UNL     1      28.861  43.320  53.758  1.00  0.00     0.145 C 
HETATM   31  O   UNL     1      29.486  45.502  56.599  1.00  0.00    -0.273 OA
HETATM   32  C   UNL     1      28.220  43.616  52.394  1.00  0.00     0.143 C 
BRANCH  29  33
HETATM   33  C   UNL     1      31.003  43.900  55.639  1.00  0.00     0.098 C 
HETATM   34  C   UNL     1      31.471  43.440  57.010  1.00  0.00     0.014 C 
ENDBRANCH  29  33
ENDBRANCH   1  25
TORSDOF 7
ENDMDL
MODEL 7
REMARK VINA RESULT:      -8.1      2.038      2.911
REMARK  7 active torsions:
REMARK  status: ('A' for Active; 'I' for Inactive)
REMARK    1  A    between atoms: C_2  and  C_3 
REMARK       I    between atoms: C_3  and  N_4 
REMARK    2  A    between atoms: N_7  and  C_8 
REMARK    3  A    between atoms: C_12  and  N_13 
REMARK    4  A    between atoms: N_13  and  C_14 
REMARK    5  A    between atoms: C_14  and  N_15 
REMARK       I    between atoms: N_15  and  C_16 
REMARK    6  A    between atoms: C_16  and  C_17 
REMARK    7  A    between atoms: C_18  and  O_19 
ROOT
HETATM    1  C   UNL     1      22.804  44.482  48.972  1.00  0.00     0.052 A 
HETATM    2  C   UNL     1      23.353  43.690  47.947  1.00  0.00     0.062 A 
HETATM    3 CL   UNL     1      22.975  43.910  46.271  1.00  0.00    -0.082 Cl
HETATM    4  C   UNL     1      24.218  42.622  48.240  1.00  0.00     0.055 A 
HETATM    5  C   UNL     1      24.557  42.308  49.553  1.00  0.00     0.036 A 
HETATM    6  C   UNL     1      23.914  43.000  50.580  1.00  0.00     0.032 A 
HETATM    7  C   UNL     1      23.060  44.072  50.292  1.00  0.00     0.033 A 
ENDROOT
BRANCH   5   8
HETATM    8  N   UNL     1      25.499  41.328  49.932  1.00  0.00    -0.333 N 
HETATM    9  H   UNL     1      25.116  40.546  50.469  1.00  0.00     0.168 HD
BRANCH   8  10
HETATM   10  C   UNL     1      26.874  41.305  49.863  1.00  0.00     0.179 C 
HETATM   11  S   UNL     1      27.881  40.676  48.685  1.00  0.00    -0.040 SA
BRANCH  10  12
HETATM   12  N   UNL     1      27.519  41.928  50.916  1.00  0.00    -0.299 N 
HETATM   13  C   UNL     1      27.718  43.277  51.170  1.00  0.00     0.260 C 
HETATM   14  O   UNL     1      27.400  44.177  50.400  1.00  0.00    -0.267 OA
HETATM   15  H   UNL     1      27.886  41.273  51.600  1.00  0.00     0.171 HD
BRANCH  13  16
HETATM   16  C   UNL     1      28.443  43.570  52.431  1.00  0.00     0.066 A 
HETATM   17  C   UNL     1      27.958  44.482  53.384  1.00  0.00     0.089 A 
HETATM   18  C   UNL     1      28.596  44.625  54.625  1.00  0.00    -0.028 A 
HETATM   19  C   UNL     1      28.037  45.530  55.687  1.00  0.00     0.051 C 
HETATM   20  C   UNL     1      29.752  43.873  54.881  1.00  0.00     0.009 A 
HETATM   21  C   UNL     1      30.268  43.007  53.914  1.00  0.00     0.002 A 
HETATM   22  C   UNL     1      29.618  42.855  52.690  1.00  0.00     0.020 A 
BRANCH  17  23
HETATM   23  O   UNL     1      26.818  45.216  53.160  1.00  0.00    -0.354 OA
HETATM   24  C   UNL     1      25.660  44.521  53.641  1.00  0.00     0.210 C 
ENDBRANCH  17  23
ENDBRANCH  13  16
ENDBRANCH  10  12
ENDBRANCH   8  10
ENDBRANCH   5   8
BRANCH   1  25
HETATM   25  N   UNL     1      22.079  45.668  48.826  1.00  0.00    -0.376 N 
HETATM   26  C   UNL     1      20.703  45.515  48.314  1.00  0.00     0.143 C 
HETATM   27  C   UNL     1      19.890  46.795  48.613  1.00  0.00     0.145 C 
HETATM   28  N   UNL     1      20.581  48.038  48.227  1.00  0.00    -0.349 N 
HETATM   29  C   UNL     1      19.802  49.156  47.950  1.00  0.00     0.219 C 
HETATM   30  C   UNL     1      21.996  48.115  48.627  1.00  0.00     0.145 C 
HETATM   31  O   UNL     1      18.572  49.096  47.891  1.00  0.00    -0.273 OA
HETATM   32  C   UNL     1      22.769  46.840  48.259  1.00  0.00     0.143 C 
BRANCH  29  33
HETATM   33  C   UNL     1      20.546  50.459  47.697  1.00  0.00     0.098 C 
HETATM   34  C   UNL     1      20.373  51.465  48.822  1.00  0.00     0.014 C 
ENDBRANCH  29  33
ENDBRANCH   1  25
TORSDOF 7
ENDMDL
MODEL 8
REMARK VINA RESULT:      -7.8      2.654     10.342
REMARK  7 active torsions:
REMARK  status: ('A' for Active; 'I' for Inactive)
REMARK    1  A    between atoms: C_2  and  C_3 
REMARK       I    between atoms: C_3  and  N_4 
REMARK    2  A    between atoms: N_7  and  C_8 
REMARK    3  A    between atoms: C_12  and  N_13 
REMARK    4  A    between atoms: N_13  and  C_14 
REMARK    5  A    between atoms: C_14  and  N_15 
REMARK       I    between atoms: N_15  and  C_16 
REMARK    6  A    between atoms: C_16  and  C_17 
REMARK    7  A    between atoms: C_18  and  O_19 
ROOT
HETATM    1  C   UNL     1      26.896  44.470  52.499  1.00  0.00     0.052 A 
HETATM    2  C   UNL     1      26.630  43.489  51.526  1.00  0.00     0.062 A 
HETATM    3 CL   UNL     1      27.735  42.210  51.140  1.00  0.00    -0.082 Cl
HETATM    4  C   UNL     1      25.450  43.523  50.765  1.00  0.00     0.055 A 
HETATM    5  C   UNL     1      24.506  44.531  50.942  1.00  0.00     0.036 A 
HETATM    6  C   UNL     1      24.822  45.580  51.806  1.00  0.00     0.032 A 
HETATM    7  C   UNL     1      25.992  45.543  52.575  1.00  0.00     0.033 A 
ENDROOT
BRANCH   5   8
HETATM    8  N   UNL     1      23.249  44.583  50.302  1.00  0.00    -0.333 N 
HETATM    9  H   UNL     1      22.506  44.057  50.769  1.00  0.00     0.168 HD
BRANCH   8  10
HETATM   10  C   UNL     1      22.868  45.070  49.072  1.00  0.00     0.179 C 
HETATM   11  S   UNL     1      22.967  44.365  47.559  1.00  0.00    -0.040 SA
BRANCH  10  12
HETATM   12  N   UNL     1      22.283  46.323  49.100  1.00  0.00    -0.299 N 
HETATM   13  C   UNL     1      22.855  47.579  48.959  1.00  0.00     0.260 C 
HETATM   14  O   UNL     1      24.061  47.780  48.863  1.00  0.00    -0.267 OA
HETATM   15  H   UNL     1      21.278  46.289  49.239  1.00  0.00     0.171 HD
BRANCH  13  16
HETATM   16  C   UNL     1      21.894  48.709  49.022  1.00  0.00     0.066 A 
HETATM   17  C   UNL     1      20.548  48.574  48.644  1.00  0.00     0.089 A 
HETATM   18  C   UNL     1      19.639  49.623  48.853  1.00  0.00    -0.028 A 
HETATM   19  C   UNL     1      18.179  49.460  48.536  1.00  0.00     0.051 C 
HETATM   20  C   UNL     1      20.109  50.823  49.406  1.00  0.00     0.009 A 
HETATM   21  C   UNL     1      21.458  50.979  49.731  1.00  0.00     0.002 A 
HETATM   22  C   UNL     1      22.352  49.926  49.539  1.00  0.00     0.020 A 
BRANCH  17  23
HETATM   23  O   UNL     1      20.064  47.401  48.117  1.00  0.00    -0.354 OA
HETATM   24  C   UNL     1      20.107  47.429  46.684  1.00  0.00     0.210 C 
ENDBRANCH  17  23
ENDBRANCH  13  16
ENDBRANCH  10  12
ENDBRANCH   8  10
ENDBRANCH   5   8
BRANCH   1  25
HETATM   25  N   UNL     1      27.929  44.467  53.441  1.00  0.00    -0.376 N 
HETATM   26  C   UNL     1      28.360  43.136  53.910  1.00  0.00     0.143 C 
HETATM   27  C   UNL     1      29.751  43.244  54.576  1.00  0.00     0.145 C 
HETATM   28  N   UNL     1      29.851  44.333  55.563  1.00  0.00    -0.349 N 
HETATM   29  C   UNL     1      30.804  44.213  56.569  1.00  0.00     0.219 C 
HETATM   30  C   UNL     1      29.290  45.622  55.128  1.00  0.00     0.145 C 
HETATM   31  O   UNL     1      31.458  43.182  56.729  1.00  0.00    -0.273 OA
HETATM   32  C   UNL     1      27.886  45.466  54.523  1.00  0.00     0.143 C 
BRANCH  29  33
HETATM   33  C   UNL     1      30.982  45.416  57.485  1.00  0.00     0.098 C 
HETATM   34  C   UNL     1      29.943  45.474  58.591  1.00  0.00     0.014 C 
ENDBRANCH  29  33
ENDBRANCH   1  25
TORSDOF 7
ENDMDL
MODEL 9
REMARK VINA RESULT:      -7.8      2.043      2.398
REMARK  7 active torsions:
REMARK  status: ('A' for Active; 'I' for Inactive)
REMARK    1  A    between atoms: C_2  and  C_3 
REMARK       I    between atoms: C_3  and  N_4 
REMARK    2  A    between atoms: N_7  and  C_8 
REMARK    3  A    between atoms: C_12  and  N_13 
REMARK    4  A    between atoms: N_13  and  C_14 
REMARK    5  A    between atoms: C_14  and  N_15 
REMARK       I    between atoms: N_15  and  C_16 
REMARK    6  A    between atoms: C_16  and  C_17 
REMARK    7  A    between atoms: C_18  and  O_19 
ROOT
HETATM    1  C   UNL     1      22.170  46.139  48.604  1.00  0.00     0.052 A 
HETATM    2  C   UNL     1      23.335  46.700  49.158  1.00  0.00     0.062 A 
HETATM    3 CL   UNL     1      23.437  48.345  49.694  1.00  0.00    -0.082 Cl
HETATM    4  C   UNL     1      24.520  45.952  49.264  1.00  0.00     0.055 A 
HETATM    5  C   UNL     1      24.583  44.635  48.819  1.00  0.00     0.036 A 
HETATM    6  C   UNL     1      23.476  44.115  48.147  1.00  0.00     0.032 A 
HETATM    7  C   UNL     1      22.290  44.853  48.050  1.00  0.00     0.033 A 
ENDROOT
BRANCH   5   8
HETATM    8  N   UNL     1      25.693  43.778  48.984  1.00  0.00    -0.333 N 
HETATM    9  H   UNL     1      26.352  43.770  48.202  1.00  0.00     0.168 HD
BRANCH   8  10
HETATM   10  C   UNL     1      25.975  42.818  49.930  1.00  0.00     0.179 C 
HETATM   11  S   UNL     1      25.726  41.165  49.891  1.00  0.00    -0.040 SA
BRANCH  10  12
HETATM   12  N   UNL     1      26.588  43.293  51.075  1.00  0.00    -0.299 N 
HETATM   13  C   UNL     1      26.033  43.751  52.262  1.00  0.00     0.260 C 
HETATM   14  O   UNL     1      24.829  43.886  52.452  1.00  0.00    -0.267 OA
HETATM   15  H   UNL     1      27.601  43.289  51.014  1.00  0.00     0.171 HD
BRANCH  13  16
HETATM   16  C   UNL     1      27.021  44.163  53.290  1.00  0.00     0.066 A 
HETATM   17  C   UNL     1      28.210  43.451  53.520  1.00  0.00     0.089 A 
HETATM   18  C   UNL     1      29.183  43.952  54.398  1.00  0.00    -0.028 A 
HETATM   19  C   UNL     1      30.497  43.246  54.586  1.00  0.00     0.051 C 
HETATM   20  C   UNL     1      28.928  45.154  55.074  1.00  0.00     0.009 A 
HETATM   21  C   UNL     1      27.723  45.836  54.889  1.00  0.00     0.002 A 
HETATM   22  C   UNL     1      26.768  45.342  54.000  1.00  0.00     0.020 A 
BRANCH  17  23
HETATM   23  O   UNL     1      28.486  42.281  52.856  1.00  0.00    -0.354 OA
HETATM   24  C   UNL     1      27.974  41.151  53.576  1.00  0.00     0.210 C 
ENDBRANCH  17  23
ENDBRANCH  13  16
ENDBRANCH  10  12
ENDBRANCH   8  10
ENDBRANCH   5   8
BRANCH   1  25
HETATM   25  N   UNL     1      20.887  46.697  48.594  1.00  0.00    -0.376 N 
HETATM   26  C   UNL     1      19.811  45.811  48.111  1.00  0.00     0.143 C 
HETATM   27  C   UNL     1      18.439  46.367  48.557  1.00  0.00     0.145 C 
HETATM   28  N   UNL     1      18.262  47.801  48.272  1.00  0.00    -0.349 N 
HETATM   29  C   UNL     1      16.965  48.281  48.128  1.00  0.00     0.219 C 
HETATM   30  C   UNL     1      19.406  48.655  48.636  1.00  0.00     0.145 C 
HETATM   31  O   UNL     1      15.990  47.528  48.100  1.00  0.00    -0.273 OA
HETATM   32  C   UNL     1      20.737  48.085  48.123  1.00  0.00     0.143 C 
BRANCH  29  33
HETATM   33  C   UNL     1      16.808  49.788  47.980  1.00  0.00     0.098 C 
HETATM   34  C   UNL     1      15.574  50.176  47.184  1.00  0.00     0.014 C 
ENDBRANCH  29  33
ENDBRANCH   1  25
TORSDOF 7
ENDMDL
MODEL 10
REMARK VINA RESULT:      -7.7      2.644     10.849
REMARK  7 active torsions:
REMARK  status: ('A' for Active; 'I' for Inactive)
REMARK    1  A    between atoms: C_2  and  C_3 
REMARK       I    between atoms: C_3  and  N_4 
REMARK    2  A    between atoms: N_7  and  C_8 
REMARK    3  A    between atoms: C_12  and  N_13 
REMARK    4  A    between atoms: N_13  and  C_14 
REMARK    5  A    between atoms: C_14  and  N_15 
REMARK       I    between atoms: N_15  and  C_16 
REMARK    6  A    between atoms: C_16  and  C_17 
REMARK    7  A    between atoms: C_18  and  O_19 
ROOT
HETATM    1  C   UNL     1      24.210  45.095  49.322  1.00  0.00     0.052 A 
HETATM    2  C   UNL     1      23.514  44.351  48.352  1.00  0.00     0.062 A 
HETATM    3 CL   UNL     1      23.904  42.710  47.953  1.00  0.00    -0.082 Cl
HETATM    4  C   UNL     1      22.475  44.928  47.604  1.00  0.00     0.055 A 
HETATM    5  C   UNL     1      22.102  46.256  47.792  1.00  0.00     0.036 A 
HETATM    6  C   UNL     1      22.872  47.038  48.653  1.00  0.00     0.032 A 
HETATM    7  C   UNL     1      23.902  46.463  49.409  1.00  0.00     0.033 A 
ENDROOT
BRANCH   5   8
HETATM    8  N   UNL     1      21.003  46.883  47.166  1.00  0.00    -0.333 N 
HETATM    9  H   UNL     1      21.249  47.566  46.445  1.00  0.00     0.168 HD
BRANCH   8  10
HETATM   10  C   UNL     1      19.657  46.877  47.457  1.00  0.00     0.179 C 
HETATM   11  S   UNL     1      18.573  45.605  47.502  1.00  0.00    -0.040 SA
BRANCH  10  12
HETATM   12  N   UNL     1      19.131  48.110  47.797  1.00  0.00    -0.299 N 
HETATM   13  C   UNL     1      18.891  48.667  49.045  1.00  0.00     0.260 C 
HETATM   14  O   UNL     1      19.047  48.071  50.106  1.00  0.00    -0.267 OA
HETATM   15  H   UNL     1      18.901  48.679  46.989  1.00  0.00     0.171 HD
BRANCH  13  16
HETATM   16  C   UNL     1      18.334  50.041  49.014  1.00  0.00     0.066 A 
HETATM   17  C   UNL     1      17.240  50.393  48.206  1.00  0.00     0.089 A 
HETATM   18  C   UNL     1      16.652  51.662  48.313  1.00  0.00    -0.028 A 
HETATM   19  C   UNL     1      15.427  52.020  47.519  1.00  0.00     0.051 C 
HETATM   20  C   UNL     1      17.205  52.590  49.208  1.00  0.00     0.009 A 
HETATM   21  C   UNL     1      18.327  52.262  49.972  1.00  0.00     0.002 A 
HETATM   22  C   UNL     1      18.894  50.991  49.876  1.00  0.00     0.020 A 
BRANCH  17  23
HETATM   23  O   UNL     1      16.673  49.494  47.335  1.00  0.00    -0.354 OA
HETATM   24  C   UNL     1      15.635  48.743  47.978  1.00  0.00     0.210 C 
ENDBRANCH  17  23
ENDBRANCH  13  16
ENDBRANCH  10  12
ENDBRANCH   8  10
ENDBRANCH   5   8
BRANCH   1  25
HETATM   25  N   UNL     1      25.136  44.612  50.252  1.00  0.00    -0.376 N 
HETATM   26  C   UNL     1      24.891  44.998  51.655  1.00  0.00     0.143 C 
HETATM   27  C   UNL     1      25.689  44.069  52.598  1.00  0.00     0.145 C 
HETATM   28  N   UNL     1      27.103  43.913  52.216  1.00  0.00    -0.349 N 
HETATM   29  C   UNL     1      28.012  43.571  53.212  1.00  0.00     0.219 C 
HETATM   30  C   UNL     1      27.338  43.665  50.784  1.00  0.00     0.145 C 
HETATM   31  O   UNL     1      27.692  43.528  54.401  1.00  0.00    -0.273 OA
HETATM   32  C   UNL     1      26.564  44.649  49.893  1.00  0.00     0.143 C 
BRANCH  29  33
HETATM   33  C   UNL     1      29.436  43.275  52.762  1.00  0.00     0.098 C 
HETATM   34  C   UNL     1      30.356  42.919  53.917  1.00  0.00     0.014 C 
ENDBRANCH  29  33
ENDBRANCH   1  25
TORSDOF 7
ENDMDL
