MODEL 1
REMARK VINA RESULT:      -8.0      0.000      0.000
REMARK  3 active torsions:
REMARK  status: ('A' for Active; 'I' for Inactive)
REMARK    1  A    between atoms: N_6  and  C_7 
REMARK    2  A    between atoms: C_7  and  C_8 
REMARK    3  A    between atoms: N_10  and  C_11 
ROOT
HETATM    1  C   UNL     1      28.761  44.382  54.876  1.00  0.00     0.073 A 
HETATM    2  C   UNL     1      29.686  43.360  54.555  1.00  0.00     0.062 A 
HETATM    3 CL   UNL     1      29.422  42.214  53.283  1.00  0.00    -0.082 Cl
HETATM    4  C   UNL     1      30.925  43.261  55.207  1.00  0.00     0.026 A 
HETATM    5  C   UNL     1      31.289  44.180  56.186  1.00  0.00     0.003 A 
HETATM    6  C   UNL     1      30.420  45.216  56.507  1.00  0.00     0.025 A 
HETATM    7  C   UNL     1      29.176  45.324  55.861  1.00  0.00     0.072 A 
HETATM    8  C   UNL     1      28.336  46.435  56.235  1.00  0.00     0.102 C 
HETATM    9  N   UNL     1      27.690  47.370  56.486  1.00  0.00    -0.191 NA
ENDROOT
BRANCH   1  10
HETATM   10  N   UNL     1      27.491  44.512  54.308  1.00  0.00    -0.378 N 
HETATM   11  C   UNL     1      27.373  45.299  53.078  1.00  0.00     0.129 C 
HETATM   12  C   UNL     1      26.050  46.077  53.187  1.00  0.00     0.032 C 
HETATM   13  C   UNL     1      24.882  45.079  53.280  1.00  0.00     0.009 C 
HETATM   14  C   UNL     1      25.086  44.128  54.469  1.00  0.00     0.020 C 
HETATM   15  C   UNL     1      26.471  43.466  54.457  1.00  0.00     0.123 C 
BRANCH  12  16
HETATM   16  C   UNL     1      25.914  47.094  52.042  1.00  0.00     0.278 C 
BRANCH  16  17
HETATM   17  N   UNL     1      25.753  46.512  50.690  1.00  0.00     0.092 N 
HETATM   18  C   UNL     1      26.717  47.107  49.739  1.00  0.00     0.300 C 
HETATM   19  C   UNL     1      26.381  48.544  49.273  1.00  0.00     0.264 C 
HETATM   20  N   UNL     1      24.954  48.620  48.753  1.00  0.00    -0.072 N 
HETATM   21  C   UNL     1      24.578  50.003  48.320  1.00  0.00     0.269 C 
HETATM   22  H   UNL     1      24.906  48.012  47.925  1.00  0.00     0.279 HD
HETATM   23  C   UNL     1      23.959  48.053  49.760  1.00  0.00     0.264 C 
HETATM   24  C   UNL     1      24.384  46.621  50.139  1.00  0.00     0.300 C 
ENDBRANCH  16  17
ENDBRANCH  12  16
ENDBRANCH   1  10
TORSDOF 3
ENDMDL
MODEL 2
REMARK VINA RESULT:      -7.5     13.224     14.621
REMARK  3 active torsions:
REMARK  status: ('A' for Active; 'I' for Inactive)
REMARK    1  A    between atoms: N_6  and  C_7 
REMARK    2  A    between atoms: C_7  and  C_8 
REMARK    3  A    between atoms: N_10  and  C_11 
ROOT
HETATM    1  C   UNL     1      32.605  51.663  41.408  1.00  0.00     0.073 A 
HETATM    2  C   UNL     1      33.253  51.562  42.661  1.00  0.00     0.062 A 
HETATM    3 CL   UNL     1      32.425  51.761  44.171  1.00  0.00    -0.082 Cl
HETATM    4  C   UNL     1      34.608  51.212  42.760  1.00  0.00     0.026 A 
HETATM    5  C   UNL     1      35.357  50.939  41.620  1.00  0.00     0.003 A 
HETATM    6  C   UNL     1      34.747  50.999  40.373  1.00  0.00     0.025 A 
HETATM    7  C   UNL     1      33.390  51.349  40.262  1.00  0.00     0.072 A 
HETATM    8  C   UNL     1      32.824  51.373  38.936  1.00  0.00     0.102 C 
HETATM    9  N   UNL     1      32.351  51.323  37.874  1.00  0.00    -0.191 NA
ENDROOT
BRANCH   1  10
HETATM   10  N   UNL     1      31.275  52.057  41.229  1.00  0.00    -0.378 N 
HETATM   11  C   UNL     1      30.228  51.165  41.734  1.00  0.00     0.129 C 
HETATM   12  C   UNL     1      29.086  51.211  40.704  1.00  0.00     0.032 C 
HETATM   13  C   UNL     1      28.545  52.648  40.612  1.00  0.00     0.009 C 
HETATM   14  C   UNL     1      29.677  53.623  40.255  1.00  0.00     0.020 C 
HETATM   15  C   UNL     1      30.891  53.473  41.182  1.00  0.00     0.123 C 
BRANCH  12  16
HETATM   16  C   UNL     1      28.014  50.157  41.025  1.00  0.00     0.278 C 
BRANCH  16  17
HETATM   17  N   UNL     1      27.316  49.582  39.852  1.00  0.00     0.092 N 
HETATM   18  C   UNL     1      26.667  48.298  40.199  1.00  0.00     0.300 C 
HETATM   19  C   UNL     1      27.628  47.094  40.348  1.00  0.00     0.264 C 
HETATM   20  N   UNL     1      28.519  46.964  39.123  1.00  0.00    -0.072 N 
HETATM   21  C   UNL     1      29.487  45.827  39.241  1.00  0.00     0.269 C 
HETATM   22  H   UNL     1      27.902  46.764  38.326  1.00  0.00     0.279 HD
HETATM   23  C   UNL     1      29.227  48.276  38.802  1.00  0.00     0.264 C 
HETATM   24  C   UNL     1      28.176  49.395  38.662  1.00  0.00     0.300 C 
ENDBRANCH  16  17
ENDBRANCH  12  16
ENDBRANCH   1  10
TORSDOF 3
ENDMDL
MODEL 3
REMARK VINA RESULT:      -7.4     13.363     14.597
REMARK  3 active torsions:
REMARK  status: ('A' for Active; 'I' for Inactive)
REMARK    1  A    between atoms: N_6  and  C_7 
REMARK    2  A    between atoms: C_7  and  C_8 
REMARK    3  A    between atoms: N_10  and  C_11 
ROOT
HETATM    1  C   UNL     1      32.610  51.657  41.411  1.00  0.00     0.073 A 
HETATM    2  C   UNL     1      33.238  51.569  42.675  1.00  0.00     0.062 A 
HETATM    3 CL   UNL     1      32.380  51.749  44.170  1.00  0.00    -0.082 Cl
HETATM    4  C   UNL     1      34.599  51.248  42.797  1.00  0.00     0.026 A 
HETATM    5  C   UNL     1      35.373  50.992  41.670  1.00  0.00     0.003 A 
HETATM    6  C   UNL     1      34.784  51.039  40.413  1.00  0.00     0.025 A 
HETATM    7  C   UNL     1      33.422  51.361  40.278  1.00  0.00     0.072 A 
HETATM    8  C   UNL     1      32.878  51.374  38.943  1.00  0.00     0.102 C 
HETATM    9  N   UNL     1      32.425  51.315  37.873  1.00  0.00    -0.191 NA
ENDROOT
BRANCH   1  10
HETATM   10  N   UNL     1      31.275  52.022  41.210  1.00  0.00    -0.378 N 
HETATM   11  C   UNL     1      30.240  51.075  41.630  1.00  0.00     0.129 C 
HETATM   12  C   UNL     1      29.131  51.146  40.566  1.00  0.00     0.032 C 
HETATM   13  C   UNL     1      28.550  52.570  40.534  1.00  0.00     0.009 C 
HETATM   14  C   UNL     1      29.663  53.595  40.269  1.00  0.00     0.020 C 
HETATM   15  C   UNL     1      30.851  53.428  41.227  1.00  0.00     0.123 C 
BRANCH  12  16
HETATM   16  C   UNL     1      28.081  50.047  40.793  1.00  0.00     0.278 C 
BRANCH  16  17
HETATM   17  N   UNL     1      28.000  49.015  39.733  1.00  0.00     0.092 N 
HETATM   18  C   UNL     1      27.798  49.635  38.405  1.00  0.00     0.300 C 
HETATM   19  C   UNL     1      26.370  50.169  38.137  1.00  0.00     0.264 C 
HETATM   20  N   UNL     1      25.333  49.095  38.423  1.00  0.00    -0.072 N 
HETATM   21  C   UNL     1      23.934  49.582  38.206  1.00  0.00     0.269 C 
HETATM   22  H   UNL     1      25.503  48.332  37.755  1.00  0.00     0.279 HD
HETATM   23  C   UNL     1      25.513  48.496  39.814  1.00  0.00     0.264 C 
HETATM   24  C   UNL     1      26.960  47.987  39.961  1.00  0.00     0.300 C 
ENDBRANCH  16  17
ENDBRANCH  12  16
ENDBRANCH   1  10
TORSDOF 3
ENDMDL
MODEL 4
REMARK VINA RESULT:      -7.0      4.559      9.747
REMARK  3 active torsions:
REMARK  status: ('A' for Active; 'I' for Inactive)
REMARK    1  A    between atoms: N_6  and  C_7 
REMARK    2  A    between atoms: C_7  and  C_8 
REMARK    3  A    between atoms: N_10  and  C_11 
ROOT
HETATM    1  C   UNL     1      20.240  49.135  48.301  1.00  0.00     0.073 A 
HETATM    2  C   UNL     1      18.973  49.390  48.876  1.00  0.00     0.062 A 
HETATM    3 CL   UNL     1      17.817  48.141  49.205  1.00  0.00    -0.082 Cl
HETATM    4  C   UNL     1      18.601  50.679  49.290  1.00  0.00     0.026 A 
HETATM    5  C   UNL     1      19.480  51.748  49.161  1.00  0.00     0.003 A 
HETATM    6  C   UNL     1      20.745  51.531  48.629  1.00  0.00     0.025 A 
HETATM    7  C   UNL     1      21.128  50.245  48.209  1.00  0.00     0.072 A 
HETATM    8  C   UNL     1      22.462  50.095  47.684  1.00  0.00     0.102 C 
HETATM    9  N   UNL     1      23.562  49.961  47.326  1.00  0.00    -0.191 NA
ENDROOT
BRANCH   1  10
HETATM   10  N   UNL     1      20.659  47.891  47.818  1.00  0.00    -0.378 N 
HETATM   11  C   UNL     1      21.154  46.915  48.791  1.00  0.00     0.129 C 
HETATM   12  C   UNL     1      22.332  46.190  48.116  1.00  0.00     0.032 C 
HETATM   13  C   UNL     1      21.823  45.461  46.860  1.00  0.00     0.009 C 
HETATM   14  C   UNL     1      21.140  46.452  45.907  1.00  0.00     0.020 C 
HETATM   15  C   UNL     1      20.069  47.297  46.611  1.00  0.00     0.123 C 
BRANCH  12  16
HETATM   16  C   UNL     1      23.063  45.280  49.116  1.00  0.00     0.278 C 
BRANCH  16  17
HETATM   17  N   UNL     1      24.540  45.367  49.093  1.00  0.00     0.092 N 
HETATM   18  C   UNL     1      25.154  44.056  49.399  1.00  0.00     0.300 C 
HETATM   19  C   UNL     1      25.099  43.636  50.888  1.00  0.00     0.264 C 
HETATM   20  N   UNL     1      25.650  44.740  51.777  1.00  0.00    -0.072 N 
HETATM   21  C   UNL     1      25.586  44.385  53.231  1.00  0.00     0.269 C 
HETATM   22  H   UNL     1      26.640  44.855  51.530  1.00  0.00     0.279 HD
HETATM   23  C   UNL     1      24.977  46.078  51.493  1.00  0.00     0.264 C 
HETATM   24  C   UNL     1      25.105  46.399  49.991  1.00  0.00     0.300 C 
ENDBRANCH  16  17
ENDBRANCH  12  16
ENDBRANCH   1  10
TORSDOF 3
ENDMDL
MODEL 5
REMARK VINA RESULT:      -6.8      5.178      8.234
REMARK  3 active torsions:
REMARK  status: ('A' for Active; 'I' for Inactive)
REMARK    1  A    between atoms: N_6  and  C_7 
REMARK    2  A    between atoms: C_7  and  C_8 
REMARK    3  A    between atoms: N_10  and  C_11 
ROOT
HETATM    1  C   UNL     1      23.889  46.843  49.531  1.00  0.00     0.073 A 
HETATM    2  C   UNL     1      24.552  46.313  50.663  1.00  0.00     0.062 A 
HETATM    3 CL   UNL     1      25.369  47.302  51.828  1.00  0.00    -0.082 Cl
HETATM    4  C   UNL     1      24.521  44.940  50.954  1.00  0.00     0.026 A 
HETATM    5  C   UNL     1      23.821  44.056  50.141  1.00  0.00     0.003 A 
HETATM    6  C   UNL     1      23.132  44.544  49.037  1.00  0.00     0.025 A 
HETATM    7  C   UNL     1      23.157  45.917  48.735  1.00  0.00     0.072 A 
HETATM    8  C   UNL     1      22.404  46.351  47.584  1.00  0.00     0.102 C 
HETATM    9  N   UNL     1      21.739  46.708  46.698  1.00  0.00    -0.191 NA
ENDROOT
BRANCH   1  10
HETATM   10  N   UNL     1      23.919  48.188  49.150  1.00  0.00    -0.378 N 
HETATM   11  C   UNL     1      22.792  49.034  49.548  1.00  0.00     0.129 C 
HETATM   12  C   UNL     1      22.525  49.985  48.368  1.00  0.00     0.032 C 
HETATM   13  C   UNL     1      23.771  50.856  48.128  1.00  0.00     0.009 C 
HETATM   14  C   UNL     1      25.002  49.972  47.883  1.00  0.00     0.020 C 
HETATM   15  C   UNL     1      25.186  48.911  48.977  1.00  0.00     0.123 C 
BRANCH  12  16
HETATM   16  C   UNL     1      21.233  50.787  48.590  1.00  0.00     0.278 C 
BRANCH  16  17
HETATM   17  N   UNL     1      19.988  50.123  48.141  1.00  0.00     0.092 N 
HETATM   18  C   UNL     1      19.199  51.014  47.261  1.00  0.00     0.300 C 
HETATM   19  C   UNL     1      18.450  52.160  47.985  1.00  0.00     0.264 C 
HETATM   20  N   UNL     1      17.615  51.614  49.131  1.00  0.00    -0.072 N 
HETATM   21  C   UNL     1      16.897  52.696  49.878  1.00  0.00     0.269 C 
HETATM   22  H   UNL     1      16.903  51.000  48.715  1.00  0.00     0.279 HD
HETATM   23  C   UNL     1      18.445  50.739  50.064  1.00  0.00     0.264 C 
HETATM   24  C   UNL     1      19.129  49.630  49.241  1.00  0.00     0.300 C 
ENDBRANCH  16  17
ENDBRANCH  12  16
ENDBRANCH   1  10
TORSDOF 3
ENDMDL
MODEL 6
REMARK VINA RESULT:      -6.8     12.577     15.176
REMARK  3 active torsions:
REMARK  status: ('A' for Active; 'I' for Inactive)
REMARK    1  A    between atoms: N_6  and  C_7 
REMARK    2  A    between atoms: C_7  and  C_8 
REMARK    3  A    between atoms: N_10  and  C_11 
ROOT
HETATM    1  C   UNL     1      28.771  49.783  40.370  1.00  0.00     0.073 A 
HETATM    2  C   UNL     1      27.740  49.623  39.415  1.00  0.00     0.062 A 
HETATM    3 CL   UNL     1      27.260  50.880  38.323  1.00  0.00    -0.082 Cl
HETATM    4  C   UNL     1      27.087  48.392  39.240  1.00  0.00     0.026 A 
HETATM    5  C   UNL     1      27.447  47.282  39.997  1.00  0.00     0.003 A 
HETATM    6  C   UNL     1      28.477  47.393  40.923  1.00  0.00     0.025 A 
HETATM    7  C   UNL     1      29.137  48.621  41.108  1.00  0.00     0.072 A 
HETATM    8  C   UNL     1      30.206  48.654  42.075  1.00  0.00     0.102 C 
HETATM    9  N   UNL     1      31.113  48.661  42.803  1.00  0.00    -0.191 NA
ENDROOT
BRANCH   1  10
HETATM   10  N   UNL     1      29.428  50.988  40.636  1.00  0.00    -0.378 N 
HETATM   11  C   UNL     1      30.483  51.407  39.709  1.00  0.00     0.129 C 
HETATM   12  C   UNL     1      31.589  52.041  40.570  1.00  0.00     0.032 C 
HETATM   13  C   UNL     1      31.020  53.270  41.300  1.00  0.00     0.009 C 
HETATM   14  C   UNL     1      29.798  52.873  42.141  1.00  0.00     0.020 C 
HETATM   15  C   UNL     1      28.755  52.096  41.326  1.00  0.00     0.123 C 
BRANCH  12  16
HETATM   16  C   UNL     1      32.840  52.337  39.727  1.00  0.00     0.278 C 
BRANCH  16  17
HETATM   17  N   UNL     1      33.856  51.260  39.697  1.00  0.00     0.092 N 
HETATM   18  C   UNL     1      33.896  50.533  40.985  1.00  0.00     0.300 C 
HETATM   19  C   UNL     1      34.584  51.290  42.147  1.00  0.00     0.264 C 
HETATM   20  N   UNL     1      35.962  51.776  41.730  1.00  0.00    -0.072 N 
HETATM   21  C   UNL     1      36.650  52.542  42.818  1.00  0.00     0.269 C 
HETATM   22  H   UNL     1      36.526  50.940  41.535  1.00  0.00     0.279 HD
HETATM   23  C   UNL     1      35.907  52.570  40.429  1.00  0.00     0.264 C 
HETATM   24  C   UNL     1      35.219  51.717  39.345  1.00  0.00     0.300 C 
ENDBRANCH  16  17
ENDBRANCH  12  16
ENDBRANCH   1  10
TORSDOF 3
ENDMDL
MODEL 7
REMARK VINA RESULT:      -6.8     12.982     14.470
REMARK  3 active torsions:
REMARK  status: ('A' for Active; 'I' for Inactive)
REMARK    1  A    between atoms: N_6  and  C_7 
REMARK    2  A    between atoms: C_7  and  C_8 
REMARK    3  A    between atoms: N_10  and  C_11 
ROOT
HETATM    1  C   UNL     1      31.876  51.377  41.065  1.00  0.00     0.073 A 
HETATM    2  C   UNL     1      32.808  51.311  42.128  1.00  0.00     0.062 A 
HETATM    3 CL   UNL     1      32.338  51.149  43.787  1.00  0.00    -0.082 Cl
HETATM    4  C   UNL     1      34.191  51.293  41.889  1.00  0.00     0.026 A 
HETATM    5  C   UNL     1      34.690  51.327  40.591  1.00  0.00     0.003 A 
HETATM    6  C   UNL     1      33.805  51.362  39.521  1.00  0.00     0.025 A 
HETATM    7  C   UNL     1      32.417  51.381  39.748  1.00  0.00     0.072 A 
HETATM    8  C   UNL     1      31.562  51.400  38.587  1.00  0.00     0.102 C 
HETATM    9  N   UNL     1      30.873  51.344  37.651  1.00  0.00    -0.191 NA
ENDROOT
BRANCH   1  10
HETATM   10  N   UNL     1      30.489  51.451  41.228  1.00  0.00    -0.378 N 
HETATM   11  C   UNL     1      29.782  50.225  41.605  1.00  0.00     0.129 C 
HETATM   12  C   UNL     1      28.452  50.237  40.833  1.00  0.00     0.032 C 
HETATM   13  C   UNL     1      27.629  51.465  41.261  1.00  0.00     0.009 C 
HETATM   14  C   UNL     1      28.434  52.753  41.033  1.00  0.00     0.020 C 
HETATM   15  C   UNL     1      29.831  52.688  41.667  1.00  0.00     0.123 C 
BRANCH  12  16
HETATM   16  C   UNL     1      27.711  48.900  40.993  1.00  0.00     0.278 C 
BRANCH  16  17
HETATM   17  N   UNL     1      26.449  48.776  40.230  1.00  0.00     0.092 N 
HETATM   18  C   UNL     1      25.689  47.579  40.652  1.00  0.00     0.300 C 
HETATM   19  C   UNL     1      26.249  46.230  40.141  1.00  0.00     0.264 C 
HETATM   20  N   UNL     1      26.452  46.269  38.635  1.00  0.00    -0.072 N 
HETATM   21  C   UNL     1      27.023  44.990  38.104  1.00  0.00     0.269 C 
HETATM   22  H   UNL     1      25.523  46.392  38.213  1.00  0.00     0.279 HD
HETATM   23  C   UNL     1      27.280  47.477  38.211  1.00  0.00     0.264 C 
HETATM   24  C   UNL     1      26.623  48.758  38.761  1.00  0.00     0.300 C 
ENDBRANCH  16  17
ENDBRANCH  12  16
ENDBRANCH   1  10
TORSDOF 3
ENDMDL
MODEL 8
REMARK VINA RESULT:      -6.8     12.633     14.821
REMARK  3 active torsions:
REMARK  status: ('A' for Active; 'I' for Inactive)
REMARK    1  A    between atoms: N_6  and  C_7 
REMARK    2  A    between atoms: C_7  and  C_8 
REMARK    3  A    between atoms: N_10  and  C_11 
ROOT
HETATM    1  C   UNL     1      27.093  48.382  39.743  1.00  0.00     0.073 A 
HETATM    2  C   UNL     1      26.087  47.545  40.282  1.00  0.00     0.062 A 
HETATM    3 CL   UNL     1      26.430  46.223  41.348  1.00  0.00    -0.082 Cl
HETATM    4  C   UNL     1      24.725  47.789  40.044  1.00  0.00     0.026 A 
HETATM    5  C   UNL     1      24.321  48.876  39.276  1.00  0.00     0.003 A 
HETATM    6  C   UNL     1      25.279  49.737  38.755  1.00  0.00     0.025 A 
HETATM    7  C   UNL     1      26.646  49.502  38.986  1.00  0.00     0.072 A 
HETATM    8  C   UNL     1      27.579  50.449  38.428  1.00  0.00     0.102 C 
HETATM    9  N   UNL     1      28.326  51.251  38.037  1.00  0.00    -0.191 NA
ENDROOT
BRANCH   1  10
HETATM   10  N   UNL     1      28.467  48.171  39.893  1.00  0.00    -0.378 N 
HETATM   11  C   UNL     1      29.056  48.437  41.208  1.00  0.00     0.129 C 
HETATM   12  C   UNL     1      30.434  49.070  40.945  1.00  0.00     0.032 C 
HETATM   13  C   UNL     1      31.311  48.068  40.175  1.00  0.00     0.009 C 
HETATM   14  C   UNL     1      30.619  47.643  38.871  1.00  0.00     0.020 C 
HETATM   15  C   UNL     1      29.181  47.159  39.105  1.00  0.00     0.123 C 
BRANCH  12  16
HETATM   16  C   UNL     1      31.063  49.579  42.252  1.00  0.00     0.278 C 
BRANCH  16  17
HETATM   17  N   UNL     1      31.164  51.051  42.378  1.00  0.00     0.092 N 
HETATM   18  C   UNL     1      31.510  51.672  41.080  1.00  0.00     0.300 C 
HETATM   19  C   UNL     1      32.986  51.505  40.644  1.00  0.00     0.264 C 
HETATM   20  N   UNL     1      33.926  51.950  41.753  1.00  0.00    -0.072 N 
HETATM   21  C   UNL     1      35.367  51.776  41.382  1.00  0.00     0.269 C 
HETATM   22  H   UNL     1      33.763  52.954  41.897  1.00  0.00     0.279 HD
HETATM   23  C   UNL     1      33.598  51.267  43.076  1.00  0.00     0.264 C 
HETATM   24  C   UNL     1      32.114  51.510  43.415  1.00  0.00     0.300 C 
ENDBRANCH  16  17
ENDBRANCH  12  16
ENDBRANCH   1  10
TORSDOF 3
ENDMDL
MODEL 9
REMARK VINA RESULT:      -6.8      9.004     14.062
REMARK  3 active torsions:
REMARK  status: ('A' for Active; 'I' for Inactive)
REMARK    1  A    between atoms: N_6  and  C_7 
REMARK    2  A    between atoms: C_7  and  C_8 
REMARK    3  A    between atoms: N_10  and  C_11 
ROOT
HETATM    1  C   UNL     1      15.289  51.241  46.390  1.00  0.00     0.073 A 
HETATM    2  C   UNL     1      14.932  51.963  45.227  1.00  0.00     0.062 A 
HETATM    3 CL   UNL     1      15.371  53.619  44.971  1.00  0.00    -0.082 Cl
HETATM    4  C   UNL     1      14.256  51.348  44.161  1.00  0.00     0.026 A 
HETATM    5  C   UNL     1      13.929  49.997  44.211  1.00  0.00     0.003 A 
HETATM    6  C   UNL     1      14.291  49.249  45.324  1.00  0.00     0.025 A 
HETATM    7  C   UNL     1      14.966  49.854  46.398  1.00  0.00     0.072 A 
HETATM    8  C   UNL     1      15.324  49.009  47.510  1.00  0.00     0.102 C 
HETATM    9  N   UNL     1      15.673  48.312  48.374  1.00  0.00    -0.191 NA
ENDROOT
BRANCH   1  10
HETATM   10  N   UNL     1      15.914  51.797  47.510  1.00  0.00    -0.378 N 
HETATM   11  C   UNL     1      17.369  51.959  47.467  1.00  0.00     0.129 C 
HETATM   12  C   UNL     1      17.883  51.629  48.880  1.00  0.00     0.032 C 
HETATM   13  C   UNL     1      17.278  52.626  49.883  1.00  0.00     0.009 C 
HETATM   14  C   UNL     1      15.745  52.593  49.811  1.00  0.00     0.020 C 
HETATM   15  C   UNL     1      15.224  52.761  48.377  1.00  0.00     0.123 C 
BRANCH  12  16
HETATM   16  C   UNL     1      19.419  51.568  48.906  1.00  0.00     0.278 C 
BRANCH  16  17
HETATM   17  N   UNL     1      20.010  50.942  50.110  1.00  0.00     0.092 N 
HETATM   18  C   UNL     1      21.475  50.790  49.963  1.00  0.00     0.300 C 
HETATM   19  C   UNL     1      21.927  49.648  49.021  1.00  0.00     0.264 C 
HETATM   20  N   UNL     1      21.259  48.338  49.407  1.00  0.00    -0.072 N 
HETATM   21  C   UNL     1      21.647  47.212  48.499  1.00  0.00     0.269 C 
HETATM   22  H   UNL     1      21.589  48.103  50.351  1.00  0.00     0.279 HD
HETATM   23  C   UNL     1      19.745  48.488  49.505  1.00  0.00     0.264 C 
HETATM   24  C   UNL     1      19.413  49.638  50.476  1.00  0.00     0.300 C 
ENDBRANCH  16  17
ENDBRANCH  12  16
ENDBRANCH   1  10
TORSDOF 3
ENDMDL
MODEL 10
REMARK VINA RESULT:      -6.7     11.678     14.010
REMARK  3 active torsions:
REMARK  status: ('A' for Active; 'I' for Inactive)
REMARK    1  A    between atoms: N_6  and  C_7 
REMARK    2  A    between atoms: C_7  and  C_8 
REMARK    3  A    between atoms: N_10  and  C_11 
ROOT
HETATM    1  C   UNL     1      30.029  51.141  40.315  1.00  0.00     0.073 A 
HETATM    2  C   UNL     1      29.509  52.263  39.627  1.00  0.00     0.062 A 
HETATM    3 CL   UNL     1      28.352  52.131  38.343  1.00  0.00    -0.082 Cl
HETATM    4  C   UNL     1      29.845  53.574  40.001  1.00  0.00     0.026 A 
HETATM    5  C   UNL     1      30.695  53.810  41.076  1.00  0.00     0.003 A 
HETATM    6  C   UNL     1      31.202  52.734  41.795  1.00  0.00     0.025 A 
HETATM    7  C   UNL     1      30.873  51.417  41.429  1.00  0.00     0.072 A 
HETATM    8  C   UNL     1      31.423  50.354  42.233  1.00  0.00     0.102 C 
HETATM    9  N   UNL     1      31.809  49.502  42.924  1.00  0.00    -0.191 NA
ENDROOT
BRANCH   1  10
HETATM   10  N   UNL     1      29.781  49.810  39.967  1.00  0.00    -0.378 N 
HETATM   11  C   UNL     1      28.499  49.229  40.372  1.00  0.00     0.129 C 
HETATM   12  C   UNL     1      28.792  47.775  40.781  1.00  0.00     0.032 C 
HETATM   13  C   UNL     1      29.350  47.011  39.568  1.00  0.00     0.009 C 
HETATM   14  C   UNL     1      30.601  47.715  39.022  1.00  0.00     0.020 C 
HETATM   15  C   UNL     1      30.363  49.209  38.760  1.00  0.00     0.123 C 
BRANCH  12  16
HETATM   16  C   UNL     1      27.555  47.122  41.417  1.00  0.00     0.278 C 
BRANCH  16  17
HETATM   17  N   UNL     1      26.893  46.081  40.599  1.00  0.00     0.092 N 
HETATM   18  C   UNL     1      25.525  46.496  40.217  1.00  0.00     0.300 C 
HETATM   19  C   UNL     1      24.473  46.420  41.350  1.00  0.00     0.264 C 
HETATM   20  N   UNL     1      24.486  45.046  42.001  1.00  0.00    -0.072 N 
HETATM   21  C   UNL     1      23.502  44.940  43.125  1.00  0.00     0.269 C 
HETATM   22  H   UNL     1      24.205  44.372  41.279  1.00  0.00     0.279 HD
HETATM   23  C   UNL     1      25.890  44.646  42.440  1.00  0.00     0.264 C 
HETATM   24  C   UNL     1      26.844  44.745  41.234  1.00  0.00     0.300 C 
ENDBRANCH  16  17
ENDBRANCH  12  16
ENDBRANCH   1  10
TORSDOF 3
ENDMDL
