MODEL 1
REMARK VINA RESULT:      -8.3      0.000      0.000
REMARK  3 active torsions:
REMARK  status: ('A' for Active; 'I' for Inactive)
REMARK    1  A    between atoms: C_9  and  C_10 
REMARK    2  A    between atoms: C_16  and  C_17 
REMARK       I    between atoms: C_17  and  N_18 
REMARK    3  A    between atoms: N_18  and  C_19 
ROOT
HETATM    1  C   UNL     1      26.162  47.139  52.628  1.00  0.00     0.070 C 
HETATM    2  C   UNL     1      25.660  45.866  51.991  1.00  0.00     0.037 C 
HETATM    3  N   UNL     1      24.807  46.040  50.904  1.00  0.00    -0.192 N 
HETATM    4  C   UNL     1      24.029  45.050  50.422  1.00  0.00     0.725 A 
HETATM    5  N   UNL     1      24.218  43.772  50.868  1.00  0.00    -0.084 N 
HETATM    6  N   UNL     1      23.300  42.930  50.350  1.00  0.00    -0.149 NA
HETATM    7  C   UNL     1      22.614  43.768  49.564  1.00  0.00     0.275 A 
HETATM    8  N   UNL     1      23.033  45.074  49.574  1.00  0.00    -0.054 NA
HETATM    9  C   UNL     1      25.263  43.382  51.821  1.00  0.00     0.202 C 
HETATM   10  C   UNL     1      25.916  44.613  52.449  1.00  0.00     0.062 C 
HETATM   11  H   UNL     1      24.557  46.994  50.654  1.00  0.00     0.184 HD
ENDROOT
BRANCH  10  12
HETATM   12  C   UNL     1      26.710  44.311  53.671  1.00  0.00     0.256 C 
HETATM   13  N   UNL     1      28.063  44.520  53.534  1.00  0.00    -0.322 N 
HETATM   14  H   UNL     1      28.408  44.780  52.618  1.00  0.00     0.169 HD
HETATM   15  O   UNL     1      26.132  43.876  54.658  1.00  0.00    -0.267 OA
BRANCH  13  16
HETATM   16  C   UNL     1      29.025  44.463  54.569  1.00  0.00     0.052 A 
HETATM   17  C   UNL     1      29.231  45.453  55.527  1.00  0.00     0.145 A 
HETATM   18  N   UNL     1      30.193  45.396  56.486  1.00  0.00    -0.271 NA
HETATM   19  C   UNL     1      30.986  44.307  56.492  1.00  0.00     0.116 A 
HETATM   20  C   UNL     1      30.861  43.267  55.589  1.00  0.00     0.021 A 
HETATM   21  C   UNL     1      29.863  43.348  54.618  1.00  0.00     0.032 A 
ENDBRANCH  13  16
ENDBRANCH  10  12
BRANCH   9  22
HETATM   22  C   UNL     1      26.290  42.479  51.145  1.00  0.00    -0.025 A 
HETATM   23  C   UNL     1      27.034  41.527  51.858  1.00  0.00     0.029 A 
HETATM   24  C   UNL     1      27.948  40.742  51.173  1.00  0.00     0.117 A 
HETATM   25  N   UNL     1      28.156  40.821  49.843  1.00  0.00    -0.273 NA
HETATM   26  C   UNL     1      27.429  41.735  49.168  1.00  0.00     0.117 A 
HETATM   27  C   UNL     1      26.496  42.570  49.762  1.00  0.00     0.029 A 
ENDBRANCH   9  22
TORSDOF 3
ENDMDL
MODEL 2
REMARK VINA RESULT:      -8.1      0.509      1.063
REMARK  3 active torsions:
REMARK  status: ('A' for Active; 'I' for Inactive)
REMARK    1  A    between atoms: C_9  and  C_10 
REMARK    2  A    between atoms: C_16  and  C_17 
REMARK       I    between atoms: C_17  and  N_18 
REMARK    3  A    between atoms: N_18  and  C_19 
ROOT
HETATM    1  C   UNL     1      25.894  47.092  52.174  1.00  0.00     0.070 C 
HETATM    2  C   UNL     1      25.403  45.816  51.536  1.00  0.00     0.037 C 
HETATM    3  N   UNL     1      24.559  45.983  50.442  1.00  0.00    -0.192 N 
HETATM    4  C   UNL     1      23.789  44.989  49.955  1.00  0.00     0.725 A 
HETATM    5  N   UNL     1      23.978  43.713  50.407  1.00  0.00    -0.084 N 
HETATM    6  N   UNL     1      23.068  42.866  49.883  1.00  0.00    -0.149 NA
HETATM    7  C   UNL     1      22.386  43.699  49.089  1.00  0.00     0.275 A 
HETATM    8  N   UNL     1      22.800  45.007  49.099  1.00  0.00    -0.054 NA
HETATM    9  C   UNL     1      25.017  43.330  51.370  1.00  0.00     0.202 C 
HETATM   10  C   UNL     1      25.659  44.565  52.001  1.00  0.00     0.062 C 
HETATM   11  H   UNL     1      24.307  46.936  50.187  1.00  0.00     0.184 HD
ENDROOT
BRANCH  10  12
HETATM   12  C   UNL     1      26.444  44.270  53.230  1.00  0.00     0.256 C 
HETATM   13  N   UNL     1      27.802  44.439  53.091  1.00  0.00    -0.322 N 
HETATM   14  H   UNL     1      28.155  44.670  52.170  1.00  0.00     0.169 HD
HETATM   15  O   UNL     1      25.853  43.872  54.226  1.00  0.00    -0.267 OA
BRANCH  13  16
HETATM   16  C   UNL     1      28.761  44.381  54.128  1.00  0.00     0.052 A 
HETATM   17  C   UNL     1      28.940  45.351  55.111  1.00  0.00     0.145 A 
HETATM   18  N   UNL     1      29.899  45.294  56.073  1.00  0.00    -0.271 NA
HETATM   19  C   UNL     1      30.717  44.224  56.056  1.00  0.00     0.116 A 
HETATM   20  C   UNL     1      30.620  43.204  55.127  1.00  0.00     0.021 A 
HETATM   21  C   UNL     1      29.625  43.285  54.154  1.00  0.00     0.032 A 
ENDBRANCH  13  16
ENDBRANCH  10  12
BRANCH   9  22
HETATM   22  C   UNL     1      26.053  42.428  50.706  1.00  0.00    -0.025 A 
HETATM   23  C   UNL     1      26.466  42.615  49.378  1.00  0.00     0.029 A 
HETATM   24  C   UNL     1      27.413  41.755  48.845  1.00  0.00     0.117 A 
HETATM   25  N   UNL     1      27.986  40.749  49.535  1.00  0.00    -0.273 NA
HETATM   26  C   UNL     1      27.585  40.584  50.813  1.00  0.00     0.117 A 
HETATM   27  C   UNL     1      26.642  41.387  51.435  1.00  0.00     0.029 A 
ENDBRANCH   9  22
TORSDOF 3
ENDMDL
MODEL 3
REMARK VINA RESULT:      -8.0      4.276      8.768
REMARK  3 active torsions:
REMARK  status: ('A' for Active; 'I' for Inactive)
REMARK    1  A    between atoms: C_9  and  C_10 
REMARK    2  A    between atoms: C_16  and  C_17 
REMARK       I    between atoms: C_17  and  N_18 
REMARK    3  A    between atoms: N_18  and  C_19 
ROOT
HETATM    1  C   UNL     1      23.518  43.733  48.916  1.00  0.00     0.070 C 
HETATM    2  C   UNL     1      24.099  44.919  49.645  1.00  0.00     0.037 C 
HETATM    3  N   UNL     1      25.022  44.612  50.642  1.00  0.00    -0.192 N 
HETATM    4  C   UNL     1      25.397  45.497  51.587  1.00  0.00     0.725 A 
HETATM    5  N   UNL     1      25.027  46.807  51.462  1.00  0.00    -0.084 N 
HETATM    6  N   UNL     1      25.408  47.531  52.535  1.00  0.00    -0.149 NA
HETATM    7  C   UNL     1      26.043  46.594  53.249  1.00  0.00     0.275 A 
HETATM    8  N   UNL     1      26.065  45.337  52.700  1.00  0.00    -0.054 NA
HETATM    9  C   UNL     1      24.274  47.342  50.321  1.00  0.00     0.202 C 
HETATM   10  C   UNL     1      23.728  46.211  49.450  1.00  0.00     0.062 C 
HETATM   11  H   UNL     1      25.198  43.627  50.829  1.00  0.00     0.184 HD
ENDROOT
BRANCH  10  12
HETATM   12  C   UNL     1      22.666  46.646  48.502  1.00  0.00     0.256 C 
HETATM   13  N   UNL     1      21.611  47.301  49.095  1.00  0.00    -0.322 N 
HETATM   14  H   UNL     1      21.605  47.365  50.106  1.00  0.00     0.169 HD
HETATM   15  O   UNL     1      22.781  46.365  47.317  1.00  0.00    -0.267 OA
BRANCH  13  16
HETATM   16  C   UNL     1      20.551  47.953  48.425  1.00  0.00     0.052 A 
HETATM   17  C   UNL     1      19.293  47.404  48.188  1.00  0.00     0.145 A 
HETATM   18  N   UNL     1      18.303  48.034  47.502  1.00  0.00    -0.271 NA
HETATM   19  C   UNL     1      18.576  49.266  47.029  1.00  0.00     0.116 A 
HETATM   20  C   UNL     1      19.791  49.902  47.213  1.00  0.00     0.021 A 
HETATM   21  C   UNL     1      20.788  49.235  47.924  1.00  0.00     0.032 A 
ENDBRANCH  13  16
ENDBRANCH  10  12
BRANCH   9  22
HETATM   22  C   UNL     1      25.139  48.309  49.519  1.00  0.00    -0.025 A 
HETATM   23  C   UNL     1      26.540  48.242  49.525  1.00  0.00     0.029 A 
HETATM   24  C   UNL     1      27.258  49.155  48.769  1.00  0.00     0.117 A 
HETATM   25  N   UNL     1      26.688  50.105  48.001  1.00  0.00    -0.273 NA
HETATM   26  C   UNL     1      25.339  50.155  47.998  1.00  0.00     0.117 A 
HETATM   27  C   UNL     1      24.534  49.291  48.723  1.00  0.00     0.029 A 
ENDBRANCH   9  22
TORSDOF 3
ENDMDL
MODEL 4
REMARK VINA RESULT:      -7.8      1.943      4.055
REMARK  3 active torsions:
REMARK  status: ('A' for Active; 'I' for Inactive)
REMARK    1  A    between atoms: C_9  and  C_10 
REMARK    2  A    between atoms: C_16  and  C_17 
REMARK       I    between atoms: C_17  and  N_18 
REMARK    3  A    between atoms: N_18  and  C_19 
ROOT
HETATM    1  C   UNL     1      28.034  40.421  53.522  1.00  0.00     0.070 C 
HETATM    2  C   UNL     1      27.604  41.132  52.263  1.00  0.00     0.037 C 
HETATM    3  N   UNL     1      26.826  40.377  51.388  1.00  0.00    -0.192 N 
HETATM    4  C   UNL     1      26.622  40.730  50.103  1.00  0.00     0.725 A 
HETATM    5  N   UNL     1      27.012  41.970  49.679  1.00  0.00    -0.084 N 
HETATM    6  N   UNL     1      26.814  42.121  48.353  1.00  0.00    -0.149 NA
HETATM    7  C   UNL     1      26.260  40.941  48.052  1.00  0.00     0.275 A 
HETATM    8  N   UNL     1      26.118  40.063  49.097  1.00  0.00    -0.054 NA
HETATM    9  C   UNL     1      27.608  42.987  50.554  1.00  0.00     0.202 C 
HETATM   10  C   UNL     1      27.985  42.387  51.909  1.00  0.00     0.062 C 
HETATM   11  H   UNL     1      26.648  39.407  51.640  1.00  0.00     0.184 HD
ENDROOT
BRANCH  10  12
HETATM   12  C   UNL     1      28.911  43.239  52.703  1.00  0.00     0.256 C 
HETATM   13  N   UNL     1      28.388  43.690  53.893  1.00  0.00    -0.322 N 
HETATM   14  H   UNL     1      27.419  43.476  54.091  1.00  0.00     0.169 HD
HETATM   15  O   UNL     1      30.013  43.504  52.240  1.00  0.00    -0.267 OA
BRANCH  13  16
HETATM   16  C   UNL     1      29.093  44.380  54.906  1.00  0.00     0.052 A 
HETATM   17  C   UNL     1      28.751  45.632  55.410  1.00  0.00     0.145 A 
HETATM   18  N   UNL     1      29.468  46.296  56.354  1.00  0.00    -0.271 NA
HETATM   19  C   UNL     1      30.578  45.687  56.817  1.00  0.00     0.116 A 
HETATM   20  C   UNL     1      31.002  44.443  56.386  1.00  0.00     0.021 A 
HETATM   21  C   UNL     1      30.245  43.782  55.420  1.00  0.00     0.032 A 
ENDBRANCH  13  16
ENDBRANCH  10  12
BRANCH   9  22
HETATM   22  C   UNL     1      26.666  44.178  50.703  1.00  0.00    -0.025 A 
HETATM   23  C   UNL     1      26.869  45.382  50.013  1.00  0.00     0.029 A 
HETATM   24  C   UNL     1      25.969  46.420  50.200  1.00  0.00     0.117 A 
HETATM   25  N   UNL     1      24.885  46.339  50.998  1.00  0.00    -0.273 NA
HETATM   26  C   UNL     1      24.698  45.172  51.650  1.00  0.00     0.117 A 
HETATM   27  C   UNL     1      25.543  44.079  51.535  1.00  0.00     0.029 A 
ENDBRANCH   9  22
TORSDOF 3
ENDMDL
MODEL 5
REMARK VINA RESULT:      -7.8      3.307      8.138
REMARK  3 active torsions:
REMARK  status: ('A' for Active; 'I' for Inactive)
REMARK    1  A    between atoms: C_9  and  C_10 
REMARK    2  A    between atoms: C_16  and  C_17 
REMARK       I    between atoms: C_17  and  N_18 
REMARK    3  A    between atoms: N_18  and  C_19 
ROOT
HETATM    1  C   UNL     1      25.611  42.910  50.176  1.00  0.00     0.070 C 
HETATM    2  C   UNL     1      25.607  44.334  50.675  1.00  0.00     0.037 C 
HETATM    3  N   UNL     1      26.420  44.581  51.778  1.00  0.00    -0.192 N 
HETATM    4  C   UNL     1      26.303  45.689  52.538  1.00  0.00     0.725 A 
HETATM    5  N   UNL     1      25.505  46.713  52.111  1.00  0.00    -0.084 N 
HETATM    6  N   UNL     1      25.435  47.698  53.030  1.00  0.00    -0.149 NA
HETATM    7  C   UNL     1      26.254  47.214  53.970  1.00  0.00     0.275 A 
HETATM    8  N   UNL     1      26.812  45.989  53.705  1.00  0.00    -0.054 NA
HETATM    9  C   UNL     1      24.787  46.714  50.831  1.00  0.00     0.202 C 
HETATM   10  C   UNL     1      24.824  45.329  50.183  1.00  0.00     0.062 C 
HETATM   11  H   UNL     1      26.912  43.787  52.183  1.00  0.00     0.184 HD
ENDROOT
BRANCH  10  12
HETATM   12  C   UNL     1      23.829  45.153  49.091  1.00  0.00     0.256 C 
HETATM   13  N   UNL     1      22.601  45.722  49.345  1.00  0.00    -0.322 N 
HETATM   14  H   UNL     1      22.455  46.134  50.258  1.00  0.00     0.169 HD
HETATM   15  O   UNL     1      24.145  44.505  48.102  1.00  0.00    -0.267 OA
BRANCH  13  16
HETATM   16  C   UNL     1      21.531  45.841  48.429  1.00  0.00     0.052 A 
HETATM   17  C   UNL     1      20.397  45.033  48.410  1.00  0.00     0.145 A 
HETATM   18  N   UNL     1      19.401  45.138  47.492  1.00  0.00    -0.271 NA
HETATM   19  C   UNL     1      19.539  46.090  46.548  1.00  0.00     0.116 A 
HETATM   20  C   UNL     1      20.623  46.947  46.481  1.00  0.00     0.021 A 
HETATM   21  C   UNL     1      21.629  46.820  47.438  1.00  0.00     0.032 A 
ENDBRANCH  13  16
ENDBRANCH  10  12
BRANCH   9  22
HETATM   22  C   UNL     1      25.349  47.788  49.905  1.00  0.00    -0.025 A 
HETATM   23  C   UNL     1      24.527  48.713  49.245  1.00  0.00     0.029 A 
HETATM   24  C   UNL     1      25.112  49.660  48.421  1.00  0.00     0.117 A 
HETATM   25  N   UNL     1      26.442  49.766  48.225  1.00  0.00    -0.273 NA
HETATM   26  C   UNL     1      27.223  48.875  48.871  1.00  0.00     0.117 A 
HETATM   27  C   UNL     1      26.733  47.887  49.712  1.00  0.00     0.029 A 
ENDBRANCH   9  22
TORSDOF 3
ENDMDL
MODEL 6
REMARK VINA RESULT:      -7.7      1.989      5.671
REMARK  3 active torsions:
REMARK  status: ('A' for Active; 'I' for Inactive)
REMARK    1  A    between atoms: C_9  and  C_10 
REMARK    2  A    between atoms: C_16  and  C_17 
REMARK       I    between atoms: C_17  and  N_18 
REMARK    3  A    between atoms: N_18  and  C_19 
ROOT
HETATM    1  C   UNL     1      30.337  43.017  54.156  1.00  0.00     0.070 C 
HETATM    2  C   UNL     1      29.060  43.791  53.937  1.00  0.00     0.037 C 
HETATM    3  N   UNL     1      29.064  45.096  54.422  1.00  0.00    -0.192 N 
HETATM    4  C   UNL     1      27.936  45.813  54.597  1.00  0.00     0.725 A 
HETATM    5  N   UNL     1      26.756  45.338  54.096  1.00  0.00    -0.084 N 
HETATM    6  N   UNL     1      25.721  46.133  54.437  1.00  0.00    -0.149 NA
HETATM    7  C   UNL     1      26.363  47.095  55.111  1.00  0.00     0.275 A 
HETATM    8  N   UNL     1      27.721  46.940  55.225  1.00  0.00    -0.054 NA
HETATM    9  C   UNL     1      26.634  44.097  53.321  1.00  0.00     0.202 C 
HETATM   10  C   UNL     1      27.926  43.282  53.390  1.00  0.00     0.062 C 
HETATM   11  H   UNL     1      29.897  45.408  54.918  1.00  0.00     0.184 HD
ENDROOT
BRANCH  10  12
HETATM   12  C   UNL     1      27.765  41.870  52.950  1.00  0.00     0.256 C 
HETATM   13  N   UNL     1      27.862  41.684  51.590  1.00  0.00    -0.322 N 
HETATM   14  H   UNL     1      27.954  42.509  51.010  1.00  0.00     0.169 HD
HETATM   15  O   UNL     1      27.526  41.013  53.791  1.00  0.00    -0.267 OA
BRANCH  13  16
HETATM   16  C   UNL     1      27.903  40.442  50.918  1.00  0.00     0.052 A 
HETATM   17  C   UNL     1      29.003  39.588  50.878  1.00  0.00     0.145 A 
HETATM   18  N   UNL     1      29.035  38.417  50.188  1.00  0.00    -0.271 NA
HETATM   19  C   UNL     1      27.922  38.080  49.506  1.00  0.00     0.116 A 
HETATM   20  C   UNL     1      26.776  38.855  49.485  1.00  0.00     0.021 A 
HETATM   21  C   UNL     1      26.769  40.049  50.205  1.00  0.00     0.032 A 
ENDBRANCH  13  16
ENDBRANCH  10  12
BRANCH   9  22
HETATM   22  C   UNL     1      26.234  44.406  51.882  1.00  0.00    -0.025 A 
HETATM   23  C   UNL     1      27.092  45.068  50.992  1.00  0.00     0.029 A 
HETATM   24  C   UNL     1      26.657  45.312  49.699  1.00  0.00     0.117 A 
HETATM   25  N   UNL     1      25.454  44.929  49.228  1.00  0.00    -0.273 NA
HETATM   26  C   UNL     1      24.640  44.286  50.092  1.00  0.00     0.117 A 
HETATM   27  C   UNL     1      24.980  44.001  51.405  1.00  0.00     0.029 A 
ENDBRANCH   9  22
TORSDOF 3
ENDMDL
MODEL 7
REMARK VINA RESULT:      -7.5      2.870      7.432
REMARK  3 active torsions:
REMARK  status: ('A' for Active; 'I' for Inactive)
REMARK    1  A    between atoms: C_9  and  C_10 
REMARK    2  A    between atoms: C_16  and  C_17 
REMARK       I    between atoms: C_17  and  N_18 
REMARK    3  A    between atoms: N_18  and  C_19 
ROOT
HETATM    1  C   UNL     1      26.447  42.665  51.318  1.00  0.00     0.070 C 
HETATM    2  C   UNL     1      26.202  44.113  51.667  1.00  0.00     0.037 C 
HETATM    3  N   UNL     1      27.058  44.647  52.626  1.00  0.00    -0.192 N 
HETATM    4  C   UNL     1      26.796  45.797  53.279  1.00  0.00     0.725 A 
HETATM    5  N   UNL     1      25.763  46.587  52.855  1.00  0.00    -0.084 N 
HETATM    6  N   UNL     1      25.588  47.647  53.672  1.00  0.00    -0.149 NA
HETATM    7  C   UNL     1      26.583  47.451  54.544  1.00  0.00     0.275 A 
HETATM    8  N   UNL     1      27.351  46.334  54.334  1.00  0.00    -0.054 NA
HETATM    9  C   UNL     1      24.930  46.290  51.685  1.00  0.00     0.202 C 
HETATM   10  C   UNL     1      25.183  44.869  51.181  1.00  0.00     0.062 C 
HETATM   11  H   UNL     1      27.743  44.020  53.043  1.00  0.00     0.184 HD
ENDROOT
BRANCH  10  12
HETATM   12  C   UNL     1      24.136  44.369  50.249  1.00  0.00     0.256 C 
HETATM   13  N   UNL     1      24.497  44.401  48.921  1.00  0.00    -0.322 N 
HETATM   14  H   UNL     1      25.389  44.820  48.687  1.00  0.00     0.169 HD
HETATM   15  O   UNL     1      23.056  44.019  50.706  1.00  0.00    -0.267 OA
BRANCH  13  16
HETATM   16  C   UNL     1      23.767  43.848  47.845  1.00  0.00     0.052 A 
HETATM   17  C   UNL     1      22.858  44.543  47.051  1.00  0.00     0.145 A 
HETATM   18  N   UNL     1      22.134  43.980  46.048  1.00  0.00    -0.271 NA
HETATM   19  C   UNL     1      22.322  42.664  45.825  1.00  0.00     0.116 A 
HETATM   20  C   UNL     1      23.203  41.885  46.552  1.00  0.00     0.021 A 
HETATM   21  C   UNL     1      23.937  42.489  47.572  1.00  0.00     0.032 A 
ENDBRANCH  13  16
ENDBRANCH  10  12
BRANCH   9  22
HETATM   22  C   UNL     1      25.158  47.328  50.591  1.00  0.00    -0.025 A 
HETATM   23  C   UNL     1      26.443  47.709  50.177  1.00  0.00     0.029 A 
HETATM   24  C   UNL     1      26.570  48.659  49.176  1.00  0.00     0.117 A 
HETATM   25  N   UNL     1      25.523  49.234  48.550  1.00  0.00    -0.273 NA
HETATM   26  C   UNL     1      24.292  48.854  48.953  1.00  0.00     0.117 A 
HETATM   27  C   UNL     1      24.061  47.917  49.948  1.00  0.00     0.029 A 
ENDBRANCH   9  22
TORSDOF 3
ENDMDL
MODEL 8
REMARK VINA RESULT:      -7.5      1.974      4.651
REMARK  3 active torsions:
REMARK  status: ('A' for Active; 'I' for Inactive)
REMARK    1  A    between atoms: C_9  and  C_10 
REMARK    2  A    between atoms: C_16  and  C_17 
REMARK       I    between atoms: C_17  and  N_18 
REMARK    3  A    between atoms: N_18  and  C_19 
ROOT
HETATM    1  C   UNL     1      28.344  40.787  53.353  1.00  0.00     0.070 C 
HETATM    2  C   UNL     1      27.779  41.089  51.987  1.00  0.00     0.037 C 
HETATM    3  N   UNL     1      27.500  39.976  51.199  1.00  0.00    -0.192 N 
HETATM    4  C   UNL     1      27.296  40.056  49.868  1.00  0.00     0.725 A 
HETATM    5  N   UNL     1      27.151  41.284  49.286  1.00  0.00    -0.084 N 
HETATM    6  N   UNL     1      27.045  41.184  47.945  1.00  0.00    -0.149 NA
HETATM    7  C   UNL     1      27.091  39.855  47.795  1.00  0.00     0.275 A 
HETATM    8  N   UNL     1      27.237  39.127  48.949  1.00  0.00    -0.054 NA
HETATM    9  C   UNL     1      27.154  42.550  50.029  1.00  0.00     0.202 C 
HETATM   10  C   UNL     1      27.613  42.335  51.472  1.00  0.00     0.062 C 
HETATM   11  H   UNL     1      27.735  39.062  51.580  1.00  0.00     0.184 HD
ENDROOT
BRANCH  10  12
HETATM   12  C   UNL     1      27.992  43.592  52.172  1.00  0.00     0.256 C 
HETATM   13  N   UNL     1      26.963  44.187  52.866  1.00  0.00    -0.322 N 
HETATM   14  H   UNL     1      26.041  43.776  52.783  1.00  0.00     0.169 HD
HETATM   15  O   UNL     1      29.135  44.013  52.053  1.00  0.00    -0.267 OA
BRANCH  13  16
HETATM   16  C   UNL     1      27.075  45.292  53.739  1.00  0.00     0.052 A 
HETATM   17  C   UNL     1      27.851  45.326  54.895  1.00  0.00     0.145 A 
HETATM   18  N   UNL     1      27.910  46.386  55.744  1.00  0.00    -0.271 NA
HETATM   19  C   UNL     1      27.161  47.462  55.429  1.00  0.00     0.116 A 
HETATM   20  C   UNL     1      26.360  47.531  54.304  1.00  0.00     0.021 A 
HETATM   21  C   UNL     1      26.322  46.431  53.447  1.00  0.00     0.032 A 
ENDBRANCH  13  16
ENDBRANCH  10  12
BRANCH   9  22
HETATM   22  C   UNL     1      25.780  43.209  49.963  1.00  0.00    -0.025 A 
HETATM   23  C   UNL     1      25.595  44.506  49.461  1.00  0.00     0.029 A 
HETATM   24  C   UNL     1      24.315  45.036  49.432  1.00  0.00     0.117 A 
HETATM   25  N   UNL     1      23.218  44.370  49.844  1.00  0.00    -0.273 NA
HETATM   26  C   UNL     1      23.408  43.121  50.319  1.00  0.00     0.117 A 
HETATM   27  C   UNL     1      24.648  42.505  50.394  1.00  0.00     0.029 A 
ENDBRANCH   9  22
TORSDOF 3
ENDMDL
MODEL 9
REMARK VINA RESULT:      -7.4      5.472      8.422
REMARK  3 active torsions:
REMARK  status: ('A' for Active; 'I' for Inactive)
REMARK    1  A    between atoms: C_9  and  C_10 
REMARK    2  A    between atoms: C_16  and  C_17 
REMARK       I    between atoms: C_17  and  N_18 
REMARK    3  A    between atoms: N_18  and  C_19 
ROOT
HETATM    1  C   UNL     1      23.455  50.847  47.998  1.00  0.00     0.070 C 
HETATM    2  C   UNL     1      22.060  50.383  48.337  1.00  0.00     0.037 C 
HETATM    3  N   UNL     1      21.107  51.393  48.447  1.00  0.00    -0.192 N 
HETATM    4  C   UNL     1      19.911  51.206  49.040  1.00  0.00     0.725 A 
HETATM    5  N   UNL     1      19.517  49.939  49.368  1.00  0.00    -0.084 N 
HETATM    6  N   UNL     1      18.341  49.945  50.030  1.00  0.00    -0.149 NA
HETATM    7  C   UNL     1      18.065  51.255  50.025  1.00  0.00     0.275 A 
HETATM    8  N   UNL     1      18.997  52.061  49.422  1.00  0.00    -0.054 NA
HETATM    9  C   UNL     1      20.300  48.734  49.072  1.00  0.00     0.202 C 
HETATM   10  C   UNL     1      21.711  49.100  48.611  1.00  0.00     0.062 C 
HETATM   11  H   UNL     1      21.428  52.353  48.336  1.00  0.00     0.184 HD
ENDROOT
BRANCH  10  12
HETATM   12  C   UNL     1      22.665  47.958  48.646  1.00  0.00     0.256 C 
HETATM   13  N   UNL     1      23.363  47.838  49.826  1.00  0.00    -0.322 N 
HETATM   14  H   UNL     1      23.230  48.558  50.525  1.00  0.00     0.169 HD
HETATM   15  O   UNL     1      22.789  47.261  47.647  1.00  0.00    -0.267 OA
BRANCH  13  16
HETATM   16  C   UNL     1      24.210  46.766  50.188  1.00  0.00     0.052 A 
HETATM   17  C   UNL     1      24.003  45.430  49.854  1.00  0.00     0.145 A 
HETATM   18  N   UNL     1      24.809  44.411  50.252  1.00  0.00    -0.271 NA
HETATM   19  C   UNL     1      25.870  44.734  51.017  1.00  0.00     0.116 A 
HETATM   20  C   UNL     1      26.167  46.030  51.401  1.00  0.00     0.021 A 
HETATM   21  C   UNL     1      25.326  47.057  50.976  1.00  0.00     0.032 A 
ENDBRANCH  13  16
ENDBRANCH  10  12
BRANCH   9  22
HETATM   22  C   UNL     1      19.575  47.867  48.047  1.00  0.00    -0.025 A 
HETATM   23  C   UNL     1      19.333  48.303  46.736  1.00  0.00     0.029 A 
HETATM   24  C   UNL     1      18.669  47.457  45.861  1.00  0.00     0.117 A 
HETATM   25  N   UNL     1      18.253  46.217  46.187  1.00  0.00    -0.273 NA
HETATM   26  C   UNL     1      18.499  45.807  47.449  1.00  0.00     0.117 A 
HETATM   27  C   UNL     1      19.150  46.579  48.399  1.00  0.00     0.029 A 
ENDBRANCH   9  22
TORSDOF 3
ENDMDL
MODEL 10
REMARK VINA RESULT:      -7.4      3.531      5.501
REMARK  3 active torsions:
REMARK  status: ('A' for Active; 'I' for Inactive)
REMARK    1  A    between atoms: C_9  and  C_10 
REMARK    2  A    between atoms: C_16  and  C_17 
REMARK       I    between atoms: C_17  and  N_18 
REMARK    3  A    between atoms: N_18  and  C_19 
ROOT
HETATM    1  C   UNL     1      27.414  49.308  48.860  1.00  0.00     0.070 C 
HETATM    2  C   UNL     1      25.922  49.092  48.915  1.00  0.00     0.037 C 
HETATM    3  N   UNL     1      25.155  50.069  48.285  1.00  0.00    -0.192 N 
HETATM    4  C   UNL     1      23.831  50.209  48.499  1.00  0.00     0.725 A 
HETATM    5  N   UNL     1      23.161  49.242  49.196  1.00  0.00    -0.084 N 
HETATM    6  N   UNL     1      21.870  49.585  49.393  1.00  0.00    -0.149 NA
HETATM    7  C   UNL     1      21.826  50.755  48.747  1.00  0.00     0.275 A 
HETATM    8  N   UNL     1      23.004  51.170  48.179  1.00  0.00    -0.054 NA
HETATM    9  C   UNL     1      23.783  48.012  49.698  1.00  0.00     0.202 C 
HETATM   10  C   UNL     1      25.305  48.085  49.586  1.00  0.00     0.062 C 
HETATM   11  H   UNL     1      25.648  50.863  47.882  1.00  0.00     0.184 HD
ENDROOT
BRANCH  10  12
HETATM   12  C   UNL     1      26.015  47.057  50.396  1.00  0.00     0.256 C 
HETATM   13  N   UNL     1      25.726  47.096  51.740  1.00  0.00    -0.322 N 
HETATM   14  H   UNL     1      25.133  47.847  52.072  1.00  0.00     0.169 HD
HETATM   15  O   UNL     1      26.804  46.307  49.837  1.00  0.00    -0.267 OA
BRANCH  13  16
HETATM   16  C   UNL     1      26.132  46.149  52.709  1.00  0.00     0.052 A 
HETATM   17  C   UNL     1      25.822  44.792  52.683  1.00  0.00     0.145 A 
HETATM   18  N   UNL     1      26.186  43.908  53.649  1.00  0.00    -0.271 NA
HETATM   19  C   UNL     1      26.891  44.396  54.689  1.00  0.00     0.116 A 
HETATM   20  C   UNL     1      27.254  45.726  54.807  1.00  0.00     0.021 A 
HETATM   21  C   UNL     1      26.871  46.611  53.800  1.00  0.00     0.032 A 
ENDBRANCH  13  16
ENDBRANCH  10  12
BRANCH   9  22
HETATM   22  C   UNL     1      23.218  46.795  48.971  1.00  0.00    -0.025 A 
HETATM   23  C   UNL     1      23.423  45.486  49.432  1.00  0.00     0.029 A 
HETATM   24  C   UNL     1      22.877  44.432  48.716  1.00  0.00     0.117 A 
HETATM   25  N   UNL     1      22.135  44.586  47.602  1.00  0.00    -0.273 NA
HETATM   26  C   UNL     1      21.940  45.851  47.173  1.00  0.00     0.117 A 
HETATM   27  C   UNL     1      22.448  46.970  47.814  1.00  0.00     0.029 A 
ENDBRANCH   9  22
TORSDOF 3
ENDMDL
