MODEL 1
REMARK VINA RESULT:      -8.0      0.000      0.000
REMARK  3 active torsions:
REMARK  status: ('A' for Active; 'I' for Inactive)
REMARK       I    between atoms: C_2  and  N_3 
REMARK    1  A    between atoms: N_3  and  C_4 
REMARK    2  A    between atoms: C_9  and  N_10 
REMARK       I    between atoms: N_10  and  C_11 
REMARK    3  A    between atoms: C_11  and  C_12 
ROOT
HETATM    1  C   UNL     1      26.259  43.358  50.978  1.00  0.00     0.156 A 
HETATM    2  N   UNL     1      25.606  42.751  49.950  1.00  0.00    -0.241 NA
HETATM    3  C   UNL     1      25.729  41.417  49.813  1.00  0.00     0.119 A 
HETATM    4  C   UNL     1      26.481  40.637  50.661  1.00  0.00     0.022 A 
HETATM    5  C   UNL     1      27.148  41.264  51.709  1.00  0.00     0.035 A 
HETATM    6  C   UNL     1      27.063  42.652  51.896  1.00  0.00     0.081 A 
ENDROOT
BRANCH   6   7
HETATM    7  N   UNL     1      27.739  43.284  52.969  1.00  0.00    -0.320 N 
HETATM    8  C   UNL     1      29.083  43.211  53.291  1.00  0.00     0.256 C 
HETATM    9  O   UNL     1      29.961  42.659  52.636  1.00  0.00    -0.267 OA
HETATM   10  H   UNL     1      27.171  43.924  53.521  1.00  0.00     0.169 HD
BRANCH   8  11
HETATM   11  C   UNL     1      29.493  43.913  54.544  1.00  0.00     0.032 A 
HETATM   12  C   UNL     1      30.615  43.523  55.289  1.00  0.00     0.018 A 
HETATM   13  C   UNL     1      30.974  44.232  56.441  1.00  0.00     0.025 A 
HETATM   14  C   UNL     1      30.225  45.337  56.840  1.00  0.00     0.034 A 
HETATM   15 CL   UNL     1      30.676  46.211  58.252  1.00  0.00    -0.084 Cl
HETATM   16  C   UNL     1      29.118  45.746  56.098  1.00  0.00     0.025 A 
HETATM   17  C   UNL     1      28.756  45.036  54.949  1.00  0.00     0.018 A 
ENDBRANCH   8  11
ENDBRANCH   6   7
BRANCH   1  18
HETATM   18  N   UNL     1      25.990  44.733  50.923  1.00  0.00    -0.310 N 
HETATM   19  C   UNL     1      26.512  45.748  50.175  1.00  0.00     0.219 C 
HETATM   20  C   UNL     1      25.881  47.086  50.470  1.00  0.00     0.117 C 
HETATM   21  O   UNL     1      27.422  45.655  49.359  1.00  0.00    -0.274 OA
HETATM   22  H   UNL     1      25.273  44.959  51.601  1.00  0.00     0.170 HD
ENDBRANCH   1  18
TORSDOF 3
ENDMDL
MODEL 2
REMARK VINA RESULT:      -7.9      1.843      2.357
REMARK  3 active torsions:
REMARK  status: ('A' for Active; 'I' for Inactive)
REMARK       I    between atoms: C_2  and  N_3 
REMARK    1  A    between atoms: N_3  and  C_4 
REMARK    2  A    between atoms: C_9  and  N_10 
REMARK       I    between atoms: N_10  and  C_11 
REMARK    3  A    between atoms: C_11  and  C_12 
ROOT
HETATM    1  C   UNL     1      25.826  45.271  50.173  1.00  0.00     0.156 A 
HETATM    2  N   UNL     1      24.989  44.969  49.143  1.00  0.00    -0.241 NA
HETATM    3  C   UNL     1      24.155  43.921  49.284  1.00  0.00     0.119 A 
HETATM    4  C   UNL     1      24.106  43.142  50.417  1.00  0.00     0.022 A 
HETATM    5  C   UNL     1      24.966  43.455  51.465  1.00  0.00     0.035 A 
HETATM    6  C   UNL     1      25.862  44.530  51.371  1.00  0.00     0.081 A 
ENDROOT
BRANCH   6   7
HETATM    7  N   UNL     1      26.731  44.848  52.445  1.00  0.00    -0.320 N 
HETATM    8  C   UNL     1      27.857  44.162  52.863  1.00  0.00     0.256 C 
HETATM    9  O   UNL     1      28.370  43.196  52.307  1.00  0.00    -0.267 OA
HETATM   10  H   UNL     1      26.534  45.731  52.913  1.00  0.00     0.169 HD
BRANCH   8  11
HETATM   11  C   UNL     1      28.523  44.686  54.093  1.00  0.00     0.032 A 
HETATM   12  C   UNL     1      28.081  45.842  54.751  1.00  0.00     0.018 A 
HETATM   13  C   UNL     1      28.721  46.275  55.917  1.00  0.00     0.025 A 
HETATM   14  C   UNL     1      29.793  45.548  56.433  1.00  0.00     0.034 A 
HETATM   15 CL   UNL     1      30.572  46.081  57.873  1.00  0.00    -0.084 Cl
HETATM   16  C   UNL     1      30.231  44.388  55.798  1.00  0.00     0.025 A 
HETATM   17  C   UNL     1      29.593  43.956  54.632  1.00  0.00     0.018 A 
ENDBRANCH   8  11
ENDBRANCH   6   7
BRANCH   1  18
HETATM   18  N   UNL     1      26.594  46.386  49.805  1.00  0.00    -0.310 N 
HETATM   19  C   UNL     1      26.334  47.726  49.796  1.00  0.00     0.219 C 
HETATM   20  C   UNL     1      27.500  48.552  49.316  1.00  0.00     0.117 C 
HETATM   21  O   UNL     1      25.273  48.261  50.101  1.00  0.00    -0.274 OA
HETATM   22  H   UNL     1      27.499  46.073  49.478  1.00  0.00     0.170 HD
ENDBRANCH   1  18
TORSDOF 3
ENDMDL
MODEL 3
REMARK VINA RESULT:      -7.9      1.911      3.586
REMARK  3 active torsions:
REMARK  status: ('A' for Active; 'I' for Inactive)
REMARK       I    between atoms: C_2  and  N_3 
REMARK    1  A    between atoms: N_3  and  C_4 
REMARK    2  A    between atoms: C_9  and  N_10 
REMARK       I    between atoms: N_10  and  C_11 
REMARK    3  A    between atoms: C_11  and  C_12 
ROOT
HETATM    1  C   UNL     1      25.574  44.496  51.063  1.00  0.00     0.156 A 
HETATM    2  N   UNL     1      24.621  44.843  50.157  1.00  0.00    -0.241 NA
HETATM    3  C   UNL     1      24.303  46.147  50.031  1.00  0.00     0.119 A 
HETATM    4  C   UNL     1      24.896  47.142  50.772  1.00  0.00     0.022 A 
HETATM    5  C   UNL     1      25.868  46.780  51.699  1.00  0.00     0.035 A 
HETATM    6  C   UNL     1      26.233  45.438  51.879  1.00  0.00     0.081 A 
ENDROOT
BRANCH   6   7
HETATM    7  N   UNL     1      27.229  45.075  52.820  1.00  0.00    -0.320 N 
HETATM    8  C   UNL     1      27.381  45.527  54.118  1.00  0.00     0.256 C 
HETATM    9  O   UNL     1      26.609  46.259  54.730  1.00  0.00    -0.267 OA
HETATM   10  H   UNL     1      27.862  44.337  52.516  1.00  0.00     0.169 HD
BRANCH   8  11
HETATM   11  C   UNL     1      28.590  45.036  54.845  1.00  0.00     0.032 A 
HETATM   12  C   UNL     1      29.146  45.728  55.930  1.00  0.00     0.018 A 
HETATM   13  C   UNL     1      30.262  45.209  56.596  1.00  0.00     0.025 A 
HETATM   14  C   UNL     1      30.815  43.997  56.188  1.00  0.00     0.034 A 
HETATM   15 CL   UNL     1      32.183  43.360  57.016  1.00  0.00    -0.084 Cl
HETATM   16  C   UNL     1      30.261  43.291  55.122  1.00  0.00     0.025 A 
HETATM   17  C   UNL     1      29.148  43.809  54.454  1.00  0.00     0.018 A 
ENDBRANCH   8  11
ENDBRANCH   6   7
BRANCH   1  18
HETATM   18  N   UNL     1      25.737  43.103  51.021  1.00  0.00    -0.310 N 
HETATM   19  C   UNL     1      26.454  42.280  50.203  1.00  0.00     0.219 C 
HETATM   20  C   UNL     1      26.319  40.822  50.564  1.00  0.00     0.117 C 
HETATM   21  O   UNL     1      27.129  42.624  49.238  1.00  0.00    -0.274 OA
HETATM   22  H   UNL     1      25.178  42.681  51.752  1.00  0.00     0.170 HD
ENDBRANCH   1  18
TORSDOF 3
ENDMDL
MODEL 4
REMARK VINA RESULT:      -7.5      3.763      6.556
REMARK  3 active torsions:
REMARK  status: ('A' for Active; 'I' for Inactive)
REMARK       I    between atoms: C_2  and  N_3 
REMARK    1  A    between atoms: N_3  and  C_4 
REMARK    2  A    between atoms: C_9  and  N_10 
REMARK       I    between atoms: N_10  and  C_11 
REMARK    3  A    between atoms: C_11  and  C_12 
ROOT
HETATM    1  C   UNL     1      29.011  45.648  56.098  1.00  0.00     0.156 A 
HETATM    2  N   UNL     1      29.832  45.674  57.183  1.00  0.00    -0.241 NA
HETATM    3  C   UNL     1      30.828  44.769  57.253  1.00  0.00     0.119 A 
HETATM    4  C   UNL     1      31.055  43.821  56.283  1.00  0.00     0.022 A 
HETATM    5  C   UNL     1      30.210  43.798  55.178  1.00  0.00     0.035 A 
HETATM    6  C   UNL     1      29.153  44.711  55.054  1.00  0.00     0.081 A 
ENDROOT
BRANCH   6   7
HETATM    7  N   UNL     1      28.300  44.687  53.923  1.00  0.00    -0.320 N 
HETATM    8  C   UNL     1      27.052  44.102  53.808  1.00  0.00     0.256 C 
HETATM    9  O   UNL     1      26.407  43.578  54.710  1.00  0.00    -0.267 OA
HETATM   10  H   UNL     1      28.624  45.232  53.126  1.00  0.00     0.169 HD
BRANCH   8  11
HETATM   11  C   UNL     1      26.426  44.157  52.453  1.00  0.00     0.032 A 
HETATM   12  C   UNL     1      27.152  43.902  51.281  1.00  0.00     0.018 A 
HETATM   13  C   UNL     1      26.512  43.937  50.037  1.00  0.00     0.025 A 
HETATM   14  C   UNL     1      25.148  44.213  49.964  1.00  0.00     0.034 A 
HETATM   15 CL   UNL     1      24.364  44.247  48.432  1.00  0.00    -0.084 Cl
HETATM   16  C   UNL     1      24.411  44.450  51.123  1.00  0.00     0.025 A 
HETATM   17  C   UNL     1      25.050  44.418  52.366  1.00  0.00     0.018 A 
ENDBRANCH   8  11
ENDBRANCH   6   7
BRANCH   1  18
HETATM   18  N   UNL     1      28.060  46.669  56.239  1.00  0.00    -0.310 N 
HETATM   19  C   UNL     1      27.505  47.545  55.352  1.00  0.00     0.219 C 
HETATM   20  C   UNL     1      26.497  48.471  55.985  1.00  0.00     0.117 C 
HETATM   21  O   UNL     1      27.779  47.642  54.160  1.00  0.00    -0.274 OA
HETATM   22  H   UNL     1      27.780  46.731  57.210  1.00  0.00     0.170 HD
ENDBRANCH   1  18
TORSDOF 3
ENDMDL
MODEL 5
REMARK VINA RESULT:      -7.5      2.089      3.634
REMARK  3 active torsions:
REMARK  status: ('A' for Active; 'I' for Inactive)
REMARK       I    between atoms: C_2  and  N_3 
REMARK    1  A    between atoms: N_3  and  C_4 
REMARK    2  A    between atoms: C_9  and  N_10 
REMARK       I    between atoms: N_10  and  C_11 
REMARK    3  A    between atoms: C_11  and  C_12 
ROOT
HETATM    1  C   UNL     1      25.113  41.917  50.026  1.00  0.00     0.156 A 
HETATM    2  N   UNL     1      24.099  41.727  49.137  1.00  0.00    -0.241 NA
HETATM    3  C   UNL     1      23.049  42.570  49.177  1.00  0.00     0.119 A 
HETATM    4  C   UNL     1      22.951  43.612  50.070  1.00  0.00     0.022 A 
HETATM    5  C   UNL     1      23.989  43.798  50.977  1.00  0.00     0.035 A 
HETATM    6  C   UNL     1      25.104  42.948  50.987  1.00  0.00     0.081 A 
ENDROOT
BRANCH   6   7
HETATM    7  N   UNL     1      26.162  43.147  51.909  1.00  0.00    -0.320 N 
HETATM    8  C   UNL     1      27.368  43.790  51.696  1.00  0.00     0.256 C 
HETATM    9  O   UNL     1      27.700  44.400  50.685  1.00  0.00    -0.267 OA
HETATM   10  H   UNL     1      25.970  42.839  52.860  1.00  0.00     0.169 HD
BRANCH   8  11
HETATM   11  C   UNL     1      28.334  43.762  52.835  1.00  0.00     0.032 A 
HETATM   12  C   UNL     1      28.110  44.465  54.027  1.00  0.00     0.018 A 
HETATM   13  C   UNL     1      29.033  44.381  55.076  1.00  0.00     0.025 A 
HETATM   14  C   UNL     1      30.169  43.586  54.941  1.00  0.00     0.034 A 
HETATM   15 CL   UNL     1      31.296  43.480  56.237  1.00  0.00    -0.084 Cl
HETATM   16  C   UNL     1      30.395  42.868  53.768  1.00  0.00     0.025 A 
HETATM   17  C   UNL     1      29.475  42.954  52.718  1.00  0.00     0.018 A 
ENDBRANCH   8  11
ENDBRANCH   6   7
BRANCH   1  18
HETATM   18  N   UNL     1      26.086  40.932  49.802  1.00  0.00    -0.310 N 
HETATM   19  C   UNL     1      27.197  40.893  49.011  1.00  0.00     0.219 C 
HETATM   20  C   UNL     1      27.953  39.592  49.115  1.00  0.00     0.117 C 
HETATM   21  O   UNL     1      27.576  41.775  48.248  1.00  0.00    -0.274 OA
HETATM   22  H   UNL     1      25.859  40.110  50.347  1.00  0.00     0.170 HD
ENDBRANCH   1  18
TORSDOF 3
ENDMDL
MODEL 6
REMARK VINA RESULT:      -7.4      3.221      5.327
REMARK  3 active torsions:
REMARK  status: ('A' for Active; 'I' for Inactive)
REMARK       I    between atoms: C_2  and  N_3 
REMARK    1  A    between atoms: N_3  and  C_4 
REMARK    2  A    between atoms: C_9  and  N_10 
REMARK       I    between atoms: N_10  and  C_11 
REMARK    3  A    between atoms: C_11  and  C_12 
ROOT
HETATM    1  C   UNL     1      24.614  48.300  49.016  1.00  0.00     0.156 A 
HETATM    2  N   UNL     1      23.798  49.028  48.207  1.00  0.00    -0.241 NA
HETATM    3  C   UNL     1      22.561  48.557  47.956  1.00  0.00     0.119 A 
HETATM    4  C   UNL     1      22.083  47.377  48.477  1.00  0.00     0.022 A 
HETATM    5  C   UNL     1      22.924  46.636  49.302  1.00  0.00     0.035 A 
HETATM    6  C   UNL     1      24.224  47.073  49.592  1.00  0.00     0.081 A 
ENDROOT
BRANCH   6   7
HETATM    7  N   UNL     1      25.073  46.318  50.438  1.00  0.00    -0.320 N 
HETATM    8  C   UNL     1      25.488  46.624  51.722  1.00  0.00     0.256 C 
HETATM    9  O   UNL     1      25.109  47.569  52.405  1.00  0.00    -0.267 OA
HETATM   10  H   UNL     1      25.346  45.407  50.075  1.00  0.00     0.169 HD
BRANCH   8  11
HETATM   11  C   UNL     1      26.467  45.676  52.335  1.00  0.00     0.032 A 
HETATM   12  C   UNL     1      27.059  44.634  51.609  1.00  0.00     0.018 A 
HETATM   13  C   UNL     1      27.993  43.792  52.222  1.00  0.00     0.025 A 
HETATM   14  C   UNL     1      28.346  43.997  53.555  1.00  0.00     0.034 A 
HETATM   15 CL   UNL     1      29.501  42.964  54.302  1.00  0.00    -0.084 Cl
HETATM   16  C   UNL     1      27.777  45.041  54.283  1.00  0.00     0.025 A 
HETATM   17  C   UNL     1      26.842  45.881  53.672  1.00  0.00     0.018 A 
ENDBRANCH   8  11
ENDBRANCH   6   7
BRANCH   1  18
HETATM   18  N   UNL     1      25.837  48.976  49.134  1.00  0.00    -0.310 N 
HETATM   19  C   UNL     1      27.135  48.559  49.060  1.00  0.00     0.219 C 
HETATM   20  C   UNL     1      28.128  49.680  49.246  1.00  0.00     0.117 C 
HETATM   21  O   UNL     1      27.519  47.407  48.895  1.00  0.00    -0.274 OA
HETATM   22  H   UNL     1      25.660  49.954  49.327  1.00  0.00     0.170 HD
ENDBRANCH   1  18
TORSDOF 3
ENDMDL
MODEL 7
REMARK VINA RESULT:      -7.3      6.832      9.868
REMARK  3 active torsions:
REMARK  status: ('A' for Active; 'I' for Inactive)
REMARK       I    between atoms: C_2  and  N_3 
REMARK    1  A    between atoms: N_3  and  C_4 
REMARK    2  A    between atoms: C_9  and  N_10 
REMARK       I    between atoms: N_10  and  C_11 
REMARK    3  A    between atoms: C_11  and  C_12 
ROOT
HETATM    1  C   UNL     1      25.579  47.439  49.477  1.00  0.00     0.156 A 
HETATM    2  N   UNL     1      26.894  47.095  49.425  1.00  0.00    -0.241 NA
HETATM    3  C   UNL     1      27.791  48.046  49.097  1.00  0.00     0.119 A 
HETATM    4  C   UNL     1      27.442  49.346  48.813  1.00  0.00     0.022 A 
HETATM    5  C   UNL     1      26.094  49.690  48.865  1.00  0.00     0.035 A 
HETATM    6  C   UNL     1      25.116  48.740  49.193  1.00  0.00     0.081 A 
ENDROOT
BRANCH   6   7
HETATM    7  N   UNL     1      23.746  49.098  49.252  1.00  0.00    -0.320 N 
HETATM    8  C   UNL     1      22.998  49.766  48.300  1.00  0.00     0.256 C 
HETATM    9  O   UNL     1      23.367  50.085  47.175  1.00  0.00    -0.267 OA
HETATM   10  H   UNL     1      23.244  48.752  50.068  1.00  0.00     0.169 HD
BRANCH   8  11
HETATM   11  C   UNL     1      21.591  50.091  48.683  1.00  0.00     0.032 A 
HETATM   12  C   UNL     1      20.751  49.160  49.310  1.00  0.00     0.018 A 
HETATM   13  C   UNL     1      19.450  49.523  49.676  1.00  0.00     0.025 A 
HETATM   14  C   UNL     1      18.993  50.817  49.429  1.00  0.00     0.034 A 
HETATM   15 CL   UNL     1      17.395  51.260  49.889  1.00  0.00    -0.084 Cl
HETATM   16  C   UNL     1      19.825  51.756  48.823  1.00  0.00     0.025 A 
HETATM   17  C   UNL     1      21.123  51.394  48.454  1.00  0.00     0.018 A 
ENDBRANCH   8  11
ENDBRANCH   6   7
BRANCH   1  18
HETATM   18  N   UNL     1      24.839  46.302  49.834  1.00  0.00    -0.310 N 
HETATM   19  C   UNL     1      23.708  45.736  49.321  1.00  0.00     0.219 C 
HETATM   20  C   UNL     1      23.287  44.486  50.054  1.00  0.00     0.117 C 
HETATM   21  O   UNL     1      23.039  46.167  48.388  1.00  0.00    -0.274 OA
HETATM   22  H   UNL     1      25.264  45.869  50.644  1.00  0.00     0.170 HD
ENDBRANCH   1  18
TORSDOF 3
ENDMDL
MODEL 8
REMARK VINA RESULT:      -7.3      3.472      6.578
REMARK  3 active torsions:
REMARK  status: ('A' for Active; 'I' for Inactive)
REMARK       I    between atoms: C_2  and  N_3 
REMARK    1  A    between atoms: N_3  and  C_4 
REMARK    2  A    between atoms: C_9  and  N_10 
REMARK       I    between atoms: N_10  and  C_11 
REMARK    3  A    between atoms: C_11  and  C_12 
ROOT
HETATM    1  C   UNL     1      29.647  43.454  54.975  1.00  0.00     0.156 A 
HETATM    2  N   UNL     1      30.608  43.097  55.869  1.00  0.00    -0.241 NA
HETATM    3  C   UNL     1      31.044  44.026  56.742  1.00  0.00     0.119 A 
HETATM    4  C   UNL     1      30.565  45.315  56.775  1.00  0.00     0.022 A 
HETATM    5  C   UNL     1      29.584  45.673  55.855  1.00  0.00     0.035 A 
HETATM    6  C   UNL     1      29.098  44.751  54.917  1.00  0.00     0.081 A 
ENDROOT
BRANCH   6   7
HETATM    7  N   UNL     1      28.094  45.120  53.988  1.00  0.00    -0.320 N 
HETATM    8  C   UNL     1      26.745  44.812  54.024  1.00  0.00     0.256 C 
HETATM    9  O   UNL     1      26.151  44.242  54.932  1.00  0.00    -0.267 OA
HETATM   10  H   UNL     1      28.400  45.748  53.247  1.00  0.00     0.169 HD
BRANCH   8  11
HETATM   11  C   UNL     1      25.942  45.261  52.847  1.00  0.00     0.032 A 
HETATM   12  C   UNL     1      25.958  46.585  52.388  1.00  0.00     0.018 A 
HETATM   13  C   UNL     1      25.210  46.948  51.263  1.00  0.00     0.025 A 
HETATM   14  C   UNL     1      24.457  45.989  50.588  1.00  0.00     0.034 A 
HETATM   15 CL   UNL     1      23.545  46.439  49.200  1.00  0.00    -0.084 Cl
HETATM   16  C   UNL     1      24.446  44.665  51.024  1.00  0.00     0.025 A 
HETATM   17  C   UNL     1      25.191  44.302  52.150  1.00  0.00     0.018 A 
ENDBRANCH   8  11
ENDBRANCH   6   7
BRANCH   1  18
HETATM   18  N   UNL     1      29.353  42.339  54.175  1.00  0.00    -0.310 N 
HETATM   19  C   UNL     1      29.146  42.193  52.834  1.00  0.00     0.219 C 
HETATM   20  C   UNL     1      28.864  40.767  52.431  1.00  0.00     0.117 C 
HETATM   21  O   UNL     1      29.141  43.090  51.997  1.00  0.00    -0.274 OA
HETATM   22  H   UNL     1      29.277  41.519  54.762  1.00  0.00     0.170 HD
ENDBRANCH   1  18
TORSDOF 3
ENDMDL
MODEL 9
REMARK VINA RESULT:      -7.3      6.678      9.786
REMARK  3 active torsions:
REMARK  status: ('A' for Active; 'I' for Inactive)
REMARK       I    between atoms: C_2  and  N_3 
REMARK    1  A    between atoms: N_3  and  C_4 
REMARK    2  A    between atoms: C_9  and  N_10 
REMARK       I    between atoms: N_10  and  C_11 
REMARK    3  A    between atoms: C_11  and  C_12 
ROOT
HETATM    1  C   UNL     1      23.722  45.928  49.085  1.00  0.00     0.156 A 
HETATM    2  N   UNL     1      24.764  45.053  49.103  1.00  0.00    -0.241 NA
HETATM    3  C   UNL     1      25.941  45.471  49.608  1.00  0.00     0.119 A 
HETATM    4  C   UNL     1      26.140  46.737  50.108  1.00  0.00     0.022 A 
HETATM    5  C   UNL     1      25.071  47.627  50.084  1.00  0.00     0.035 A 
HETATM    6  C   UNL     1      23.825  47.250  49.562  1.00  0.00     0.081 A 
ENDROOT
BRANCH   6   7
HETATM    7  N   UNL     1      22.738  48.159  49.547  1.00  0.00    -0.320 N 
HETATM    8  C   UNL     1      22.510  49.201  48.666  1.00  0.00     0.256 C 
HETATM    9  O   UNL     1      23.166  49.465  47.664  1.00  0.00    -0.267 OA
HETATM   10  H   UNL     1      22.005  47.967  50.228  1.00  0.00     0.169 HD
BRANCH   8  11
HETATM   11  C   UNL     1      21.320  50.055  48.958  1.00  0.00     0.032 A 
HETATM   12  C   UNL     1      21.068  51.251  48.272  1.00  0.00     0.018 A 
HETATM   13  C   UNL     1      19.922  52.000  48.563  1.00  0.00     0.025 A 
HETATM   14  C   UNL     1      19.023  51.550  49.527  1.00  0.00     0.034 A 
HETATM   15 CL   UNL     1      17.611  52.471  49.875  1.00  0.00    -0.084 Cl
HETATM   16  C   UNL     1      19.253  50.354  50.204  1.00  0.00     0.025 A 
HETATM   17  C   UNL     1      20.398  49.606  49.917  1.00  0.00     0.018 A 
ENDBRANCH   8  11
ENDBRANCH   6   7
BRANCH   1  18
HETATM   18  N   UNL     1      22.613  45.282  48.520  1.00  0.00    -0.310 N 
HETATM   19  C   UNL     1      21.864  45.533  47.406  1.00  0.00     0.219 C 
HETATM   20  C   UNL     1      20.754  44.533  47.201  1.00  0.00     0.117 C 
HETATM   21  O   UNL     1      22.006  46.474  46.633  1.00  0.00    -0.274 OA
HETATM   22  H   UNL     1      22.353  44.496  49.102  1.00  0.00     0.170 HD
ENDBRANCH   1  18
TORSDOF 3
ENDMDL
MODEL 10
REMARK VINA RESULT:      -7.3     12.961     13.997
REMARK  3 active torsions:
REMARK  status: ('A' for Active; 'I' for Inactive)
REMARK       I    between atoms: C_2  and  N_3 
REMARK    1  A    between atoms: N_3  and  C_4 
REMARK    2  A    between atoms: C_9  and  N_10 
REMARK       I    between atoms: N_10  and  C_11 
REMARK    3  A    between atoms: C_11  and  C_12 
ROOT
HETATM    1  C   UNL     1      29.388  49.004  39.105  1.00  0.00     0.156 A 
HETATM    2  N   UNL     1      28.491  48.320  38.344  1.00  0.00    -0.241 NA
HETATM    3  C   UNL     1      28.625  46.984  38.244  1.00  0.00     0.119 A 
HETATM    4  C   UNL     1      29.623  46.276  38.874  1.00  0.00     0.022 A 
HETATM    5  C   UNL     1      30.538  46.982  39.650  1.00  0.00     0.035 A 
HETATM    6  C   UNL     1      30.452  48.375  39.783  1.00  0.00     0.081 A 
ENDROOT
BRANCH   6   7
HETATM    7  N   UNL     1      31.383  49.088  40.580  1.00  0.00    -0.320 N 
HETATM    8  C   UNL     1      31.283  49.415  41.920  1.00  0.00     0.256 C 
HETATM    9  O   UNL     1      30.402  49.056  42.695  1.00  0.00    -0.267 OA
HETATM   10  H   UNL     1      32.261  49.318  40.117  1.00  0.00     0.169 HD
BRANCH   8  11
HETATM   11  C   UNL     1      32.384  50.261  42.470  1.00  0.00     0.032 A 
HETATM   12  C   UNL     1      32.206  51.094  43.584  1.00  0.00     0.018 A 
HETATM   13  C   UNL     1      33.279  51.844  44.078  1.00  0.00     0.025 A 
HETATM   14  C   UNL     1      34.531  51.753  43.472  1.00  0.00     0.034 A 
HETATM   15 CL   UNL     1      35.848  52.671  44.089  1.00  0.00    -0.084 Cl
HETATM   16  C   UNL     1      34.725  50.915  42.375  1.00  0.00     0.025 A 
HETATM   17  C   UNL     1      33.653  50.168  41.878  1.00  0.00     0.018 A 
ENDBRANCH   8  11
ENDBRANCH   6   7
BRANCH   1  18
HETATM   18  N   UNL     1      29.057  50.366  39.062  1.00  0.00    -0.310 N 
HETATM   19  C   UNL     1      29.409  51.377  38.216  1.00  0.00     0.219 C 
HETATM   20  C   UNL     1      28.779  52.699  38.578  1.00  0.00     0.117 C 
HETATM   21  O   UNL     1      30.179  51.293  37.265  1.00  0.00    -0.274 OA
HETATM   22  H   UNL     1      28.450  50.586  39.842  1.00  0.00     0.170 HD
ENDBRANCH   1  18
TORSDOF 3
ENDMDL
