MODEL 1
REMARK VINA RESULT:      -8.1      0.000      0.000
REMARK  10 active torsions:
REMARK  status: ('A' for Active; 'I' for Inactive)
REMARK    1  A    between atoms: C_2  and  C_3 
REMARK    2  A    between atoms: C_3  and  C_4 
REMARK    3  A    between atoms: C_4  and  N_5 
REMARK    4  A    between atoms: C_4  and  C_22 
REMARK    5  A    between atoms: N_5  and  C_6 
REMARK    6  A    between atoms: C_8  and  C_9 
REMARK    7  A    between atoms: C_16  and  C_17 
REMARK       I    between atoms: C_22  and  N_23 
REMARK    8  A    between atoms: N_23  and  C_24 
REMARK    9  A    between atoms: C_24  and  C_25 
REMARK   10  A    between atoms: C_25  and  O_26 
ROOT
HETATM    1  C   UNL     1      27.007  45.170  54.048  1.00  0.00     0.108 A 
HETATM    2  N   UNL     1      28.093  44.732  54.692  1.00  0.00    -0.215 NA
HETATM    3  C   UNL     1      28.620  45.511  55.661  1.00  0.00     0.180 A 
HETATM    4  N   UNL     1      28.124  46.716  55.999  1.00  0.00    -0.222 NA
HETATM    5  C   UNL     1      27.042  47.160  55.318  1.00  0.00     0.146 A 
HETATM    6  C   UNL     1      26.443  46.395  54.332  1.00  0.00     0.080 A 
ENDROOT
BRANCH   1   7
HETATM    7  N   UNL     1      26.441  44.404  53.011  1.00  0.00    -0.264 NA
HETATM    8  H   UNL     1      26.085  43.540  53.410  1.00  0.00     0.130 HD
BRANCH   7   9
HETATM    9  C   UNL     1      27.343  44.153  51.852  1.00  0.00     0.154 C 
BRANCH   9  10
HETATM   10  C   UNL     1      27.433  42.639  51.580  1.00  0.00     0.033 C 
BRANCH  10  11
HETATM   11  C   UNL     1      28.631  41.920  52.237  1.00  0.00    -0.021 C 
HETATM   12  C   UNL     1      28.250  41.194  53.529  1.00  0.00     0.009 C 
HETATM   13  C   UNL     1      29.743  42.933  52.525  1.00  0.00     0.009 C 
ENDBRANCH  10  11
ENDBRANCH   9  10
BRANCH   9  14
HETATM   14  C   UNL     1      26.786  44.831  50.572  1.00  0.00     0.235 C 
HETATM   15  N   UNL     1      25.567  45.455  50.761  1.00  0.00    -0.358 N 
HETATM   16  H   UNL     1      25.393  45.706  51.732  1.00  0.00     0.162 HD
HETATM   17  O   UNL     1      27.341  44.745  49.479  1.00  0.00    -0.272 OA
BRANCH  15  18
HETATM   18  C   UNL     1      25.029  46.355  49.763  1.00  0.00     0.148 C 
BRANCH  18  19
HETATM   19  C   UNL     1      25.644  47.748  49.885  1.00  0.00     0.186 C 
BRANCH  19  20
HETATM   20  O   UNL     1      24.611  48.727  49.709  1.00  0.00    -0.394 OA
HETATM   21  C   UNL     1      23.372  48.126  49.359  1.00  0.00     0.201 C 
ENDBRANCH  19  20
ENDBRANCH  18  19
ENDBRANCH  15  18
ENDBRANCH   9  14
ENDBRANCH   7   9
ENDBRANCH   1   7
BRANCH   3  22
HETATM   22  C   UNL     1      29.797  44.986  56.400  1.00  0.00     0.104 A 
HETATM   23  N   UNL     1      30.079  45.545  57.613  1.00  0.00    -0.257 NA
HETATM   24  C   UNL     1      31.133  45.067  58.307  1.00  0.00     0.117 A 
HETATM   25  C   UNL     1      31.945  44.039  57.864  1.00  0.00     0.019 A 
HETATM   26  C   UNL     1      31.663  43.469  56.631  1.00  0.00     0.004 A 
HETATM   27  C   UNL     1      30.582  43.946  55.891  1.00  0.00     0.036 A 
ENDBRANCH   3  22
BRANCH   5  28
HETATM   28  C   UNL     1      26.458  48.524  55.635  1.00  0.00     0.434 C 
HETATM   29  F   UNL     1      26.019  48.675  56.915  1.00  0.00    -0.165 F 
HETATM   30  F   UNL     1      27.355  49.534  55.430  1.00  0.00    -0.165 F 
HETATM   31  F   UNL     1      25.391  48.825  54.836  1.00  0.00    -0.165 F 
ENDBRANCH   5  28
TORSDOF 10
ENDMDL
MODEL 2
REMARK VINA RESULT:      -7.8      2.101      3.441
REMARK  10 active torsions:
REMARK  status: ('A' for Active; 'I' for Inactive)
REMARK    1  A    between atoms: C_2  and  C_3 
REMARK    2  A    between atoms: C_3  and  C_4 
REMARK    3  A    between atoms: C_4  and  N_5 
REMARK    4  A    between atoms: C_4  and  C_22 
REMARK    5  A    between atoms: N_5  and  C_6 
REMARK    6  A    between atoms: C_8  and  C_9 
REMARK    7  A    between atoms: C_16  and  C_17 
REMARK       I    between atoms: C_22  and  N_23 
REMARK    8  A    between atoms: N_23  and  C_24 
REMARK    9  A    between atoms: C_24  and  C_25 
REMARK   10  A    between atoms: C_25  and  O_26 
ROOT
HETATM    1  C   UNL     1      27.286  45.563  53.453  1.00  0.00     0.108 A 
HETATM    2  N   UNL     1      28.297  45.011  54.131  1.00  0.00    -0.215 NA
HETATM    3  C   UNL     1      28.686  45.592  55.285  1.00  0.00     0.180 A 
HETATM    4  N   UNL     1      28.125  46.712  55.781  1.00  0.00    -0.222 NA
HETATM    5  C   UNL     1      27.123  47.276  55.069  1.00  0.00     0.146 A 
HETATM    6  C   UNL     1      26.664  46.712  53.891  1.00  0.00     0.080 A 
ENDROOT
BRANCH   1   7
HETATM    7  N   UNL     1      26.866  45.008  52.229  1.00  0.00    -0.264 NA
HETATM    8  H   UNL     1      27.663  44.982  51.600  1.00  0.00     0.130 HD
BRANCH   7   9
HETATM    9  C   UNL     1      25.688  45.677  51.608  1.00  0.00     0.154 C 
BRANCH   9  10
HETATM   10  C   UNL     1      26.075  46.237  50.226  1.00  0.00     0.033 C 
BRANCH  10  11
HETATM   11  C   UNL     1      26.036  47.775  50.101  1.00  0.00    -0.021 C 
HETATM   12  C   UNL     1      24.755  48.284  49.438  1.00  0.00     0.009 C 
HETATM   13  C   UNL     1      27.253  48.256  49.305  1.00  0.00     0.009 C 
ENDBRANCH  10  11
ENDBRANCH   9  10
BRANCH   9  14
HETATM   14  C   UNL     1      24.533  44.662  51.401  1.00  0.00     0.235 C 
HETATM   15  N   UNL     1      23.702  44.977  50.342  1.00  0.00    -0.358 N 
HETATM   16  H   UNL     1      24.149  45.572  49.647  1.00  0.00     0.162 HD
HETATM   17  O   UNL     1      24.333  43.717  52.160  1.00  0.00    -0.272 OA
BRANCH  15  18
HETATM   18  C   UNL     1      22.742  44.017  49.837  1.00  0.00     0.148 C 
BRANCH  18  19
HETATM   19  C   UNL     1      21.764  44.673  48.865  1.00  0.00     0.186 C 
BRANCH  19  20
HETATM   20  O   UNL     1      21.336  43.694  47.909  1.00  0.00    -0.394 OA
HETATM   21  C   UNL     1      22.432  42.954  47.388  1.00  0.00     0.201 C 
ENDBRANCH  19  20
ENDBRANCH  18  19
ENDBRANCH  15  18
ENDBRANCH   9  14
ENDBRANCH   7   9
ENDBRANCH   1   7
BRANCH   3  22
HETATM   22  C   UNL     1      29.777  44.937  56.051  1.00  0.00     0.104 A 
HETATM   23  N   UNL     1      30.068  45.438  57.287  1.00  0.00    -0.257 NA
HETATM   24  C   UNL     1      31.044  44.842  58.004  1.00  0.00     0.117 A 
HETATM   25  C   UNL     1      31.767  43.749  57.563  1.00  0.00     0.019 A 
HETATM   26  C   UNL     1      31.475  43.238  56.306  1.00  0.00     0.004 A 
HETATM   27  C   UNL     1      30.475  43.835  55.542  1.00  0.00     0.036 A 
ENDBRANCH   3  22
BRANCH   5  28
HETATM   28  C   UNL     1      26.473  48.555  55.564  1.00  0.00     0.434 C 
HETATM   29  F   UNL     1      27.258  49.664  55.484  1.00  0.00    -0.165 F 
HETATM   30  F   UNL     1      25.332  48.858  54.876  1.00  0.00    -0.165 F 
HETATM   31  F   UNL     1      26.087  48.464  56.872  1.00  0.00    -0.165 F 
ENDBRANCH   5  28
TORSDOF 10
ENDMDL
MODEL 3
REMARK VINA RESULT:      -7.8      2.735      6.159
REMARK  10 active torsions:
REMARK  status: ('A' for Active; 'I' for Inactive)
REMARK    1  A    between atoms: C_2  and  C_3 
REMARK    2  A    between atoms: C_3  and  C_4 
REMARK    3  A    between atoms: C_4  and  N_5 
REMARK    4  A    between atoms: C_4  and  C_22 
REMARK    5  A    between atoms: N_5  and  C_6 
REMARK    6  A    between atoms: C_8  and  C_9 
REMARK    7  A    between atoms: C_16  and  C_17 
REMARK       I    between atoms: C_22  and  N_23 
REMARK    8  A    between atoms: N_23  and  C_24 
REMARK    9  A    between atoms: C_24  and  C_25 
REMARK   10  A    between atoms: C_25  and  O_26 
ROOT
HETATM    1  C   UNL     1      26.246  44.764  52.570  1.00  0.00     0.108 A 
HETATM    2  N   UNL     1      25.877  45.539  51.545  1.00  0.00    -0.215 NA
HETATM    3  C   UNL     1      25.977  46.877  51.687  1.00  0.00     0.180 A 
HETATM    4  N   UNL     1      26.408  47.476  52.813  1.00  0.00    -0.222 NA
HETATM    5  C   UNL     1      26.750  46.681  53.852  1.00  0.00     0.146 A 
HETATM    6  C   UNL     1      26.692  45.301  53.758  1.00  0.00     0.080 A 
ENDROOT
BRANCH   1   7
HETATM    7  N   UNL     1      26.131  43.363  52.478  1.00  0.00    -0.264 NA
HETATM    8  H   UNL     1      25.683  43.024  53.324  1.00  0.00     0.130 HD
BRANCH   7   9
HETATM    9  C   UNL     1      27.406  42.646  52.196  1.00  0.00     0.154 C 
BRANCH   9  10
HETATM   10  C   UNL     1      27.953  42.025  53.496  1.00  0.00     0.033 C 
BRANCH  10  11
HETATM   11  C   UNL     1      29.395  42.431  53.868  1.00  0.00    -0.021 C 
HETATM   12  C   UNL     1      29.459  43.305  55.122  1.00  0.00     0.009 C 
HETATM   13  C   UNL     1      30.039  43.172  52.692  1.00  0.00     0.009 C 
ENDBRANCH  10  11
ENDBRANCH   9  10
BRANCH   9  14
HETATM   14  C   UNL     1      27.171  41.495  51.183  1.00  0.00     0.235 C 
HETATM   15  N   UNL     1      28.336  40.991  50.637  1.00  0.00    -0.358 N 
HETATM   16  H   UNL     1      29.155  41.162  51.216  1.00  0.00     0.162 HD
HETATM   17  O   UNL     1      26.049  41.127  50.843  1.00  0.00    -0.272 OA
BRANCH  15  18
HETATM   18  C   UNL     1      28.332  39.753  49.886  1.00  0.00     0.148 C 
BRANCH  18  19
HETATM   19  C   UNL     1      28.822  39.972  48.456  1.00  0.00     0.186 C 
BRANCH  19  20
HETATM   20  O   UNL     1      28.206  41.156  47.933  1.00  0.00    -0.394 OA
HETATM   21  C   UNL     1      27.125  40.846  47.064  1.00  0.00     0.201 C 
ENDBRANCH  19  20
ENDBRANCH  18  19
ENDBRANCH  15  18
ENDBRANCH   9  14
ENDBRANCH   7   9
ENDBRANCH   1   7
BRANCH   3  22
HETATM   22  C   UNL     1      25.609  47.721  50.521  1.00  0.00     0.104 A 
HETATM   23  N   UNL     1      24.280  47.879  50.253  1.00  0.00    -0.257 NA
HETATM   24  C   UNL     1      23.927  48.658  49.208  1.00  0.00     0.117 A 
HETATM   25  C   UNL     1      24.834  49.311  48.393  1.00  0.00     0.019 A 
HETATM   26  C   UNL     1      26.186  49.151  48.662  1.00  0.00     0.004 A 
HETATM   27  C   UNL     1      26.579  48.349  49.731  1.00  0.00     0.036 A 
ENDBRANCH   3  22
BRANCH   5  28
HETATM   28  C   UNL     1      27.215  47.301  55.157  1.00  0.00     0.434 C 
HETATM   29  F   UNL     1      26.242  47.933  55.869  1.00  0.00    -0.165 F 
HETATM   30  F   UNL     1      27.757  46.379  56.006  1.00  0.00    -0.165 F 
HETATM   31  F   UNL     1      28.199  48.230  54.963  1.00  0.00    -0.165 F 
ENDBRANCH   5  28
TORSDOF 10
ENDMDL
MODEL 4
REMARK VINA RESULT:      -7.6      3.799      5.237
REMARK  10 active torsions:
REMARK  status: ('A' for Active; 'I' for Inactive)
REMARK    1  A    between atoms: C_2  and  C_3 
REMARK    2  A    between atoms: C_3  and  C_4 
REMARK    3  A    between atoms: C_4  and  N_5 
REMARK    4  A    between atoms: C_4  and  C_22 
REMARK    5  A    between atoms: N_5  and  C_6 
REMARK    6  A    between atoms: C_8  and  C_9 
REMARK    7  A    between atoms: C_16  and  C_17 
REMARK       I    between atoms: C_22  and  N_23 
REMARK    8  A    between atoms: N_23  and  C_24 
REMARK    9  A    between atoms: C_24  and  C_25 
REMARK   10  A    between atoms: C_25  and  O_26 
ROOT
HETATM    1  C   UNL     1      26.105  43.999  52.205  1.00  0.00     0.108 A 
HETATM    2  N   UNL     1      26.938  44.358  53.187  1.00  0.00    -0.215 NA
HETATM    3  C   UNL     1      28.034  43.602  53.405  1.00  0.00     0.180 A 
HETATM    4  N   UNL     1      28.325  42.491  52.701  1.00  0.00    -0.222 NA
HETATM    5  C   UNL     1      27.459  42.123  51.730  1.00  0.00     0.146 A 
HETATM    6  C   UNL     1      26.330  42.872  51.443  1.00  0.00     0.080 A 
ENDROOT
BRANCH   1   7
HETATM    7  N   UNL     1      24.934  44.740  51.961  1.00  0.00    -0.264 NA
HETATM    8  H   UNL     1      24.137  44.183  52.255  1.00  0.00     0.130 HD
BRANCH   7   9
HETATM    9  C   UNL     1      24.784  45.234  50.563  1.00  0.00     0.154 C 
BRANCH   9  10
HETATM   10  C   UNL     1      23.506  44.645  49.936  1.00  0.00     0.033 C 
BRANCH  10  11
HETATM   11  C   UNL     1      23.735  43.643  48.784  1.00  0.00    -0.021 C 
HETATM   12  C   UNL     1      23.056  44.072  47.482  1.00  0.00     0.009 C 
HETATM   13  C   UNL     1      23.225  42.259  49.198  1.00  0.00     0.009 C 
ENDBRANCH  10  11
ENDBRANCH   9  10
BRANCH   9  14
HETATM   14  C   UNL     1      24.651  46.780  50.543  1.00  0.00     0.235 C 
HETATM   15  N   UNL     1      24.170  47.279  49.348  1.00  0.00    -0.358 N 
HETATM   16  H   UNL     1      23.636  46.595  48.815  1.00  0.00     0.162 HD
HETATM   17  O   UNL     1      25.019  47.491  51.475  1.00  0.00    -0.272 OA
BRANCH  15  18
HETATM   18  C   UNL     1      23.732  48.655  49.237  1.00  0.00     0.148 C 
BRANCH  18  19
HETATM   19  C   UNL     1      24.735  49.493  48.447  1.00  0.00     0.186 C 
BRANCH  19  20
HETATM   20  O   UNL     1      24.046  50.151  47.376  1.00  0.00    -0.394 OA
HETATM   21  C   UNL     1      22.683  50.394  47.699  1.00  0.00     0.201 C 
ENDBRANCH  19  20
ENDBRANCH  18  19
ENDBRANCH  15  18
ENDBRANCH   9  14
ENDBRANCH   7   9
ENDBRANCH   1   7
BRANCH   3  22
HETATM   22  C   UNL     1      28.973  44.045  54.468  1.00  0.00     0.104 A 
HETATM   23  N   UNL     1      28.706  45.229  55.090  1.00  0.00    -0.257 NA
HETATM   24  C   UNL     1      29.538  45.638  56.072  1.00  0.00     0.117 A 
HETATM   25  C   UNL     1      30.646  44.924  56.489  1.00  0.00     0.019 A 
HETATM   26  C   UNL     1      30.922  43.719  55.858  1.00  0.00     0.004 A 
HETATM   27  C   UNL     1      30.082  43.276  54.838  1.00  0.00     0.036 A 
ENDBRANCH   3  22
BRANCH   5  28
HETATM   28  C   UNL     1      27.720  40.865  50.923  1.00  0.00     0.434 C 
HETATM   29  F   UNL     1      28.660  40.032  51.449  1.00  0.00    -0.165 F 
HETATM   30  F   UNL     1      26.595  40.104  50.770  1.00  0.00    -0.165 F 
HETATM   31  F   UNL     1      28.138  41.145  49.653  1.00  0.00    -0.165 F 
ENDBRANCH   5  28
TORSDOF 10
ENDMDL
MODEL 5
REMARK VINA RESULT:      -7.6      3.743      5.295
REMARK  10 active torsions:
REMARK  status: ('A' for Active; 'I' for Inactive)
REMARK    1  A    between atoms: C_2  and  C_3 
REMARK    2  A    between atoms: C_3  and  C_4 
REMARK    3  A    between atoms: C_4  and  N_5 
REMARK    4  A    between atoms: C_4  and  C_22 
REMARK    5  A    between atoms: N_5  and  C_6 
REMARK    6  A    between atoms: C_8  and  C_9 
REMARK    7  A    between atoms: C_16  and  C_17 
REMARK       I    between atoms: C_22  and  N_23 
REMARK    8  A    between atoms: N_23  and  C_24 
REMARK    9  A    between atoms: C_24  and  C_25 
REMARK   10  A    between atoms: C_25  and  O_26 
ROOT
HETATM    1  C   UNL     1      27.350  44.155  50.974  1.00  0.00     0.108 A 
HETATM    2  N   UNL     1      27.963  44.435  52.129  1.00  0.00    -0.215 NA
HETATM    3  C   UNL     1      28.633  43.444  52.754  1.00  0.00     0.180 A 
HETATM    4  N   UNL     1      28.699  42.182  52.289  1.00  0.00    -0.222 NA
HETATM    5  C   UNL     1      28.050  41.906  51.135  1.00  0.00     0.146 A 
HETATM    6  C   UNL     1      27.367  42.887  50.436  1.00  0.00     0.080 A 
ENDROOT
BRANCH   1   7
HETATM    7  N   UNL     1      26.615  45.150  50.301  1.00  0.00    -0.264 NA
HETATM    8  H   UNL     1      27.263  45.865  49.984  1.00  0.00     0.130 HD
BRANCH   7   9
HETATM    9  C   UNL     1      25.484  45.728  51.079  1.00  0.00     0.154 C 
BRANCH   9  10
HETATM   10  C   UNL     1      25.950  47.004  51.807  1.00  0.00     0.033 C 
BRANCH  10  11
HETATM   11  C   UNL     1      25.695  47.028  53.329  1.00  0.00    -0.021 C 
HETATM   12  C   UNL     1      26.869  47.614  54.117  1.00  0.00     0.009 C 
HETATM   13  C   UNL     1      25.404  45.607  53.823  1.00  0.00     0.009 C 
ENDBRANCH  10  11
ENDBRANCH   9  10
BRANCH   9  14
HETATM   14  C   UNL     1      24.318  46.122  50.134  1.00  0.00     0.235 C 
HETATM   15  N   UNL     1      23.958  47.453  50.224  1.00  0.00    -0.358 N 
HETATM   16  H   UNL     1      24.704  48.046  50.583  1.00  0.00     0.162 HD
HETATM   17  O   UNL     1      23.722  45.305  49.437  1.00  0.00    -0.272 OA
BRANCH  15  18
HETATM   18  C   UNL     1      23.083  48.056  49.240  1.00  0.00     0.148 C 
BRANCH  18  19
HETATM   19  C   UNL     1      23.692  49.334  48.668  1.00  0.00     0.186 C 
BRANCH  19  20
HETATM   20  O   UNL     1      25.036  49.463  49.151  1.00  0.00    -0.394 OA
HETATM   21  C   UNL     1      25.931  49.849  48.117  1.00  0.00     0.201 C 
ENDBRANCH  19  20
ENDBRANCH  18  19
ENDBRANCH  15  18
ENDBRANCH   9  14
ENDBRANCH   7   9
ENDBRANCH   1   7
BRANCH   3  22
HETATM   22  C   UNL     1      29.348  43.785  54.010  1.00  0.00     0.104 A 
HETATM   23  N   UNL     1      28.960  44.917  54.668  1.00  0.00    -0.257 NA
HETATM   24  C   UNL     1      29.587  45.232  55.821  1.00  0.00     0.117 A 
HETATM   25  C   UNL     1      30.599  44.473  56.381  1.00  0.00     0.019 A 
HETATM   26  C   UNL     1      30.997  43.323  55.715  1.00  0.00     0.004 A 
HETATM   27  C   UNL     1      30.370  42.975  54.519  1.00  0.00     0.036 A 
ENDBRANCH   3  22
BRANCH   5  28
HETATM   28  C   UNL     1      28.065  40.494  50.580  1.00  0.00     0.434 C 
HETATM   29  F   UNL     1      28.470  40.393  49.284  1.00  0.00    -0.165 F 
HETATM   30  F   UNL     1      28.886  39.665  51.290  1.00  0.00    -0.165 F 
HETATM   31  F   UNL     1      26.832  39.907  50.633  1.00  0.00    -0.165 F 
ENDBRANCH   5  28
TORSDOF 10
ENDMDL
MODEL 6
REMARK VINA RESULT:      -7.5      3.057      5.074
REMARK  10 active torsions:
REMARK  status: ('A' for Active; 'I' for Inactive)
REMARK    1  A    between atoms: C_2  and  C_3 
REMARK    2  A    between atoms: C_3  and  C_4 
REMARK    3  A    between atoms: C_4  and  N_5 
REMARK    4  A    between atoms: C_4  and  C_22 
REMARK    5  A    between atoms: N_5  and  C_6 
REMARK    6  A    between atoms: C_8  and  C_9 
REMARK    7  A    between atoms: C_16  and  C_17 
REMARK       I    between atoms: C_22  and  N_23 
REMARK    8  A    between atoms: N_23  and  C_24 
REMARK    9  A    between atoms: C_24  and  C_25 
REMARK   10  A    between atoms: C_25  and  O_26 
ROOT
HETATM    1  C   UNL     1      28.322  43.451  52.427  1.00  0.00     0.108 A 
HETATM    2  N   UNL     1      29.156  43.462  53.472  1.00  0.00    -0.215 NA
HETATM    3  C   UNL     1      28.959  44.383  54.438  1.00  0.00     0.180 A 
HETATM    4  N   UNL     1      27.980  45.308  54.397  1.00  0.00    -0.222 NA
HETATM    5  C   UNL     1      27.162  45.304  53.320  1.00  0.00     0.146 A 
HETATM    6  C   UNL     1      27.300  44.367  52.309  1.00  0.00     0.080 A 
ENDROOT
BRANCH   1   7
HETATM    7  N   UNL     1      28.507  42.527  51.381  1.00  0.00    -0.264 NA
HETATM    8  H   UNL     1      29.057  42.974  50.654  1.00  0.00     0.130 HD
BRANCH   7   9
HETATM    9  C   UNL     1      27.252  41.928  50.844  1.00  0.00     0.154 C 
BRANCH   9  10
HETATM   10  C   UNL     1      26.860  42.634  49.531  1.00  0.00     0.033 C 
BRANCH  10  11
HETATM   11  C   UNL     1      25.382  43.069  49.430  1.00  0.00    -0.021 C 
HETATM   12  C   UNL     1      25.221  44.579  49.248  1.00  0.00     0.009 C 
HETATM   13  C   UNL     1      24.628  42.619  50.685  1.00  0.00     0.009 C 
ENDBRANCH  10  11
ENDBRANCH   9  10
BRANCH   9  14
HETATM   14  C   UNL     1      27.458  40.423  50.529  1.00  0.00     0.235 C 
HETATM   15  N   UNL     1      28.786  40.049  50.458  1.00  0.00    -0.358 N 
HETATM   16  H   UNL     1      29.406  40.675  50.969  1.00  0.00     0.162 HD
HETATM   17  O   UNL     1      26.526  39.661  50.285  1.00  0.00    -0.272 OA
BRANCH  15  18
HETATM   18  C   UNL     1      29.167  38.651  50.440  1.00  0.00     0.148 C 
BRANCH  18  19
HETATM   19  C   UNL     1      29.673  38.235  49.061  1.00  0.00     0.186 C 
BRANCH  19  20
HETATM   20  O   UNL     1      28.585  37.662  48.323  1.00  0.00    -0.394 OA
HETATM   21  C   UNL     1      28.282  38.420  47.159  1.00  0.00     0.201 C 
ENDBRANCH  19  20
ENDBRANCH  18  19
ENDBRANCH  15  18
ENDBRANCH   9  14
ENDBRANCH   7   9
ENDBRANCH   1   7
BRANCH   3  22
HETATM   22  C   UNL     1      29.865  44.349  55.615  1.00  0.00     0.104 A 
HETATM   23  N   UNL     1      29.762  45.367  56.518  1.00  0.00    -0.257 NA
HETATM   24  C   UNL     1      30.564  45.342  57.603  1.00  0.00     0.117 A 
HETATM   25  C   UNL     1      31.483  44.341  57.859  1.00  0.00     0.019 A 
HETATM   26  C   UNL     1      31.591  43.304  56.943  1.00  0.00     0.004 A 
HETATM   27  C   UNL     1      30.778  43.307  55.811  1.00  0.00     0.036 A 
ENDBRANCH   3  22
BRANCH   5  28
HETATM   28  C   UNL     1      26.061  46.341  53.205  1.00  0.00     0.434 C 
HETATM   29  F   UNL     1      26.419  47.489  52.566  1.00  0.00    -0.165 F 
HETATM   30  F   UNL     1      24.970  45.868  52.533  1.00  0.00    -0.165 F 
HETATM   31  F   UNL     1      25.588  46.727  54.428  1.00  0.00    -0.165 F 
ENDBRANCH   5  28
TORSDOF 10
ENDMDL
MODEL 7
REMARK VINA RESULT:      -7.3      3.609      4.588
REMARK  10 active torsions:
REMARK  status: ('A' for Active; 'I' for Inactive)
REMARK    1  A    between atoms: C_2  and  C_3 
REMARK    2  A    between atoms: C_3  and  C_4 
REMARK    3  A    between atoms: C_4  and  N_5 
REMARK    4  A    between atoms: C_4  and  C_22 
REMARK    5  A    between atoms: N_5  and  C_6 
REMARK    6  A    between atoms: C_8  and  C_9 
REMARK    7  A    between atoms: C_16  and  C_17 
REMARK       I    between atoms: C_22  and  N_23 
REMARK    8  A    between atoms: N_23  and  C_24 
REMARK    9  A    between atoms: C_24  and  C_25 
REMARK   10  A    between atoms: C_25  and  O_26 
ROOT
HETATM    1  C   UNL     1      27.001  42.197  52.124  1.00  0.00     0.108 A 
HETATM    2  N   UNL     1      27.935  42.455  53.044  1.00  0.00    -0.215 NA
HETATM    3  C   UNL     1      28.061  43.724  53.489  1.00  0.00     0.180 A 
HETATM    4  N   UNL     1      27.312  44.749  53.039  1.00  0.00    -0.222 NA
HETATM    5  C   UNL     1      26.391  44.478  52.087  1.00  0.00     0.146 A 
HETATM    6  C   UNL     1      26.198  43.192  51.610  1.00  0.00     0.080 A 
ENDROOT
BRANCH   1   7
HETATM    7  N   UNL     1      26.852  40.895  51.610  1.00  0.00    -0.264 NA
HETATM    8  H   UNL     1      27.076  40.233  52.347  1.00  0.00     0.130 HD
BRANCH   7   9
HETATM    9  C   UNL     1      27.620  40.621  50.363  1.00  0.00     0.154 C 
BRANCH   9  10
HETATM   10  C   UNL     1      27.910  39.112  50.250  1.00  0.00     0.033 C 
BRANCH  10  11
HETATM   11  C   UNL     1      29.285  38.745  49.652  1.00  0.00    -0.021 C 
HETATM   12  C   UNL     1      29.173  37.996  48.323  1.00  0.00     0.009 C 
HETATM   13  C   UNL     1      30.070  37.895  50.656  1.00  0.00     0.009 C 
ENDBRANCH  10  11
ENDBRANCH   9  10
BRANCH   9  14
HETATM   14  C   UNL     1      26.800  41.041  49.115  1.00  0.00     0.235 C 
HETATM   15  N   UNL     1      25.560  40.437  49.038  1.00  0.00    -0.358 N 
HETATM   16  H   UNL     1      25.213  40.121  49.942  1.00  0.00     0.162 HD
HETATM   17  O   UNL     1      27.250  41.776  48.239  1.00  0.00    -0.272 OA
BRANCH  15  18
HETATM   18  C   UNL     1      24.560  40.903  48.099  1.00  0.00     0.148 C 
BRANCH  18  19
HETATM   19  C   UNL     1      23.449  41.672  48.810  1.00  0.00     0.186 C 
BRANCH  19  20
HETATM   20  O   UNL     1      22.206  41.405  48.149  1.00  0.00    -0.394 OA
HETATM   21  C   UNL     1      22.299  40.277  47.289  1.00  0.00     0.201 C 
ENDBRANCH  19  20
ENDBRANCH  18  19
ENDBRANCH  15  18
ENDBRANCH   9  14
ENDBRANCH   7   9
ENDBRANCH   1   7
BRANCH   3  22
HETATM   22  C   UNL     1      29.071  43.983  54.547  1.00  0.00     0.104 A 
HETATM   23  N   UNL     1      28.985  45.165  55.223  1.00  0.00    -0.257 NA
HETATM   24  C   UNL     1      29.882  45.409  56.201  1.00  0.00     0.117 A 
HETATM   25  C   UNL     1      30.885  44.528  56.564  1.00  0.00     0.019 A 
HETATM   26  C   UNL     1      30.976  43.325  55.879  1.00  0.00     0.004 A 
HETATM   27  C   UNL     1      30.065  43.049  54.861  1.00  0.00     0.036 A 
ENDBRANCH   3  22
BRANCH   5  28
HETATM   28  C   UNL     1      25.538  45.598  51.521  1.00  0.00     0.434 C 
HETATM   29  F   UNL     1      24.203  45.335  51.476  1.00  0.00    -0.165 F 
HETATM   30  F   UNL     1      25.663  46.757  52.235  1.00  0.00    -0.165 F 
HETATM   31  F   UNL     1      25.899  45.925  50.244  1.00  0.00    -0.165 F 
ENDBRANCH   5  28
TORSDOF 10
ENDMDL
MODEL 8
REMARK VINA RESULT:      -7.2      4.214      7.492
REMARK  10 active torsions:
REMARK  status: ('A' for Active; 'I' for Inactive)
REMARK    1  A    between atoms: C_2  and  C_3 
REMARK    2  A    between atoms: C_3  and  C_4 
REMARK    3  A    between atoms: C_4  and  N_5 
REMARK    4  A    between atoms: C_4  and  C_22 
REMARK    5  A    between atoms: N_5  and  C_6 
REMARK    6  A    between atoms: C_8  and  C_9 
REMARK    7  A    between atoms: C_16  and  C_17 
REMARK       I    between atoms: C_22  and  N_23 
REMARK    8  A    between atoms: N_23  and  C_24 
REMARK    9  A    between atoms: C_24  and  C_25 
REMARK   10  A    between atoms: C_25  and  O_26 
ROOT
HETATM    1  C   UNL     1      25.217  44.361  51.678  1.00  0.00     0.108 A 
HETATM    2  N   UNL     1      25.664  45.534  51.218  1.00  0.00    -0.215 NA
HETATM    3  C   UNL     1      25.237  45.951  50.007  1.00  0.00     0.180 A 
HETATM    4  N   UNL     1      24.402  45.238  49.226  1.00  0.00    -0.222 NA
HETATM    5  C   UNL     1      23.982  44.040  49.692  1.00  0.00     0.146 A 
HETATM    6  C   UNL     1      24.366  43.571  50.937  1.00  0.00     0.080 A 
ENDROOT
BRANCH   1   7
HETATM    7  N   UNL     1      25.659  43.872  52.922  1.00  0.00    -0.264 NA
HETATM    8  H   UNL     1      24.971  44.125  53.626  1.00  0.00     0.130 HD
BRANCH   7   9
HETATM    9  C   UNL     1      27.034  44.293  53.310  1.00  0.00     0.154 C 
BRANCH   9  10
HETATM   10  C   UNL     1      27.139  44.383  54.845  1.00  0.00     0.033 C 
BRANCH  10  11
HETATM   11  C   UNL     1      27.735  45.698  55.391  1.00  0.00    -0.021 C 
HETATM   12  C   UNL     1      27.400  46.908  54.517  1.00  0.00     0.009 C 
HETATM   13  C   UNL     1      29.255  45.560  55.516  1.00  0.00     0.009 C 
ENDBRANCH  10  11
ENDBRANCH   9  10
BRANCH   9  14
HETATM   14  C   UNL     1      28.079  43.254  52.824  1.00  0.00     0.235 C 
HETATM   15  N   UNL     1      27.632  41.948  52.891  1.00  0.00    -0.358 N 
HETATM   16  H   UNL     1      26.617  41.871  52.880  1.00  0.00     0.162 HD
HETATM   17  O   UNL     1      29.221  43.563  52.493  1.00  0.00    -0.272 OA
BRANCH  15  18
HETATM   18  C   UNL     1      28.359  40.878  52.239  1.00  0.00     0.148 C 
BRANCH  18  19
HETATM   19  C   UNL     1      27.843  40.643  50.821  1.00  0.00     0.186 C 
BRANCH  19  20
HETATM   20  O   UNL     1      26.409  40.653  50.843  1.00  0.00    -0.394 OA
HETATM   21  C   UNL     1      25.863  40.500  49.540  1.00  0.00     0.201 C 
ENDBRANCH  19  20
ENDBRANCH  18  19
ENDBRANCH  15  18
ENDBRANCH   9  14
ENDBRANCH   7   9
ENDBRANCH   1   7
BRANCH   3  22
HETATM   22  C   UNL     1      25.704  47.279  49.534  1.00  0.00     0.104 A 
HETATM   23  N   UNL     1      27.049  47.456  49.384  1.00  0.00    -0.257 NA
HETATM   24  C   UNL     1      27.490  48.651  48.936  1.00  0.00     0.117 A 
HETATM   25  C   UNL     1      26.659  49.708  48.616  1.00  0.00     0.019 A 
HETATM   26  C   UNL     1      25.291  49.533  48.768  1.00  0.00     0.004 A 
HETATM   27  C   UNL     1      24.808  48.311  49.233  1.00  0.00     0.036 A 
ENDBRANCH   3  22
BRANCH   5  28
HETATM   28  C   UNL     1      23.064  43.181  48.842  1.00  0.00     0.434 C 
HETATM   29  F   UNL     1      21.931  43.802  48.415  1.00  0.00    -0.165 F 
HETATM   30  F   UNL     1      23.681  42.718  47.715  1.00  0.00    -0.165 F 
HETATM   31  F   UNL     1      22.648  42.061  49.506  1.00  0.00    -0.165 F 
ENDBRANCH   5  28
TORSDOF 10
ENDMDL
MODEL 9
REMARK VINA RESULT:      -7.2      3.909      6.399
REMARK  10 active torsions:
REMARK  status: ('A' for Active; 'I' for Inactive)
REMARK    1  A    between atoms: C_2  and  C_3 
REMARK    2  A    between atoms: C_3  and  C_4 
REMARK    3  A    between atoms: C_4  and  N_5 
REMARK    4  A    between atoms: C_4  and  C_22 
REMARK    5  A    between atoms: N_5  and  C_6 
REMARK    6  A    between atoms: C_8  and  C_9 
REMARK    7  A    between atoms: C_16  and  C_17 
REMARK       I    between atoms: C_22  and  N_23 
REMARK    8  A    between atoms: N_23  and  C_24 
REMARK    9  A    between atoms: C_24  and  C_25 
REMARK   10  A    between atoms: C_25  and  O_26 
ROOT
HETATM    1  C   UNL     1      26.674  43.481  49.598  1.00  0.00     0.108 A 
HETATM    2  N   UNL     1      27.538  43.285  50.600  1.00  0.00    -0.215 NA
HETATM    3  C   UNL     1      27.563  44.183  51.608  1.00  0.00     0.180 A 
HETATM    4  N   UNL     1      26.780  45.277  51.649  1.00  0.00    -0.222 NA
HETATM    5  C   UNL     1      25.931  45.478  50.615  1.00  0.00     0.146 A 
HETATM    6  C   UNL     1      25.843  44.579  49.565  1.00  0.00     0.080 A 
ENDROOT
BRANCH   1   7
HETATM    7  N   UNL     1      26.634  42.586  48.511  1.00  0.00    -0.264 NA
HETATM    8  H   UNL     1      26.474  43.123  47.663  1.00  0.00     0.130 HD
BRANCH   7   9
HETATM    9  C   UNL     1      25.661  41.467  48.655  1.00  0.00     0.154 C 
BRANCH   9  10
HETATM   10  C   UNL     1      24.704  41.450  47.448  1.00  0.00     0.033 C 
BRANCH  10  11
HETATM   11  C   UNL     1      23.225  41.751  47.771  1.00  0.00    -0.021 C 
HETATM   12  C   UNL     1      23.018  42.224  49.212  1.00  0.00     0.009 C 
HETATM   13  C   UNL     1      22.378  40.501  47.514  1.00  0.00     0.009 C 
ENDBRANCH  10  11
ENDBRANCH   9  10
BRANCH   9  14
HETATM   14  C   UNL     1      26.401  40.104  48.692  1.00  0.00     0.235 C 
HETATM   15  N   UNL     1      27.537  40.111  49.479  1.00  0.00    -0.358 N 
HETATM   16  H   UNL     1      27.527  40.841  50.189  1.00  0.00     0.162 HD
HETATM   17  O   UNL     1      26.050  39.138  48.018  1.00  0.00    -0.272 OA
BRANCH  15  18
HETATM   18  C   UNL     1      28.199  38.876  49.843  1.00  0.00     0.148 C 
BRANCH  18  19
HETATM   19  C   UNL     1      29.498  38.693  49.060  1.00  0.00     0.186 C 
BRANCH  19  20
HETATM   20  O   UNL     1      30.298  37.702  49.718  1.00  0.00    -0.394 OA
HETATM   21  C   UNL     1      29.990  37.612  51.103  1.00  0.00     0.201 C 
ENDBRANCH  19  20
ENDBRANCH  18  19
ENDBRANCH  15  18
ENDBRANCH   9  14
ENDBRANCH   7   9
ENDBRANCH   1   7
BRANCH   3  22
HETATM   22  C   UNL     1      28.494  43.923  52.736  1.00  0.00     0.104 A 
HETATM   23  N   UNL     1      28.282  44.609  53.896  1.00  0.00    -0.257 NA
HETATM   24  C   UNL     1      29.107  44.371  54.939  1.00  0.00     0.117 A 
HETATM   25  C   UNL     1      30.154  43.468  54.902  1.00  0.00     0.019 A 
HETATM   26  C   UNL     1      30.372  42.769  53.723  1.00  0.00     0.004 A 
HETATM   27  C   UNL     1      29.539  42.998  52.630  1.00  0.00     0.036 A 
ENDBRANCH   3  22
BRANCH   5  28
HETATM   28  C   UNL     1      25.046  46.710  50.593  1.00  0.00     0.434 C 
HETATM   29  F   UNL     1      25.551  47.766  49.897  1.00  0.00    -0.165 F 
HETATM   30  F   UNL     1      23.819  46.459  50.047  1.00  0.00    -0.165 F 
HETATM   31  F   UNL     1      24.788  47.180  51.850  1.00  0.00    -0.165 F 
ENDBRANCH   5  28
TORSDOF 10
ENDMDL
MODEL 10
REMARK VINA RESULT:      -7.1      3.371      7.367
REMARK  10 active torsions:
REMARK  status: ('A' for Active; 'I' for Inactive)
REMARK    1  A    between atoms: C_2  and  C_3 
REMARK    2  A    between atoms: C_3  and  C_4 
REMARK    3  A    between atoms: C_4  and  N_5 
REMARK    4  A    between atoms: C_4  and  C_22 
REMARK    5  A    between atoms: N_5  and  C_6 
REMARK    6  A    between atoms: C_8  and  C_9 
REMARK    7  A    between atoms: C_16  and  C_17 
REMARK       I    between atoms: C_22  and  N_23 
REMARK    8  A    between atoms: N_23  and  C_24 
REMARK    9  A    between atoms: C_24  and  C_25 
REMARK   10  A    between atoms: C_25  and  O_26 
ROOT
HETATM    1  C   UNL     1      26.073  45.224  50.386  1.00  0.00     0.108 A 
HETATM    2  N   UNL     1      25.417  46.114  49.636  1.00  0.00    -0.215 NA
HETATM    3  C   UNL     1      24.990  47.253  50.222  1.00  0.00     0.180 A 
HETATM    4  N   UNL     1      25.170  47.531  51.528  1.00  0.00    -0.222 NA
HETATM    5  C   UNL     1      25.809  46.608  52.281  1.00  0.00     0.146 A 
HETATM    6  C   UNL     1      26.292  45.432  51.731  1.00  0.00     0.080 A 
ENDROOT
BRANCH   1   7
HETATM    7  N   UNL     1      26.511  44.009  49.825  1.00  0.00    -0.264 NA
HETATM    8  H   UNL     1      26.643  44.148  48.827  1.00  0.00     0.130 HD
BRANCH   7   9
HETATM    9  C   UNL     1      25.642  42.834  50.115  1.00  0.00     0.154 C 
BRANCH   9  10
HETATM   10  C   UNL     1      25.007  42.321  48.808  1.00  0.00     0.033 C 
BRANCH  10  11
HETATM   11  C   UNL     1      23.468  42.424  48.736  1.00  0.00    -0.021 C 
HETATM   12  C   UNL     1      22.824  41.209  48.064  1.00  0.00     0.009 C 
HETATM   13  C   UNL     1      23.074  43.697  47.982  1.00  0.00     0.009 C 
ENDBRANCH  10  11
ENDBRANCH   9  10
BRANCH   9  14
HETATM   14  C   UNL     1      26.477  41.675  50.721  1.00  0.00     0.235 C 
HETATM   15  N   UNL     1      27.714  42.072  51.192  1.00  0.00    -0.358 N 
HETATM   16  H   UNL     1      27.757  43.063  51.418  1.00  0.00     0.162 HD
HETATM   17  O   UNL     1      26.101  40.506  50.706  1.00  0.00    -0.272 OA
BRANCH  15  18
HETATM   18  C   UNL     1      28.512  41.193  52.022  1.00  0.00     0.148 C 
BRANCH  18  19
HETATM   19  C   UNL     1      28.319  41.507  53.504  1.00  0.00     0.186 C 
BRANCH  19  20
HETATM   20  O   UNL     1      27.670  42.779  53.626  1.00  0.00    -0.394 OA
HETATM   21  C   UNL     1      28.451  43.698  54.379  1.00  0.00     0.201 C 
ENDBRANCH  19  20
ENDBRANCH  18  19
ENDBRANCH  15  18
ENDBRANCH   9  14
ENDBRANCH   7   9
ENDBRANCH   1   7
BRANCH   3  22
HETATM   22  C   UNL     1      24.307  48.253  49.362  1.00  0.00     0.104 A 
HETATM   23  N   UNL     1      22.959  48.121  49.193  1.00  0.00    -0.257 NA
HETATM   24  C   UNL     1      22.318  49.033  48.431  1.00  0.00     0.117 A 
HETATM   25  C   UNL     1      22.947  50.098  47.812  1.00  0.00     0.019 A 
HETATM   26  C   UNL     1      24.317  50.235  47.981  1.00  0.00     0.004 A 
HETATM   27  C   UNL     1      25.005  49.306  48.760  1.00  0.00     0.036 A 
ENDBRANCH   3  22
BRANCH   5  28
HETATM   28  C   UNL     1      26.014  46.854  53.764  1.00  0.00     0.434 C 
HETATM   29  F   UNL     1      25.531  48.043  54.219  1.00  0.00    -0.165 F 
HETATM   30  F   UNL     1      25.423  45.894  54.536  1.00  0.00    -0.165 F 
HETATM   31  F   UNL     1      27.335  46.829  54.112  1.00  0.00    -0.165 F 
ENDBRANCH   5  28
TORSDOF 10
ENDMDL
