MODEL 1
REMARK VINA RESULT:      -8.9      0.000      0.000
REMARK  7 active torsions:
REMARK  status: ('A' for Active; 'I' for Inactive)
REMARK    1  A    between atoms: C_2  and  C_3 
REMARK    2  A    between atoms: C_3  and  N_4 
REMARK       I    between atoms: N_4  and  C_5 
REMARK    3  A    between atoms: C_5  and  C_6 
REMARK    4  A    between atoms: C_8  and  N_9 
REMARK       I    between atoms: N_9  and  C_10 
REMARK    5  A    between atoms: C_10  and  C_11 
REMARK    6  A    between atoms: C_13  and  O_14 
REMARK    7  A    between atoms: O_14  and  C_15 
ROOT
HETATM    1  N   UNL     1      26.423  46.931  50.689  1.00  0.00    -0.323 N 
HETATM    2  C   UNL     1      26.061  46.766  52.015  1.00  0.00     0.256 C 
HETATM    3  O   UNL     1      25.401  47.567  52.674  1.00  0.00    -0.267 OA
HETATM    4  H   UNL     1      27.129  46.321  50.303  1.00  0.00     0.169 HD
ENDROOT
BRANCH   1   5
HETATM    5  C   UNL     1      25.967  47.954  49.821  1.00  0.00     0.035 A 
HETATM    6  C   UNL     1      24.616  48.179  49.548  1.00  0.00     0.046 A 
HETATM    7  C   UNL     1      24.217  49.222  48.699  1.00  0.00     0.034 A 
HETATM    8  C   UNL     1      25.184  50.012  48.072  1.00  0.00     0.017 A 
HETATM    9  C   UNL     1      26.537  49.776  48.315  1.00  0.00     0.003 A 
HETATM   10  C   UNL     1      26.926  48.755  49.189  1.00  0.00     0.029 A 
BRANCH   7  11
HETATM   11  C   UNL     1      22.775  49.491  48.429  1.00  0.00     0.251 C 
HETATM   12  N   UNL     1      21.933  49.429  49.521  1.00  0.00    -0.357 N 
HETATM   13  H   UNL     1      22.342  49.442  50.447  1.00  0.00     0.162 HD
HETATM   14  O   UNL     1      22.401  49.775  47.298  1.00  0.00    -0.268 OA
BRANCH  12  15
HETATM   15  C   UNL     1      20.524  49.738  49.410  1.00  0.00     0.122 C 
BRANCH  15  16
HETATM   16  C   UNL     1      20.234  51.197  49.744  1.00  0.00     0.015 C 
HETATM   17  C   UNL     1      19.793  52.001  48.529  1.00  0.00     0.006 C 
ENDBRANCH  15  16
ENDBRANCH  12  15
ENDBRANCH   7  11
ENDBRANCH   1   5
BRANCH   2  18
HETATM   18  C   UNL     1      26.527  45.526  52.708  1.00  0.00     0.037 A 
HETATM   19  C   UNL     1      27.297  45.527  53.870  1.00  0.00     0.075 A 
HETATM   20  C   UNL     1      27.725  44.305  54.361  1.00  0.00     0.165 A 
HETATM   21  N   UNL     1      27.439  43.116  53.798  1.00  0.00    -0.237 NA
HETATM   22  C   UNL     1      26.685  43.138  52.684  1.00  0.00     0.120 A 
HETATM   23  C   UNL     1      26.213  44.300  52.107  1.00  0.00     0.036 A 
BRANCH  20  24
HETATM   24  O   UNL     1      28.489  44.327  55.514  1.00  0.00    -0.329 OA
BRANCH  24  25
HETATM   25  C   UNL     1      29.907  44.548  55.319  1.00  0.00     0.130 C 
HETATM   26  C   UNL     1      30.815  43.311  55.101  1.00  0.00     0.032 C 
HETATM   27  C   UNL     1      31.126  43.329  56.605  1.00  0.00     0.005 C 
HETATM   28  C   UNL     1      30.705  44.808  56.622  1.00  0.00     0.032 C 
ENDBRANCH  24  25
ENDBRANCH  20  24
ENDBRANCH   2  18
TORSDOF 7
ENDMDL
MODEL 2
REMARK VINA RESULT:      -8.8      1.543      9.903
REMARK  7 active torsions:
REMARK  status: ('A' for Active; 'I' for Inactive)
REMARK    1  A    between atoms: C_2  and  C_3 
REMARK    2  A    between atoms: C_3  and  N_4 
REMARK       I    between atoms: N_4  and  C_5 
REMARK    3  A    between atoms: C_5  and  C_6 
REMARK    4  A    between atoms: C_8  and  N_9 
REMARK       I    between atoms: N_9  and  C_10 
REMARK    5  A    between atoms: C_10  and  C_11 
REMARK    6  A    between atoms: C_13  and  O_14 
REMARK    7  A    between atoms: O_14  and  C_15 
ROOT
HETATM    1  N   UNL     1      25.507  47.377  51.584  1.00  0.00    -0.323 N 
HETATM    2  C   UNL     1      25.908  47.369  50.258  1.00  0.00     0.256 C 
HETATM    3  O   UNL     1      26.699  46.569  49.762  1.00  0.00    -0.267 OA
HETATM    4  H   UNL     1      25.019  48.188  51.934  1.00  0.00     0.169 HD
ENDROOT
BRANCH   1   5
HETATM    5  C   UNL     1      25.803  46.384  52.550  1.00  0.00     0.035 A 
HETATM    6  C   UNL     1      26.854  46.494  53.463  1.00  0.00     0.046 A 
HETATM    7  C   UNL     1      27.089  45.492  54.415  1.00  0.00     0.034 A 
HETATM    8  C   UNL     1      26.297  44.341  54.418  1.00  0.00     0.017 A 
HETATM    9  C   UNL     1      25.263  44.208  53.491  1.00  0.00     0.003 A 
HETATM   10  C   UNL     1      25.015  45.227  52.565  1.00  0.00     0.029 A 
BRANCH   7  11
HETATM   11  C   UNL     1      28.188  45.617  55.415  1.00  0.00     0.251 C 
HETATM   12  N   UNL     1      29.243  44.738  55.268  1.00  0.00    -0.357 N 
HETATM   13  H   UNL     1      29.334  44.237  54.393  1.00  0.00     0.162 HD
HETATM   14  O   UNL     1      28.139  46.479  56.284  1.00  0.00    -0.268 OA
BRANCH  12  15
HETATM   15  C   UNL     1      30.405  44.799  56.128  1.00  0.00     0.122 C 
BRANCH  15  16
HETATM   16  C   UNL     1      31.168  43.478  56.146  1.00  0.00     0.015 C 
HETATM   17  C   UNL     1      32.088  43.349  57.352  1.00  0.00     0.006 C 
ENDBRANCH  15  16
ENDBRANCH  12  15
ENDBRANCH   7  11
ENDBRANCH   1   5
BRANCH   2  18
HETATM   18  C   UNL     1      25.350  48.429  49.362  1.00  0.00     0.037 A 
HETATM   19  C   UNL     1      23.987  48.655  49.181  1.00  0.00     0.075 A 
HETATM   20  C   UNL     1      23.611  49.620  48.262  1.00  0.00     0.165 A 
HETATM   21  N   UNL     1      24.473  50.359  47.538  1.00  0.00    -0.237 NA
HETATM   22  C   UNL     1      25.784  50.132  47.737  1.00  0.00     0.120 A 
HETATM   23  C   UNL     1      26.266  49.190  48.625  1.00  0.00     0.036 A 
BRANCH  20  24
HETATM   24  O   UNL     1      22.254  49.829  48.094  1.00  0.00    -0.329 OA
BRANCH  24  25
HETATM   25  C   UNL     1      21.732  51.046  48.680  1.00  0.00     0.130 C 
HETATM   26  C   UNL     1      21.183  50.982  50.128  1.00  0.00     0.032 C 
HETATM   27  C   UNL     1      19.777  50.789  49.538  1.00  0.00     0.005 C 
HETATM   28  C   UNL     1      20.295  51.415  48.233  1.00  0.00     0.032 C 
ENDBRANCH  24  25
ENDBRANCH  20  24
ENDBRANCH   2  18
TORSDOF 7
ENDMDL
MODEL 3
REMARK VINA RESULT:      -8.8      1.918      9.729
REMARK  7 active torsions:
REMARK  status: ('A' for Active; 'I' for Inactive)
REMARK    1  A    between atoms: C_2  and  C_3 
REMARK    2  A    between atoms: C_3  and  N_4 
REMARK       I    between atoms: N_4  and  C_5 
REMARK    3  A    between atoms: C_5  and  C_6 
REMARK    4  A    between atoms: C_8  and  N_9 
REMARK       I    between atoms: N_9  and  C_10 
REMARK    5  A    between atoms: C_10  and  C_11 
REMARK    6  A    between atoms: C_13  and  O_14 
REMARK    7  A    between atoms: O_14  and  C_15 
ROOT
HETATM    1  N   UNL     1      25.278  46.592  52.373  1.00  0.00    -0.323 N 
HETATM    2  C   UNL     1      25.448  47.194  51.138  1.00  0.00     0.256 C 
HETATM    3  O   UNL     1      26.421  47.868  50.806  1.00  0.00    -0.267 OA
HETATM    4  H   UNL     1      24.364  46.236  52.614  1.00  0.00     0.169 HD
ENDROOT
BRANCH   1   5
HETATM    5  C   UNL     1      26.250  46.507  53.400  1.00  0.00     0.035 A 
HETATM    6  C   UNL     1      27.072  45.393  53.585  1.00  0.00     0.046 A 
HETATM    7  C   UNL     1      28.036  45.371  54.604  1.00  0.00     0.034 A 
HETATM    8  C   UNL     1      28.140  46.452  55.482  1.00  0.00     0.017 A 
HETATM    9  C   UNL     1      27.303  47.558  55.323  1.00  0.00     0.003 A 
HETATM   10  C   UNL     1      26.367  47.586  54.285  1.00  0.00     0.029 A 
BRANCH   7  11
HETATM   11  C   UNL     1      28.940  44.199  54.788  1.00  0.00     0.251 C 
HETATM   12  N   UNL     1      30.074  44.423  55.544  1.00  0.00    -0.357 N 
HETATM   13  H   UNL     1      30.118  45.260  56.111  1.00  0.00     0.162 HD
HETATM   14  O   UNL     1      28.648  43.111  54.307  1.00  0.00    -0.268 OA
BRANCH  12  15
HETATM   15  C   UNL     1      30.998  43.354  55.857  1.00  0.00     0.122 C 
BRANCH  15  16
HETATM   16  C   UNL     1      31.510  43.449  57.291  1.00  0.00     0.015 C 
HETATM   17  C   UNL     1      31.031  44.706  58.003  1.00  0.00     0.006 C 
ENDBRANCH  15  16
ENDBRANCH  12  15
ENDBRANCH   7  11
ENDBRANCH   1   5
BRANCH   2  18
HETATM   18  C   UNL     1      24.352  47.029  50.133  1.00  0.00     0.037 A 
HETATM   19  C   UNL     1      23.553  48.076  49.677  1.00  0.00     0.075 A 
HETATM   20  C   UNL     1      22.523  47.767  48.804  1.00  0.00     0.165 A 
HETATM   21  N   UNL     1      22.247  46.525  48.361  1.00  0.00    -0.237 NA
HETATM   22  C   UNL     1      23.039  45.532  48.806  1.00  0.00     0.120 A 
HETATM   23  C   UNL     1      24.088  45.730  49.681  1.00  0.00     0.036 A 
BRANCH  20  24
HETATM   24  O   UNL     1      21.740  48.817  48.363  1.00  0.00    -0.329 OA
BRANCH  24  25
HETATM   25  C   UNL     1      21.791  50.018  49.171  1.00  0.00     0.130 C 
HETATM   26  C   UNL     1      20.466  50.549  49.775  1.00  0.00     0.032 C 
HETATM   27  C   UNL     1      20.347  51.493  48.569  1.00  0.00     0.005 C 
HETATM   28  C   UNL     1      21.862  51.339  48.363  1.00  0.00     0.032 C 
ENDBRANCH  24  25
ENDBRANCH  20  24
ENDBRANCH   2  18
TORSDOF 7
ENDMDL
MODEL 4
REMARK VINA RESULT:      -8.8      1.253      1.325
REMARK  7 active torsions:
REMARK  status: ('A' for Active; 'I' for Inactive)
REMARK    1  A    between atoms: C_2  and  C_3 
REMARK    2  A    between atoms: C_3  and  N_4 
REMARK       I    between atoms: N_4  and  C_5 
REMARK    3  A    between atoms: C_5  and  C_6 
REMARK    4  A    between atoms: C_8  and  N_9 
REMARK       I    between atoms: N_9  and  C_10 
REMARK    5  A    between atoms: C_10  and  C_11 
REMARK    6  A    between atoms: C_13  and  O_14 
REMARK    7  A    between atoms: O_14  and  C_15 
ROOT
HETATM    1  N   UNL     1      26.359  46.427  50.911  1.00  0.00    -0.323 N 
HETATM    2  C   UNL     1      26.773  45.171  50.500  1.00  0.00     0.256 C 
HETATM    3  O   UNL     1      26.853  44.799  49.331  1.00  0.00    -0.267 OA
HETATM    4  H   UNL     1      26.134  46.565  51.886  1.00  0.00     0.169 HD
ENDROOT
BRANCH   1   5
HETATM    5  C   UNL     1      26.116  47.542  50.071  1.00  0.00     0.035 A 
HETATM    6  C   UNL     1      24.839  47.919  49.650  1.00  0.00     0.046 A 
HETATM    7  C   UNL     1      24.652  49.046  48.837  1.00  0.00     0.034 A 
HETATM    8  C   UNL     1      25.762  49.771  48.394  1.00  0.00     0.017 A 
HETATM    9  C   UNL     1      27.044  49.385  48.784  1.00  0.00     0.003 A 
HETATM   10  C   UNL     1      27.219  48.279  49.622  1.00  0.00     0.029 A 
BRANCH   7  11
HETATM   11  C   UNL     1      23.289  49.476  48.411  1.00  0.00     0.251 C 
HETATM   12  N   UNL     1      22.268  49.225  49.306  1.00  0.00    -0.357 N 
HETATM   13  H   UNL     1      22.510  48.994  50.262  1.00  0.00     0.162 HD
HETATM   14  O   UNL     1      23.127  50.040  47.336  1.00  0.00    -0.268 OA
BRANCH  12  15
HETATM   15  C   UNL     1      20.911  49.654  49.047  1.00  0.00     0.122 C 
BRANCH  15  16
HETATM   16  C   UNL     1      20.653  51.066  49.562  1.00  0.00     0.015 C 
HETATM   17  C   UNL     1      19.886  51.924  48.565  1.00  0.00     0.006 C 
ENDBRANCH  15  16
ENDBRANCH  12  15
ENDBRANCH   7  11
ENDBRANCH   1   5
BRANCH   2  18
HETATM   18  C   UNL     1      27.131  44.181  51.562  1.00  0.00     0.037 A 
HETATM   19  C   UNL     1      27.603  44.533  52.825  1.00  0.00     0.075 A 
HETATM   20  C   UNL     1      27.971  43.511  53.684  1.00  0.00     0.165 A 
HETATM   21  N   UNL     1      27.894  42.200  53.384  1.00  0.00    -0.237 NA
HETATM   22  C   UNL     1      27.425  41.883  52.164  1.00  0.00     0.120 A 
HETATM   23  C   UNL     1      27.037  42.824  51.230  1.00  0.00     0.036 A 
BRANCH  20  24
HETATM   24  O   UNL     1      28.438  43.880  54.932  1.00  0.00    -0.329 OA
BRANCH  24  25
HETATM   25  C   UNL     1      29.802  44.366  54.970  1.00  0.00     0.130 C 
HETATM   26  C   UNL     1      30.942  43.329  55.139  1.00  0.00     0.032 C 
HETATM   27  C   UNL     1      30.912  43.609  56.650  1.00  0.00     0.005 C 
HETATM   28  C   UNL     1      30.240  44.956  56.334  1.00  0.00     0.032 C 
ENDBRANCH  24  25
ENDBRANCH  20  24
ENDBRANCH   2  18
TORSDOF 7
ENDMDL
MODEL 5
REMARK VINA RESULT:      -8.0      2.567     10.512
REMARK  7 active torsions:
REMARK  status: ('A' for Active; 'I' for Inactive)
REMARK    1  A    between atoms: C_2  and  C_3 
REMARK    2  A    between atoms: C_3  and  N_4 
REMARK       I    between atoms: N_4  and  C_5 
REMARK    3  A    between atoms: C_5  and  C_6 
REMARK    4  A    between atoms: C_8  and  N_9 
REMARK       I    between atoms: N_9  and  C_10 
REMARK    5  A    between atoms: C_10  and  C_11 
REMARK    6  A    between atoms: C_13  and  O_14 
REMARK    7  A    between atoms: O_14  and  C_15 
ROOT
HETATM    1  N   UNL     1      22.962  49.520  48.500  1.00  0.00    -0.323 N 
HETATM    2  C   UNL     1      22.187  50.458  49.162  1.00  0.00     0.256 C 
HETATM    3  O   UNL     1      22.460  50.964  50.248  1.00  0.00    -0.267 OA
HETATM    4  H   UNL     1      22.554  49.021  47.722  1.00  0.00     0.169 HD
ENDROOT
BRANCH   1   5
HETATM    5  C   UNL     1      24.265  49.107  48.868  1.00  0.00     0.035 A 
HETATM    6  C   UNL     1      24.512  48.058  49.758  1.00  0.00     0.046 A 
HETATM    7  C   UNL     1      25.824  47.673  50.071  1.00  0.00     0.034 A 
HETATM    8  C   UNL     1      26.900  48.382  49.531  1.00  0.00     0.017 A 
HETATM    9  C   UNL     1      26.664  49.449  48.664  1.00  0.00     0.003 A 
HETATM   10  C   UNL     1      25.353  49.806  48.332  1.00  0.00     0.029 A 
BRANCH   7  11
HETATM   11  C   UNL     1      26.096  46.534  50.993  1.00  0.00     0.251 C 
HETATM   12  N   UNL     1      25.554  46.637  52.259  1.00  0.00    -0.357 N 
HETATM   13  H   UNL     1      24.832  47.328  52.420  1.00  0.00     0.162 HD
HETATM   14  O   UNL     1      26.743  45.567  50.608  1.00  0.00    -0.268 OA
BRANCH  12  15
HETATM   15  C   UNL     1      25.683  45.570  53.228  1.00  0.00     0.122 C 
BRANCH  15  16
HETATM   16  C   UNL     1      26.872  45.790  54.159  1.00  0.00     0.015 C 
HETATM   17  C   UNL     1      27.979  44.767  53.948  1.00  0.00     0.006 C 
ENDBRANCH  15  16
ENDBRANCH  12  15
ENDBRANCH   7  11
ENDBRANCH   1   5
BRANCH   2  18
HETATM   18  C   UNL     1      20.904  50.873  48.514  1.00  0.00     0.037 A 
HETATM   19  C   UNL     1      20.012  51.787  49.072  1.00  0.00     0.075 A 
HETATM   20  C   UNL     1      18.824  52.021  48.401  1.00  0.00     0.165 A 
HETATM   21  N   UNL     1      18.477  51.431  47.240  1.00  0.00    -0.237 NA
HETATM   22  C   UNL     1      19.358  50.561  46.714  1.00  0.00     0.120 A 
HETATM   23  C   UNL     1      20.566  50.252  47.305  1.00  0.00     0.036 A 
BRANCH  20  24
HETATM   24  O   UNL     1      17.951  52.929  48.970  1.00  0.00    -0.329 OA
BRANCH  24  25
HETATM   25  C   UNL     1      16.906  52.359  49.796  1.00  0.00     0.130 C 
HETATM   26  C   UNL     1      15.698  51.695  49.089  1.00  0.00     0.032 C 
HETATM   27  C   UNL     1      14.940  53.024  49.234  1.00  0.00     0.005 C 
HETATM   28  C   UNL     1      15.904  53.390  50.374  1.00  0.00     0.032 C 
ENDBRANCH  24  25
ENDBRANCH  20  24
ENDBRANCH   2  18
TORSDOF 7
ENDMDL
MODEL 6
REMARK VINA RESULT:      -8.0      2.939      9.090
REMARK  7 active torsions:
REMARK  status: ('A' for Active; 'I' for Inactive)
REMARK    1  A    between atoms: C_2  and  C_3 
REMARK    2  A    between atoms: C_3  and  N_4 
REMARK       I    between atoms: N_4  and  C_5 
REMARK    3  A    between atoms: C_5  and  C_6 
REMARK    4  A    between atoms: C_8  and  N_9 
REMARK       I    between atoms: N_9  and  C_10 
REMARK    5  A    between atoms: C_10  and  C_11 
REMARK    6  A    between atoms: C_13  and  O_14 
REMARK    7  A    between atoms: O_14  and  C_15 
ROOT
HETATM    1  N   UNL     1      25.264  46.555  52.377  1.00  0.00    -0.323 N 
HETATM    2  C   UNL     1      25.423  47.171  51.147  1.00  0.00     0.256 C 
HETATM    3  O   UNL     1      26.361  47.901  50.836  1.00  0.00    -0.267 OA
HETATM    4  H   UNL     1      24.367  46.147  52.599  1.00  0.00     0.169 HD
ENDROOT
BRANCH   1   5
HETATM    5  C   UNL     1      26.219  46.522  53.422  1.00  0.00     0.035 A 
HETATM    6  C   UNL     1      27.087  45.448  53.631  1.00  0.00     0.046 A 
HETATM    7  C   UNL     1      28.031  45.476  54.667  1.00  0.00     0.034 A 
HETATM    8  C   UNL     1      28.070  46.568  55.539  1.00  0.00     0.017 A 
HETATM    9  C   UNL     1      27.187  47.633  55.356  1.00  0.00     0.003 A 
HETATM   10  C   UNL     1      26.270  47.611  54.301  1.00  0.00     0.029 A 
BRANCH   7  11
HETATM   11  C   UNL     1      28.984  44.348  54.877  1.00  0.00     0.251 C 
HETATM   12  N   UNL     1      30.087  44.625  55.661  1.00  0.00    -0.357 N 
HETATM   13  H   UNL     1      30.078  45.465  56.227  1.00  0.00     0.162 HD
HETATM   14  O   UNL     1      28.755  43.247  54.393  1.00  0.00    -0.268 OA
BRANCH  12  15
HETATM   15  C   UNL     1      31.052  43.602  56.001  1.00  0.00     0.122 C 
BRANCH  15  16
HETATM   16  C   UNL     1      31.549  43.744  57.436  1.00  0.00     0.015 C 
HETATM   17  C   UNL     1      30.910  44.917  58.164  1.00  0.00     0.006 C 
ENDBRANCH  15  16
ENDBRANCH  12  15
ENDBRANCH   7  11
ENDBRANCH   1   5
BRANCH   2  18
HETATM   18  C   UNL     1      24.357  46.948  50.121  1.00  0.00     0.037 A 
HETATM   19  C   UNL     1      23.973  45.690  49.661  1.00  0.00     0.075 A 
HETATM   20  C   UNL     1      23.026  45.635  48.651  1.00  0.00     0.165 A 
HETATM   21  N   UNL     1      22.446  46.714  48.091  1.00  0.00    -0.237 NA
HETATM   22  C   UNL     1      22.824  47.917  48.559  1.00  0.00     0.120 A 
HETATM   23  C   UNL     1      23.763  48.085  49.557  1.00  0.00     0.036 A 
BRANCH  20  24
HETATM   24  O   UNL     1      22.659  44.378  48.206  1.00  0.00    -0.329 OA
BRANCH  24  25
HETATM   25  C   UNL     1      23.694  43.367  48.263  1.00  0.00     0.130 C 
HETATM   26  C   UNL     1      23.749  42.314  47.128  1.00  0.00     0.032 C 
HETATM   27  C   UNL     1      22.928  41.372  48.022  1.00  0.00     0.005 C 
HETATM   28  C   UNL     1      23.400  42.194  49.232  1.00  0.00     0.032 C 
ENDBRANCH  24  25
ENDBRANCH  20  24
ENDBRANCH   2  18
TORSDOF 7
ENDMDL
MODEL 7
REMARK VINA RESULT:      -8.0      2.117      2.902
REMARK  7 active torsions:
REMARK  status: ('A' for Active; 'I' for Inactive)
REMARK    1  A    between atoms: C_2  and  C_3 
REMARK    2  A    between atoms: C_3  and  N_4 
REMARK       I    between atoms: N_4  and  C_5 
REMARK    3  A    between atoms: C_5  and  C_6 
REMARK    4  A    between atoms: C_8  and  N_9 
REMARK       I    between atoms: N_9  and  C_10 
REMARK    5  A    between atoms: C_10  and  C_11 
REMARK    6  A    between atoms: C_13  and  O_14 
REMARK    7  A    between atoms: O_14  and  C_15 
ROOT
HETATM    1  N   UNL     1      24.043  47.075  49.430  1.00  0.00    -0.323 N 
HETATM    2  C   UNL     1      24.744  46.880  50.609  1.00  0.00     0.256 C 
HETATM    3  O   UNL     1      25.047  47.764  51.407  1.00  0.00    -0.267 OA
HETATM    4  H   UNL     1      24.023  46.326  48.753  1.00  0.00     0.169 HD
ENDROOT
BRANCH   1   5
HETATM    5  C   UNL     1      23.418  48.278  49.021  1.00  0.00     0.035 A 
HETATM    6  C   UNL     1      22.035  48.470  49.051  1.00  0.00     0.046 A 
HETATM    7  C   UNL     1      21.469  49.691  48.657  1.00  0.00     0.034 A 
HETATM    8  C   UNL     1      22.292  50.712  48.175  1.00  0.00     0.017 A 
HETATM    9  C   UNL     1      23.672  50.519  48.113  1.00  0.00     0.003 A 
HETATM   10  C   UNL     1      24.232  49.310  48.538  1.00  0.00     0.029 A 
BRANCH   7  11
HETATM   11  C   UNL     1      19.996  49.917  48.718  1.00  0.00     0.251 C 
HETATM   12  N   UNL     1      19.523  50.520  49.866  1.00  0.00    -0.357 N 
HETATM   13  H   UNL     1      20.186  50.978  50.479  1.00  0.00     0.162 HD
HETATM   14  O   UNL     1      19.283  49.599  47.774  1.00  0.00    -0.268 OA
BRANCH  12  15
HETATM   15  C   UNL     1      18.125  50.859  50.023  1.00  0.00     0.122 C 
BRANCH  15  16
HETATM   16  C   UNL     1      17.862  52.333  49.733  1.00  0.00     0.015 C 
HETATM   17  C   UNL     1      16.414  52.732  49.984  1.00  0.00     0.006 C 
ENDBRANCH  15  16
ENDBRANCH  12  15
ENDBRANCH   7  11
ENDBRANCH   1   5
BRANCH   2  18
HETATM   18  C   UNL     1      25.185  45.486  50.927  1.00  0.00     0.037 A 
HETATM   19  C   UNL     1      26.504  45.134  51.204  1.00  0.00     0.075 A 
HETATM   20  C   UNL     1      26.784  43.792  51.405  1.00  0.00     0.165 A 
HETATM   21  N   UNL     1      25.866  42.808  51.358  1.00  0.00    -0.237 NA
HETATM   22  C   UNL     1      24.597  43.173  51.099  1.00  0.00     0.120 A 
HETATM   23  C   UNL     1      24.212  44.480  50.878  1.00  0.00     0.036 A 
BRANCH  20  24
HETATM   24  O   UNL     1      28.098  43.461  51.678  1.00  0.00    -0.329 OA
BRANCH  24  25
HETATM   25  C   UNL     1      28.304  42.636  52.851  1.00  0.00     0.130 C 
HETATM   26  C   UNL     1      28.010  43.256  54.240  1.00  0.00     0.032 C 
HETATM   27  C   UNL     1      29.502  43.603  54.353  1.00  0.00     0.005 C 
HETATM   28  C   UNL     1      29.781  42.514  53.304  1.00  0.00     0.032 C 
ENDBRANCH  24  25
ENDBRANCH  20  24
ENDBRANCH   2  18
TORSDOF 7
ENDMDL
MODEL 8
REMARK VINA RESULT:      -7.9      1.836      9.640
REMARK  7 active torsions:
REMARK  status: ('A' for Active; 'I' for Inactive)
REMARK    1  A    between atoms: C_2  and  C_3 
REMARK    2  A    between atoms: C_3  and  N_4 
REMARK       I    between atoms: N_4  and  C_5 
REMARK    3  A    between atoms: C_5  and  C_6 
REMARK    4  A    between atoms: C_8  and  N_9 
REMARK       I    between atoms: N_9  and  C_10 
REMARK    5  A    between atoms: C_10  and  C_11 
REMARK    6  A    between atoms: C_13  and  O_14 
REMARK    7  A    between atoms: O_14  and  C_15 
ROOT
HETATM    1  N   UNL     1      27.131  45.120  51.419  1.00  0.00    -0.323 N 
HETATM    2  C   UNL     1      25.882  45.697  51.573  1.00  0.00     0.256 C 
HETATM    3  O   UNL     1      25.006  45.296  52.336  1.00  0.00    -0.267 OA
HETATM    4  H   UNL     1      27.696  45.396  50.629  1.00  0.00     0.169 HD
ENDROOT
BRANCH   1   5
HETATM    5  C   UNL     1      27.675  44.084  52.219  1.00  0.00     0.035 A 
HETATM    6  C   UNL     1      28.537  44.319  53.292  1.00  0.00     0.046 A 
HETATM    7  C   UNL     1      29.029  43.258  54.066  1.00  0.00     0.034 A 
HETATM    8  C   UNL     1      28.699  41.944  53.728  1.00  0.00     0.017 A 
HETATM    9  C   UNL     1      27.862  41.697  52.639  1.00  0.00     0.003 A 
HETATM   10  C   UNL     1      27.350  42.762  51.892  1.00  0.00     0.029 A 
BRANCH   7  11
HETATM   11  C   UNL     1      29.923  43.503  55.235  1.00  0.00     0.251 C 
HETATM   12  N   UNL     1      29.917  44.787  55.743  1.00  0.00    -0.357 N 
HETATM   13  H   UNL     1      29.168  45.410  55.470  1.00  0.00     0.162 HD
HETATM   14  O   UNL     1      30.587  42.588  55.707  1.00  0.00    -0.268 OA
BRANCH  12  15
HETATM   15  C   UNL     1      30.685  45.140  56.918  1.00  0.00     0.122 C 
BRANCH  15  16
HETATM   16  C   UNL     1      29.855  45.933  57.922  1.00  0.00     0.015 C 
HETATM   17  C   UNL     1      28.482  46.308  57.381  1.00  0.00     0.006 C 
ENDBRANCH  15  16
ENDBRANCH  12  15
ENDBRANCH   7  11
ENDBRANCH   1   5
BRANCH   2  18
HETATM   18  C   UNL     1      25.564  46.889  50.728  1.00  0.00     0.037 A 
HETATM   19  C   UNL     1      24.269  47.307  50.429  1.00  0.00     0.075 A 
HETATM   20  C   UNL     1      24.121  48.383  49.570  1.00  0.00     0.165 A 
HETATM   21  N   UNL     1      25.144  49.058  49.011  1.00  0.00    -0.237 NA
HETATM   22  C   UNL     1      26.386  48.644  49.323  1.00  0.00     0.120 A 
HETATM   23  C   UNL     1      26.645  47.580  50.163  1.00  0.00     0.036 A 
BRANCH  20  24
HETATM   24  O   UNL     1      22.828  48.782  49.284  1.00  0.00    -0.329 OA
BRANCH  24  25
HETATM   25  C   UNL     1      22.628  50.212  49.162  1.00  0.00     0.130 C 
HETATM   26  C   UNL     1      21.314  50.814  49.722  1.00  0.00     0.032 C 
HETATM   27  C   UNL     1      20.720  50.718  48.308  1.00  0.00     0.005 C 
HETATM   28  C   UNL     1      22.157  50.682  47.763  1.00  0.00     0.032 C 
ENDBRANCH  24  25
ENDBRANCH  20  24
ENDBRANCH   2  18
TORSDOF 7
ENDMDL
MODEL 9
REMARK VINA RESULT:      -7.8      2.361      9.497
REMARK  7 active torsions:
REMARK  status: ('A' for Active; 'I' for Inactive)
REMARK    1  A    between atoms: C_2  and  C_3 
REMARK    2  A    between atoms: C_3  and  N_4 
REMARK       I    between atoms: N_4  and  C_5 
REMARK    3  A    between atoms: C_5  and  C_6 
REMARK    4  A    between atoms: C_8  and  N_9 
REMARK       I    between atoms: N_9  and  C_10 
REMARK    5  A    between atoms: C_10  and  C_11 
REMARK    6  A    between atoms: C_13  and  O_14 
REMARK    7  A    between atoms: O_14  and  C_15 
ROOT
HETATM    1  N   UNL     1      25.979  43.836  50.802  1.00  0.00    -0.323 N 
HETATM    2  C   UNL     1      24.748  44.447  50.971  1.00  0.00     0.256 C 
HETATM    3  O   UNL     1      24.183  44.616  52.049  1.00  0.00    -0.267 OA
HETATM    4  H   UNL     1      26.259  43.566  49.870  1.00  0.00     0.169 HD
ENDROOT
BRANCH   1   5
HETATM    5  C   UNL     1      26.868  43.451  51.836  1.00  0.00     0.035 A 
HETATM    6  C   UNL     1      27.392  44.350  52.768  1.00  0.00     0.046 A 
HETATM    7  C   UNL     1      28.249  43.911  53.787  1.00  0.00     0.034 A 
HETATM    8  C   UNL     1      28.632  42.568  53.840  1.00  0.00     0.017 A 
HETATM    9  C   UNL     1      28.137  41.668  52.895  1.00  0.00     0.003 A 
HETATM   10  C   UNL     1      27.256  42.108  51.902  1.00  0.00     0.029 A 
BRANCH   7  11
HETATM   11  C   UNL     1      28.787  44.857  54.807  1.00  0.00     0.251 C 
HETATM   12  N   UNL     1      29.847  44.396  55.562  1.00  0.00    -0.357 N 
HETATM   13  H   UNL     1      30.343  43.572  55.244  1.00  0.00     0.162 HD
HETATM   14  O   UNL     1      28.310  45.980  54.921  1.00  0.00    -0.268 OA
BRANCH  12  15
HETATM   15  C   UNL     1      30.507  45.238  56.536  1.00  0.00     0.122 C 
BRANCH  15  16
HETATM   16  C   UNL     1      31.076  44.426  57.696  1.00  0.00     0.015 C 
HETATM   17  C   UNL     1      31.943  43.265  57.229  1.00  0.00     0.006 C 
ENDBRANCH  15  16
ENDBRANCH  12  15
ENDBRANCH   7  11
ENDBRANCH   1   5
BRANCH   2  18
HETATM   18  C   UNL     1      24.039  44.922  49.742  1.00  0.00     0.037 A 
HETATM   19  C   UNL     1      23.603  46.232  49.554  1.00  0.00     0.075 A 
HETATM   20  C   UNL     1      22.890  46.515  48.401  1.00  0.00     0.165 A 
HETATM   21  N   UNL     1      22.598  45.611  47.446  1.00  0.00    -0.237 NA
HETATM   22  C   UNL     1      23.039  44.355  47.643  1.00  0.00     0.120 A 
HETATM   23  C   UNL     1      23.752  43.966  48.759  1.00  0.00     0.036 A 
BRANCH  20  24
HETATM   24  O   UNL     1      22.464  47.819  48.232  1.00  0.00    -0.329 OA
BRANCH  24  25
HETATM   25  C   UNL     1      23.169  48.813  49.015  1.00  0.00     0.130 C 
HETATM   26  C   UNL     1      22.481  50.183  49.245  1.00  0.00     0.032 C 
HETATM   27  C   UNL     1      23.266  50.729  48.042  1.00  0.00     0.005 C 
HETATM   28  C   UNL     1      24.270  49.583  48.243  1.00  0.00     0.032 C 
ENDBRANCH  24  25
ENDBRANCH  20  24
ENDBRANCH   2  18
TORSDOF 7
ENDMDL
MODEL 10
REMARK VINA RESULT:      -7.7      5.026      8.740
REMARK  7 active torsions:
REMARK  status: ('A' for Active; 'I' for Inactive)
REMARK    1  A    between atoms: C_2  and  C_3 
REMARK    2  A    between atoms: C_3  and  N_4 
REMARK       I    between atoms: N_4  and  C_5 
REMARK    3  A    between atoms: C_5  and  C_6 
REMARK    4  A    between atoms: C_8  and  N_9 
REMARK       I    between atoms: N_9  and  C_10 
REMARK    5  A    between atoms: C_10  and  C_11 
REMARK    6  A    between atoms: C_13  and  O_14 
REMARK    7  A    between atoms: O_14  and  C_15 
ROOT
HETATM    1  N   UNL     1      26.459  44.459  52.751  1.00  0.00    -0.323 N 
HETATM    2  C   UNL     1      27.359  43.564  52.197  1.00  0.00     0.256 C 
HETATM    3  O   UNL     1      28.579  43.612  52.332  1.00  0.00    -0.267 OA
HETATM    4  H   UNL     1      25.506  44.452  52.417  1.00  0.00     0.169 HD
ENDROOT
BRANCH   1   5
HETATM    5  C   UNL     1      26.764  45.474  53.691  1.00  0.00     0.035 A 
HETATM    6  C   UNL     1      27.537  45.251  54.833  1.00  0.00     0.046 A 
HETATM    7  C   UNL     1      27.829  46.298  55.720  1.00  0.00     0.034 A 
HETATM    8  C   UNL     1      27.295  47.568  55.490  1.00  0.00     0.017 A 
HETATM    9  C   UNL     1      26.498  47.794  54.368  1.00  0.00     0.003 A 
HETATM   10  C   UNL     1      26.238  46.752  53.472  1.00  0.00     0.029 A 
BRANCH   7  11
HETATM   11  C   UNL     1      28.681  46.077  56.924  1.00  0.00     0.251 C 
HETATM   12  N   UNL     1      29.859  45.388  56.713  1.00  0.00    -0.357 N 
HETATM   13  H   UNL     1      30.192  45.280  55.763  1.00  0.00     0.162 HD
HETATM   14  O   UNL     1      28.338  46.519  58.013  1.00  0.00    -0.268 OA
BRANCH  12  15
HETATM   15  C   UNL     1      30.809  45.167  57.782  1.00  0.00     0.122 C 
BRANCH  15  16
HETATM   16  C   UNL     1      31.645  43.912  57.550  1.00  0.00     0.015 C 
HETATM   17  C   UNL     1      31.226  43.153  56.299  1.00  0.00     0.006 C 
ENDBRANCH  15  16
ENDBRANCH  12  15
ENDBRANCH   7  11
ENDBRANCH   1   5
BRANCH   2  18
HETATM   18  C   UNL     1      26.804  42.464  51.349  1.00  0.00     0.037 A 
HETATM   19  C   UNL     1      27.489  41.285  51.061  1.00  0.00     0.075 A 
HETATM   20  C   UNL     1      26.887  40.384  50.198  1.00  0.00     0.165 A 
HETATM   21  N   UNL     1      25.681  40.568  49.626  1.00  0.00    -0.237 NA
HETATM   22  C   UNL     1      25.034  41.708  49.927  1.00  0.00     0.120 A 
HETATM   23  C   UNL     1      25.546  42.674  50.770  1.00  0.00     0.036 A 
BRANCH  20  24
HETATM   24  O   UNL     1      27.581  39.221  49.923  1.00  0.00    -0.329 OA
BRANCH  24  25
HETATM   25  C   UNL     1      28.636  39.341  48.938  1.00  0.00     0.130 C 
HETATM   26  C   UNL     1      28.277  39.095  47.450  1.00  0.00     0.032 C 
HETATM   27  C   UNL     1      28.747  37.643  47.622  1.00  0.00     0.005 C 
HETATM   28  C   UNL     1      29.569  38.107  48.836  1.00  0.00     0.032 C 
ENDBRANCH  24  25
ENDBRANCH  20  24
ENDBRANCH   2  18
TORSDOF 7
ENDMDL
