MODEL 1
REMARK VINA RESULT:      -8.8      0.000      0.000
REMARK  9 active torsions:
REMARK  status: ('A' for Active; 'I' for Inactive)
REMARK       I    between atoms: C_2  and  N_3 
REMARK    1  A    between atoms: N_3  and  C_4 
REMARK    2  A    between atoms: C_6  and  O_7 
REMARK    3  A    between atoms: O_7  and  C_8 
REMARK    4  A    between atoms: C_8  and  C_9 
REMARK    5  A    between atoms: C_9  and  C_10 
REMARK    6  A    between atoms: C_10  and  C_11 
REMARK    7  A    between atoms: C_11  and  N_12 
REMARK       I    between atoms: N_12  and  C_13 
REMARK    8  A    between atoms: C_13  and  C_14 
REMARK    9  A    between atoms: C_18  and  C_19 
ROOT
HETATM    1  C   UNL     1      24.678  46.048  50.541  1.00  0.00     0.217 C 
ENDROOT
BRANCH   1   2
HETATM    2  C   UNL     1      24.643  47.378  49.805  1.00  0.00    -0.085 C 
BRANCH   2   3
HETATM    3  C   UNL     1      24.614  48.519  49.175  1.00  0.00    -0.078 C 
BRANCH   3   4
HETATM    4  C   UNL     1      24.579  49.849  48.440  1.00  0.00     0.269 C 
BRANCH   4   5
HETATM    5  O   UNL     1      23.606  49.810  47.401  1.00  0.00    -0.339 OA
BRANCH   5   6
HETATM    6  C   UNL     1      22.301  49.947  47.802  1.00  0.00     0.072 A 
HETATM    7  C   UNL     1      21.280  49.007  47.608  1.00  0.00     0.066 A 
HETATM    8  C   UNL     1      19.984  49.247  48.075  1.00  0.00     0.037 A 
HETATM    9  C   UNL     1      19.713  50.453  48.733  1.00  0.00     0.029 A 
HETATM   10  C   UNL     1      20.722  51.397  48.925  1.00  0.00     0.005 A 
HETATM   11  C   UNL     1      22.012  51.142  48.462  1.00  0.00     0.037 A 
BRANCH   8  12
HETATM   12  N   UNL     1      18.914  48.336  47.925  1.00  0.00    -0.327 N 
HETATM   13  C   UNL     1      18.844  47.034  48.388  1.00  0.00     0.218 C 
HETATM   14  C   UNL     1      17.533  46.367  48.050  1.00  0.00     0.117 C 
HETATM   15  O   UNL     1      19.696  46.436  49.037  1.00  0.00    -0.274 OA
HETATM   16  H   UNL     1      18.101  48.691  47.438  1.00  0.00     0.169 HD
ENDBRANCH   8  12
ENDBRANCH   5   6
ENDBRANCH   4   5
ENDBRANCH   3   4
ENDBRANCH   2   3
ENDBRANCH   1   2
BRANCH   1  17
HETATM   17  N   UNL     1      25.695  46.117  51.558  1.00  0.00    -0.345 N 
HETATM   18  C   UNL     1      25.595  45.395  52.718  1.00  0.00     0.270 C 
HETATM   19  O   UNL     1      24.670  44.620  52.939  1.00  0.00    -0.266 OA
HETATM   20  H   UNL     1      26.412  46.819  51.462  1.00  0.00     0.163 HD
BRANCH  18  21
HETATM   21  C   UNL     1      26.653  45.615  53.667  1.00  0.00     0.120 A 
HETATM   22  N   UNL     1      27.026  46.874  54.046  1.00  0.00    -0.272 N 
HETATM   23  H   UNL     1      26.620  47.749  53.727  1.00  0.00     0.189 HD
HETATM   24  N   UNL     1      28.043  46.909  54.919  1.00  0.00    -0.174 NA
HETATM   25  C   UNL     1      28.341  45.621  55.148  1.00  0.00     0.089 A 
HETATM   26  C   UNL     1      27.487  44.777  54.381  1.00  0.00     0.071 A 
BRANCH  25  27
HETATM   27  C   UNL     1      29.418  45.227  56.063  1.00  0.00    -0.006 A 
HETATM   28  C   UNL     1      29.587  45.857  57.305  1.00  0.00     0.014 A 
HETATM   29  C   UNL     1      30.610  45.463  58.174  1.00  0.00     0.001 A 
HETATM   30  C   UNL     1      31.476  44.433  57.813  1.00  0.00     0.000 A 
HETATM   31  C   UNL     1      31.326  43.801  56.581  1.00  0.00     0.001 A 
HETATM   32  C   UNL     1      30.306  44.196  55.712  1.00  0.00     0.014 A 
ENDBRANCH  25  27
ENDBRANCH  18  21
ENDBRANCH   1  17
TORSDOF 9
ENDMDL
MODEL 2
REMARK VINA RESULT:      -8.7      2.381      2.787
REMARK  9 active torsions:
REMARK  status: ('A' for Active; 'I' for Inactive)
REMARK       I    between atoms: C_2  and  N_3 
REMARK    1  A    between atoms: N_3  and  C_4 
REMARK    2  A    between atoms: C_6  and  O_7 
REMARK    3  A    between atoms: O_7  and  C_8 
REMARK    4  A    between atoms: C_8  and  C_9 
REMARK    5  A    between atoms: C_9  and  C_10 
REMARK    6  A    between atoms: C_10  and  C_11 
REMARK    7  A    between atoms: C_11  and  N_12 
REMARK       I    between atoms: N_12  and  C_13 
REMARK    8  A    between atoms: C_13  and  C_14 
REMARK    9  A    between atoms: C_18  and  C_19 
ROOT
HETATM    1  C   UNL     1      24.849  43.482  51.059  1.00  0.00     0.217 C 
ENDROOT
BRANCH   1   2
HETATM    2  C   UNL     1      24.507  44.866  50.533  1.00  0.00    -0.085 C 
BRANCH   2   3
HETATM    3  C   UNL     1      24.213  46.053  50.082  1.00  0.00    -0.078 C 
BRANCH   3   4
HETATM    4  C   UNL     1      23.870  47.437  49.556  1.00  0.00     0.269 C 
BRANCH   4   5
HETATM    5  O   UNL     1      22.613  47.411  48.887  1.00  0.00    -0.339 OA
BRANCH   5   6
HETATM    6  C   UNL     1      21.985  48.623  48.751  1.00  0.00     0.072 A 
HETATM    7  C   UNL     1      20.614  48.817  48.538  1.00  0.00     0.066 A 
HETATM    8  C   UNL     1      20.078  50.104  48.431  1.00  0.00     0.037 A 
HETATM    9  C   UNL     1      20.937  51.206  48.525  1.00  0.00     0.029 A 
HETATM   10  C   UNL     1      22.305  51.022  48.732  1.00  0.00     0.005 A 
HETATM   11  C   UNL     1      22.825  49.733  48.846  1.00  0.00     0.037 A 
BRANCH   8  12
HETATM   12  N   UNL     1      18.704  50.369  48.231  1.00  0.00    -0.327 N 
HETATM   13  C   UNL     1      17.760  50.692  49.189  1.00  0.00     0.218 C 
HETATM   14  C   UNL     1      16.389  50.921  48.600  1.00  0.00     0.117 C 
HETATM   15  O   UNL     1      17.949  50.829  50.394  1.00  0.00    -0.274 OA
HETATM   16  H   UNL     1      18.386  50.335  47.271  1.00  0.00     0.169 HD
ENDBRANCH   8  12
ENDBRANCH   5   6
ENDBRANCH   4   5
ENDBRANCH   3   4
ENDBRANCH   2   3
ENDBRANCH   1   2
BRANCH   1  17
HETATM   17  N   UNL     1      25.992  43.594  51.926  1.00  0.00    -0.345 N 
HETATM   18  C   UNL     1      27.225  43.132  51.547  1.00  0.00     0.270 C 
HETATM   19  O   UNL     1      27.437  42.642  50.442  1.00  0.00    -0.266 OA
HETATM   20  H   UNL     1      25.837  43.889  52.878  1.00  0.00     0.163 HD
BRANCH  18  21
HETATM   21  C   UNL     1      28.256  43.252  52.542  1.00  0.00     0.120 A 
HETATM   22  N   UNL     1      29.487  42.684  52.372  1.00  0.00    -0.272 N 
HETATM   23  H   UNL     1      29.803  42.149  51.569  1.00  0.00     0.189 HD
HETATM   24  N   UNL     1      30.326  42.867  53.402  1.00  0.00    -0.174 NA
HETATM   25  C   UNL     1      29.632  43.608  54.280  1.00  0.00     0.089 A 
HETATM   26  C   UNL     1      28.327  43.873  53.774  1.00  0.00     0.071 A 
BRANCH  25  27
HETATM   27  C   UNL     1      30.208  44.030  55.562  1.00  0.00    -0.006 A 
HETATM   28  C   UNL     1      29.832  45.237  56.169  1.00  0.00     0.014 A 
HETATM   29  C   UNL     1      30.378  45.621  57.398  1.00  0.00     0.001 A 
HETATM   30  C   UNL     1      31.307  44.802  58.036  1.00  0.00     0.000 A 
HETATM   31  C   UNL     1      31.696  43.603  57.445  1.00  0.00     0.001 A 
HETATM   32  C   UNL     1      31.152  43.221  56.216  1.00  0.00     0.014 A 
ENDBRANCH  25  27
ENDBRANCH  18  21
ENDBRANCH   1  17
TORSDOF 9
ENDMDL
MODEL 3
REMARK VINA RESULT:      -8.7      2.536     11.485
REMARK  9 active torsions:
REMARK  status: ('A' for Active; 'I' for Inactive)
REMARK       I    between atoms: C_2  and  N_3 
REMARK    1  A    between atoms: N_3  and  C_4 
REMARK    2  A    between atoms: C_6  and  O_7 
REMARK    3  A    between atoms: O_7  and  C_8 
REMARK    4  A    between atoms: C_8  and  C_9 
REMARK    5  A    between atoms: C_9  and  C_10 
REMARK    6  A    between atoms: C_10  and  C_11 
REMARK    7  A    between atoms: C_11  and  N_12 
REMARK       I    between atoms: N_12  and  C_13 
REMARK    8  A    between atoms: C_13  and  C_14 
REMARK    9  A    between atoms: C_18  and  C_19 
ROOT
HETATM    1  C   UNL     1      26.485  47.955  49.405  1.00  0.00     0.217 C 
ENDROOT
BRANCH   1   2
HETATM    2  C   UNL     1      26.684  46.540  49.925  1.00  0.00    -0.085 C 
BRANCH   2   3
HETATM    3  C   UNL     1      26.854  45.327  50.370  1.00  0.00    -0.078 C 
BRANCH   3   4
HETATM    4  C   UNL     1      27.052  43.912  50.889  1.00  0.00     0.269 C 
BRANCH   4   5
HETATM    5  O   UNL     1      26.902  43.883  52.305  1.00  0.00    -0.339 OA
BRANCH   5   6
HETATM    6  C   UNL     1      28.059  43.718  53.023  1.00  0.00     0.072 A 
HETATM    7  C   UNL     1      28.362  44.337  54.243  1.00  0.00     0.066 A 
HETATM    8  C   UNL     1      29.572  44.080  54.898  1.00  0.00     0.037 A 
HETATM    9  C   UNL     1      30.488  43.201  54.308  1.00  0.00     0.029 A 
HETATM   10  C   UNL     1      30.196  42.585  53.091  1.00  0.00     0.005 A 
HETATM   11  C   UNL     1      28.984  42.842  52.453  1.00  0.00     0.037 A 
BRANCH   8  12
HETATM   12  N   UNL     1      29.933  44.658  56.135  1.00  0.00    -0.327 N 
HETATM   13  C   UNL     1      29.416  45.805  56.713  1.00  0.00     0.218 C 
HETATM   14  C   UNL     1      30.038  46.111  58.054  1.00  0.00     0.117 C 
HETATM   15  O   UNL     1      28.528  46.522  56.262  1.00  0.00    -0.274 OA
HETATM   16  H   UNL     1      30.638  44.160  56.663  1.00  0.00     0.169 HD
ENDBRANCH   8  12
ENDBRANCH   5   6
ENDBRANCH   4   5
ENDBRANCH   3   4
ENDBRANCH   2   3
ENDBRANCH   1   2
BRANCH   1  17
HETATM   17  N   UNL     1      25.082  48.270  49.468  1.00  0.00    -0.345 N 
HETATM   18  C   UNL     1      24.549  49.305  48.745  1.00  0.00     0.270 C 
HETATM   19  O   UNL     1      25.217  49.988  47.975  1.00  0.00    -0.266 OA
HETATM   20  H   UNL     1      24.524  47.805  50.167  1.00  0.00     0.163 HD
BRANCH  18  21
HETATM   21  C   UNL     1      23.147  49.542  48.961  1.00  0.00     0.120 A 
HETATM   22  N   UNL     1      22.317  48.561  49.423  1.00  0.00    -0.272 N 
HETATM   23  H   UNL     1      22.577  47.608  49.663  1.00  0.00     0.189 HD
HETATM   24  N   UNL     1      21.035  48.935  49.546  1.00  0.00    -0.174 NA
HETATM   25  C   UNL     1      21.019  50.224  49.173  1.00  0.00     0.089 A 
HETATM   26  C   UNL     1      22.328  50.643  48.801  1.00  0.00     0.071 A 
BRANCH  25  27
HETATM   27  C   UNL     1      19.780  51.012  49.166  1.00  0.00    -0.006 A 
HETATM   28  C   UNL     1      19.647  52.153  48.361  1.00  0.00     0.014 A 
HETATM   29  C   UNL     1      18.456  52.887  48.353  1.00  0.00     0.001 A 
HETATM   30  C   UNL     1      17.385  52.490  49.149  1.00  0.00     0.000 A 
HETATM   31  C   UNL     1      17.502  51.363  49.958  1.00  0.00     0.001 A 
HETATM   32  C   UNL     1      18.692  50.631  49.968  1.00  0.00     0.014 A 
ENDBRANCH  25  27
ENDBRANCH  18  21
ENDBRANCH   1  17
TORSDOF 9
ENDMDL
MODEL 4
REMARK VINA RESULT:      -8.6      2.715     12.131
REMARK  9 active torsions:
REMARK  status: ('A' for Active; 'I' for Inactive)
REMARK       I    between atoms: C_2  and  N_3 
REMARK    1  A    between atoms: N_3  and  C_4 
REMARK    2  A    between atoms: C_6  and  O_7 
REMARK    3  A    between atoms: O_7  and  C_8 
REMARK    4  A    between atoms: C_8  and  C_9 
REMARK    5  A    between atoms: C_9  and  C_10 
REMARK    6  A    between atoms: C_10  and  C_11 
REMARK    7  A    between atoms: C_11  and  N_12 
REMARK       I    between atoms: N_12  and  C_13 
REMARK    8  A    between atoms: C_13  and  C_14 
REMARK    9  A    between atoms: C_18  and  C_19 
ROOT
HETATM    1  C   UNL     1      24.581  47.916  49.620  1.00  0.00     0.217 C 
ENDROOT
BRANCH   1   2
HETATM    2  C   UNL     1      24.904  46.886  50.691  1.00  0.00    -0.085 C 
BRANCH   2   3
HETATM    3  C   UNL     1      25.180  46.004  51.610  1.00  0.00    -0.078 C 
BRANCH   3   4
HETATM    4  C   UNL     1      25.503  44.975  52.681  1.00  0.00     0.269 C 
BRANCH   4   5
HETATM    5  O   UNL     1      26.636  45.392  53.436  1.00  0.00    -0.339 OA
BRANCH   5   6
HETATM    6  C   UNL     1      27.696  44.521  53.450  1.00  0.00     0.072 A 
HETATM    7  C   UNL     1      28.616  44.364  54.496  1.00  0.00     0.066 A 
HETATM    8  C   UNL     1      29.652  43.429  54.407  1.00  0.00     0.037 A 
HETATM    9  C   UNL     1      29.769  42.654  53.247  1.00  0.00     0.029 A 
HETATM   10  C   UNL     1      28.860  42.808  52.198  1.00  0.00     0.005 A 
HETATM   11  C   UNL     1      27.827  43.737  52.302  1.00  0.00     0.037 A 
BRANCH   8  12
HETATM   12  N   UNL     1      30.602  43.211  55.430  1.00  0.00    -0.327 N 
HETATM   13  C   UNL     1      31.000  44.098  56.414  1.00  0.00     0.218 C 
HETATM   14  C   UNL     1      32.031  43.509  57.346  1.00  0.00     0.117 C 
HETATM   15  O   UNL     1      30.581  45.238  56.592  1.00  0.00    -0.274 OA
HETATM   16  H   UNL     1      31.022  42.290  55.450  1.00  0.00     0.169 HD
ENDBRANCH   8  12
ENDBRANCH   5   6
ENDBRANCH   4   5
ENDBRANCH   3   4
ENDBRANCH   2   3
ENDBRANCH   1   2
BRANCH   1  17
HETATM   17  N   UNL     1      23.192  48.272  49.735  1.00  0.00    -0.345 N 
HETATM   18  C   UNL     1      22.539  48.938  48.731  1.00  0.00     0.270 C 
HETATM   19  O   UNL     1      23.079  49.226  47.667  1.00  0.00    -0.266 OA
HETATM   20  H   UNL     1      22.745  48.150  50.631  1.00  0.00     0.163 HD
BRANCH  18  21
HETATM   21  C   UNL     1      21.173  49.285  49.015  1.00  0.00     0.120 A 
HETATM   22  N   UNL     1      20.354  48.453  49.726  1.00  0.00    -0.272 N 
HETATM   23  H   UNL     1      20.602  47.550  50.121  1.00  0.00     0.189 HD
HETATM   24  N   UNL     1      19.104  48.911  49.883  1.00  0.00    -0.174 NA
HETATM   25  C   UNL     1      19.099  50.106  49.273  1.00  0.00     0.089 A 
HETATM   26  C   UNL     1      20.382  50.377  48.717  1.00  0.00     0.071 A 
BRANCH  25  27
HETATM   27  C   UNL     1      17.894  50.943  49.220  1.00  0.00    -0.006 A 
HETATM   28  C   UNL     1      17.825  52.165  49.905  1.00  0.00     0.014 A 
HETATM   29  C   UNL     1      16.677  52.961  49.835  1.00  0.00     0.001 A 
HETATM   30  C   UNL     1      15.583  52.543  49.081  1.00  0.00     0.000 A 
HETATM   31  C   UNL     1      15.632  51.330  48.400  1.00  0.00     0.001 A 
HETATM   32  C   UNL     1      16.779  50.534  48.471  1.00  0.00     0.014 A 
ENDBRANCH  25  27
ENDBRANCH  18  21
ENDBRANCH   1  17
TORSDOF 9
ENDMDL
MODEL 5
REMARK VINA RESULT:      -8.6      2.645     11.453
REMARK  9 active torsions:
REMARK  status: ('A' for Active; 'I' for Inactive)
REMARK       I    between atoms: C_2  and  N_3 
REMARK    1  A    between atoms: N_3  and  C_4 
REMARK    2  A    between atoms: C_6  and  O_7 
REMARK    3  A    between atoms: O_7  and  C_8 
REMARK    4  A    between atoms: C_8  and  C_9 
REMARK    5  A    between atoms: C_9  and  C_10 
REMARK    6  A    between atoms: C_10  and  C_11 
REMARK    7  A    between atoms: C_11  and  N_12 
REMARK       I    between atoms: N_12  and  C_13 
REMARK    8  A    between atoms: C_13  and  C_14 
REMARK    9  A    between atoms: C_18  and  C_19 
ROOT
HETATM    1  C   UNL     1      26.925  48.416  49.200  1.00  0.00     0.217 C 
ENDROOT
BRANCH   1   2
HETATM    2  C   UNL     1      27.057  46.960  49.618  1.00  0.00    -0.085 C 
BRANCH   2   3
HETATM    3  C   UNL     1      27.170  45.712  49.976  1.00  0.00    -0.078 C 
BRANCH   3   4
HETATM    4  C   UNL     1      27.302  44.257  50.394  1.00  0.00     0.269 C 
BRANCH   4   5
HETATM    5  O   UNL     1      26.576  44.024  51.596  1.00  0.00    -0.339 OA
BRANCH   5   6
HETATM    6  C   UNL     1      27.182  44.453  52.750  1.00  0.00     0.072 A 
HETATM    7  C   UNL     1      28.255  43.825  53.396  1.00  0.00     0.066 A 
HETATM    8  C   UNL     1      28.806  44.363  54.564  1.00  0.00     0.037 A 
HETATM    9  C   UNL     1      28.258  45.538  55.092  1.00  0.00     0.029 A 
HETATM   10  C   UNL     1      27.186  46.168  54.458  1.00  0.00     0.005 A 
HETATM   11  C   UNL     1      26.652  45.626  53.290  1.00  0.00     0.037 A 
BRANCH   8  12
HETATM   12  N   UNL     1      29.896  43.789  55.255  1.00  0.00    -0.327 N 
HETATM   13  C   UNL     1      30.690  44.382  56.220  1.00  0.00     0.218 C 
HETATM   14  C   UNL     1      31.756  43.453  56.748  1.00  0.00     0.117 C 
HETATM   15  O   UNL     1      30.577  45.518  56.671  1.00  0.00    -0.274 OA
HETATM   16  H   UNL     1      30.102  42.825  55.025  1.00  0.00     0.169 HD
ENDBRANCH   8  12
ENDBRANCH   5   6
ENDBRANCH   4   5
ENDBRANCH   3   4
ENDBRANCH   2   3
ENDBRANCH   1   2
BRANCH   1  17
HETATM   17  N   UNL     1      25.529  48.764  49.195  1.00  0.00    -0.345 N 
HETATM   18  C   UNL     1      25.024  49.677  48.307  1.00  0.00     0.270 C 
HETATM   19  O   UNL     1      25.712  50.212  47.443  1.00  0.00    -0.266 OA
HETATM   20  H   UNL     1      24.956  48.429  49.953  1.00  0.00     0.163 HD
BRANCH  18  21
HETATM   21  C   UNL     1      23.625  49.972  48.463  1.00  0.00     0.120 A 
HETATM   22  N   UNL     1      22.942  49.630  49.597  1.00  0.00    -0.272 N 
HETATM   23  H   UNL     1      23.321  49.164  50.416  1.00  0.00     0.189 HD
HETATM   24  N   UNL     1      21.641  49.953  49.576  1.00  0.00    -0.174 NA
HETATM   25  C   UNL     1      21.458  50.555  48.390  1.00  0.00     0.089 A 
HETATM   26  C   UNL     1      22.682  50.588  47.663  1.00  0.00     0.071 A 
BRANCH  25  27
HETATM   27  C   UNL     1      20.145  51.064  47.976  1.00  0.00    -0.006 A 
HETATM   28  C   UNL     1      19.494  50.561  46.840  1.00  0.00     0.014 A 
HETATM   29  C   UNL     1      18.236  51.044  46.463  1.00  0.00     0.001 A 
HETATM   30  C   UNL     1      17.615  52.036  47.218  1.00  0.00     0.000 A 
HETATM   31  C   UNL     1      18.250  52.551  48.345  1.00  0.00     0.001 A 
HETATM   32  C   UNL     1      19.507  52.070  48.720  1.00  0.00     0.014 A 
ENDBRANCH  25  27
ENDBRANCH  18  21
ENDBRANCH   1  17
TORSDOF 9
ENDMDL
MODEL 6
REMARK VINA RESULT:      -8.5      1.942      2.351
REMARK  9 active torsions:
REMARK  status: ('A' for Active; 'I' for Inactive)
REMARK       I    between atoms: C_2  and  N_3 
REMARK    1  A    between atoms: N_3  and  C_4 
REMARK    2  A    between atoms: C_6  and  O_7 
REMARK    3  A    between atoms: O_7  and  C_8 
REMARK    4  A    between atoms: C_8  and  C_9 
REMARK    5  A    between atoms: C_9  and  C_10 
REMARK    6  A    between atoms: C_10  and  C_11 
REMARK    7  A    between atoms: C_11  and  N_12 
REMARK       I    between atoms: N_12  and  C_13 
REMARK    8  A    between atoms: C_13  and  C_14 
REMARK    9  A    between atoms: C_18  and  C_19 
ROOT
HETATM    1  C   UNL     1      23.826  45.069  49.511  1.00  0.00     0.217 C 
ENDROOT
BRANCH   1   2
HETATM    2  C   UNL     1      23.826  46.576  49.313  1.00  0.00    -0.085 C 
BRANCH   2   3
HETATM    3  C   UNL     1      23.828  47.869  49.144  1.00  0.00    -0.078 C 
BRANCH   3   4
HETATM    4  C   UNL     1      23.829  49.376  48.947  1.00  0.00     0.269 C 
BRANCH   4   5
HETATM    5  O   UNL     1      22.947  49.993  49.880  1.00  0.00    -0.339 OA
BRANCH   5   6
HETATM    6  C   UNL     1      21.663  50.197  49.440  1.00  0.00     0.072 A 
HETATM    7  C   UNL     1      20.605  49.284  49.547  1.00  0.00     0.066 A 
HETATM    8  C   UNL     1      19.328  49.606  49.077  1.00  0.00     0.037 A 
HETATM    9  C   UNL     1      19.120  50.856  48.482  1.00  0.00     0.029 A 
HETATM   10  C   UNL     1      20.169  51.769  48.367  1.00  0.00     0.005 A 
HETATM   11  C   UNL     1      21.436  51.439  48.847  1.00  0.00     0.037 A 
BRANCH   8  12
HETATM   12  N   UNL     1      18.216  48.738  49.166  1.00  0.00    -0.327 N 
HETATM   13  C   UNL     1      17.909  47.673  48.339  1.00  0.00     0.218 C 
HETATM   14  C   UNL     1      16.644  46.962  48.751  1.00  0.00     0.117 C 
HETATM   15  O   UNL     1      18.563  47.271  47.381  1.00  0.00    -0.274 OA
HETATM   16  H   UNL     1      17.586  48.911  49.940  1.00  0.00     0.169 HD
ENDBRANCH   8  12
ENDBRANCH   5   6
ENDBRANCH   4   5
ENDBRANCH   3   4
ENDBRANCH   2   3
ENDBRANCH   1   2
BRANCH   1  17
HETATM   17  N   UNL     1      24.936  44.720  50.357  1.00  0.00    -0.345 N 
HETATM   18  C   UNL     1      24.866  43.667  51.230  1.00  0.00     0.270 C 
HETATM   19  O   UNL     1      23.882  42.938  51.311  1.00  0.00    -0.266 OA
HETATM   20  H   UNL     1      25.717  45.357  50.398  1.00  0.00     0.163 HD
BRANCH  18  21
HETATM   21  C   UNL     1      26.028  43.480  52.057  1.00  0.00     0.120 A 
HETATM   22  N   UNL     1      26.708  42.295  52.080  1.00  0.00    -0.272 N 
HETATM   23  H   UNL     1      26.492  41.460  51.543  1.00  0.00     0.189 HD
HETATM   24  N   UNL     1      27.753  42.275  52.921  1.00  0.00    -0.174 NA
HETATM   25  C   UNL     1      27.782  43.505  53.459  1.00  0.00     0.089 A 
HETATM   26  C   UNL     1      26.715  44.292  52.939  1.00  0.00     0.071 A 
BRANCH  25  27
HETATM   27  C   UNL     1      28.795  43.893  54.446  1.00  0.00    -0.006 A 
HETATM   28  C   UNL     1      29.873  43.050  54.756  1.00  0.00     0.014 A 
HETATM   29  C   UNL     1      30.840  43.438  55.689  1.00  0.00     0.001 A 
HETATM   30  C   UNL     1      30.742  44.674  56.324  1.00  0.00     0.000 A 
HETATM   31  C   UNL     1      29.676  45.521  56.033  1.00  0.00     0.001 A 
HETATM   32  C   UNL     1      28.708  45.132  55.102  1.00  0.00     0.014 A 
ENDBRANCH  25  27
ENDBRANCH  18  21
ENDBRANCH   1  17
TORSDOF 9
ENDMDL
MODEL 7
REMARK VINA RESULT:      -8.4      2.517      3.156
REMARK  9 active torsions:
REMARK  status: ('A' for Active; 'I' for Inactive)
REMARK       I    between atoms: C_2  and  N_3 
REMARK    1  A    between atoms: N_3  and  C_4 
REMARK    2  A    between atoms: C_6  and  O_7 
REMARK    3  A    between atoms: O_7  and  C_8 
REMARK    4  A    between atoms: C_8  and  C_9 
REMARK    5  A    between atoms: C_9  and  C_10 
REMARK    6  A    between atoms: C_10  and  C_11 
REMARK    7  A    between atoms: C_11  and  N_12 
REMARK       I    between atoms: N_12  and  C_13 
REMARK    8  A    between atoms: C_13  and  C_14 
REMARK    9  A    between atoms: C_18  and  C_19 
ROOT
HETATM    1  C   UNL     1      23.837  45.854  49.465  1.00  0.00     0.217 C 
ENDROOT
BRANCH   1   2
HETATM    2  C   UNL     1      23.552  47.346  49.394  1.00  0.00    -0.085 C 
BRANCH   2   3
HETATM    3  C   UNL     1      23.307  48.624  49.333  1.00  0.00    -0.078 C 
BRANCH   3   4
HETATM    4  C   UNL     1      23.021  50.115  49.263  1.00  0.00     0.269 C 
BRANCH   4   5
HETATM    5  O   UNL     1      21.910  50.442  50.092  1.00  0.00    -0.339 OA
BRANCH   5   6
HETATM    6  C   UNL     1      20.800  50.917  49.441  1.00  0.00     0.072 A 
HETATM    7  C   UNL     1      19.716  51.574  50.040  1.00  0.00     0.066 A 
HETATM    8  C   UNL     1      18.640  52.031  49.272  1.00  0.00     0.037 A 
HETATM    9  C   UNL     1      18.652  51.812  47.889  1.00  0.00     0.029 A 
HETATM   10  C   UNL     1      19.725  51.154  47.286  1.00  0.00     0.005 A 
HETATM   11  C   UNL     1      20.796  50.711  48.061  1.00  0.00     0.037 A 
BRANCH   8  12
HETATM   12  N   UNL     1      17.526  52.713  49.810  1.00  0.00    -0.327 N 
HETATM   13  C   UNL     1      16.195  52.340  49.739  1.00  0.00     0.218 C 
HETATM   14  C   UNL     1      15.281  53.312  50.445  1.00  0.00     0.117 C 
HETATM   15  O   UNL     1      15.739  51.332  49.209  1.00  0.00    -0.274 OA
HETATM   16  H   UNL     1      17.735  53.560  50.322  1.00  0.00     0.169 HD
ENDBRANCH   8  12
ENDBRANCH   5   6
ENDBRANCH   4   5
ENDBRANCH   3   4
ENDBRANCH   2   3
ENDBRANCH   1   2
BRANCH   1  17
HETATM   17  N   UNL     1      24.709  45.610  50.583  1.00  0.00    -0.345 N 
HETATM   18  C   UNL     1      24.626  44.455  51.316  1.00  0.00     0.270 C 
HETATM   19  O   UNL     1      23.844  43.551  51.041  1.00  0.00    -0.266 OA
HETATM   20  H   UNL     1      25.288  46.370  50.906  1.00  0.00     0.163 HD
BRANCH  18  21
HETATM   21  C   UNL     1      25.517  44.381  52.442  1.00  0.00     0.120 A 
HETATM   22  N   UNL     1      25.051  44.199  53.714  1.00  0.00    -0.272 N 
HETATM   23  H   UNL     1      24.081  44.093  53.996  1.00  0.00     0.189 HD
HETATM   24  N   UNL     1      26.008  44.177  54.654  1.00  0.00    -0.174 NA
HETATM   25  C   UNL     1      27.156  44.325  53.976  1.00  0.00     0.089 A 
HETATM   26  C   UNL     1      26.889  44.454  52.583  1.00  0.00     0.071 A 
BRANCH  25  27
HETATM   27  C   UNL     1      28.457  44.353  54.654  1.00  0.00    -0.006 A 
HETATM   28  C   UNL     1      28.834  45.437  55.462  1.00  0.00     0.014 A 
HETATM   29  C   UNL     1      30.071  45.446  56.115  1.00  0.00     0.001 A 
HETATM   30  C   UNL     1      30.947  44.372  55.968  1.00  0.00     0.000 A 
HETATM   31  C   UNL     1      30.591  43.292  55.165  1.00  0.00     0.001 A 
HETATM   32  C   UNL     1      29.356  43.284  54.511  1.00  0.00     0.014 A 
ENDBRANCH  25  27
ENDBRANCH  18  21
ENDBRANCH   1  17
TORSDOF 9
ENDMDL
MODEL 8
REMARK VINA RESULT:      -8.4      3.057     11.311
REMARK  9 active torsions:
REMARK  status: ('A' for Active; 'I' for Inactive)
REMARK       I    between atoms: C_2  and  N_3 
REMARK    1  A    between atoms: N_3  and  C_4 
REMARK    2  A    between atoms: C_6  and  O_7 
REMARK    3  A    between atoms: O_7  and  C_8 
REMARK    4  A    between atoms: C_8  and  C_9 
REMARK    5  A    between atoms: C_9  and  C_10 
REMARK    6  A    between atoms: C_10  and  C_11 
REMARK    7  A    between atoms: C_11  and  N_12 
REMARK       I    between atoms: N_12  and  C_13 
REMARK    8  A    between atoms: C_13  and  C_14 
REMARK    9  A    between atoms: C_18  and  C_19 
ROOT
HETATM    1  C   UNL     1      26.186  47.145  50.091  1.00  0.00     0.217 C 
ENDROOT
BRANCH   1   2
HETATM    2  C   UNL     1      26.209  46.596  51.509  1.00  0.00    -0.085 C 
BRANCH   2   3
HETATM    3  C   UNL     1      26.228  46.126  52.724  1.00  0.00    -0.078 C 
BRANCH   3   4
HETATM    4  C   UNL     1      26.250  45.577  54.141  1.00  0.00     0.269 C 
BRANCH   4   5
HETATM    5  O   UNL     1      26.150  44.157  54.119  1.00  0.00    -0.339 OA
BRANCH   5   6
HETATM    6  C   UNL     1      27.308  43.482  53.824  1.00  0.00     0.072 A 
HETATM    7  C   UNL     1      27.406  42.324  53.041  1.00  0.00     0.066 A 
HETATM    8  C   UNL     1      28.647  41.728  52.792  1.00  0.00     0.037 A 
HETATM    9  C   UNL     1      29.797  42.299  53.349  1.00  0.00     0.029 A 
HETATM   10  C   UNL     1      29.708  43.449  54.135  1.00  0.00     0.005 A 
HETATM   11  C   UNL     1      28.466  44.039  54.368  1.00  0.00     0.037 A 
BRANCH   8  12
HETATM   12  N   UNL     1      28.816  40.570  52.000  1.00  0.00    -0.327 N 
HETATM   13  C   UNL     1      28.434  40.385  50.683  1.00  0.00     0.218 C 
HETATM   14  C   UNL     1      28.793  39.016  50.161  1.00  0.00     0.117 C 
HETATM   15  O   UNL     1      27.893  41.208  49.950  1.00  0.00    -0.274 OA
HETATM   16  H   UNL     1      29.290  39.797  52.450  1.00  0.00     0.169 HD
ENDBRANCH   8  12
ENDBRANCH   5   6
ENDBRANCH   4   5
ENDBRANCH   3   4
ENDBRANCH   2   3
ENDBRANCH   1   2
BRANCH   1  17
HETATM   17  N   UNL     1      24.851  47.596  49.799  1.00  0.00    -0.345 N 
HETATM   18  C   UNL     1      24.624  48.742  49.084  1.00  0.00     0.270 C 
HETATM   19  O   UNL     1      25.532  49.421  48.615  1.00  0.00    -0.266 OA
HETATM   20  H   UNL     1      24.084  47.127  50.256  1.00  0.00     0.163 HD
BRANCH  18  21
HETATM   21  C   UNL     1      23.241  49.101  48.928  1.00  0.00     0.120 A 
HETATM   22  N   UNL     1      22.240  48.372  49.506  1.00  0.00    -0.272 N 
HETATM   23  H   UNL     1      22.350  47.545  50.087  1.00  0.00     0.189 HD
HETATM   24  N   UNL     1      21.005  48.823  49.244  1.00  0.00    -0.174 NA
HETATM   25  C   UNL     1      21.194  49.911  48.481  1.00  0.00     0.089 A 
HETATM   26  C   UNL     1      22.586  50.119  48.262  1.00  0.00     0.071 A 
BRANCH  25  27
HETATM   27  C   UNL     1      20.069  50.705  47.974  1.00  0.00    -0.006 A 
HETATM   28  C   UNL     1      19.358  50.315  46.830  1.00  0.00     0.014 A 
HETATM   29  C   UNL     1      18.278  51.073  46.365  1.00  0.00     0.001 A 
HETATM   30  C   UNL     1      17.896  52.231  47.039  1.00  0.00     0.000 A 
HETATM   31  C   UNL     1      18.595  52.636  48.173  1.00  0.00     0.001 A 
HETATM   32  C   UNL     1      19.675  51.880  48.636  1.00  0.00     0.014 A 
ENDBRANCH  25  27
ENDBRANCH  18  21
ENDBRANCH   1  17
TORSDOF 9
ENDMDL
MODEL 9
REMARK VINA RESULT:      -8.3      2.444      3.344
REMARK  9 active torsions:
REMARK  status: ('A' for Active; 'I' for Inactive)
REMARK       I    between atoms: C_2  and  N_3 
REMARK    1  A    between atoms: N_3  and  C_4 
REMARK    2  A    between atoms: C_6  and  O_7 
REMARK    3  A    between atoms: O_7  and  C_8 
REMARK    4  A    between atoms: C_8  and  C_9 
REMARK    5  A    between atoms: C_9  and  C_10 
REMARK    6  A    between atoms: C_10  and  C_11 
REMARK    7  A    between atoms: C_11  and  N_12 
REMARK       I    between atoms: N_12  and  C_13 
REMARK    8  A    between atoms: C_13  and  C_14 
REMARK    9  A    between atoms: C_18  and  C_19 
ROOT
HETATM    1  C   UNL     1      23.414  42.811  49.447  1.00  0.00     0.217 C 
ENDROOT
BRANCH   1   2
HETATM    2  C   UNL     1      22.705  44.065  48.961  1.00  0.00    -0.085 C 
BRANCH   2   3
HETATM    3  C   UNL     1      22.097  45.140  48.545  1.00  0.00    -0.078 C 
BRANCH   3   4
HETATM    4  C   UNL     1      21.389  46.394  48.059  1.00  0.00     0.269 C 
BRANCH   4   5
HETATM    5  O   UNL     1      22.330  47.299  47.488  1.00  0.00    -0.339 OA
BRANCH   5   6
HETATM    6  C   UNL     1      22.257  48.594  47.935  1.00  0.00     0.072 A 
HETATM    7  C   UNL     1      21.080  49.333  48.119  1.00  0.00     0.066 A 
HETATM    8  C   UNL     1      21.125  50.647  48.597  1.00  0.00     0.037 A 
HETATM    9  C   UNL     1      22.368  51.224  48.879  1.00  0.00     0.029 A 
HETATM   10  C   UNL     1      23.545  50.497  48.694  1.00  0.00     0.005 A 
HETATM   11  C   UNL     1      23.487  49.186  48.225  1.00  0.00     0.037 A 
BRANCH   8  12
HETATM   12  N   UNL     1      19.977  51.441  48.818  1.00  0.00    -0.327 N 
HETATM   13  C   UNL     1      18.992  51.253  49.771  1.00  0.00     0.218 C 
HETATM   14  C   UNL     1      17.921  52.314  49.718  1.00  0.00     0.117 C 
HETATM   15  O   UNL     1      18.947  50.367  50.620  1.00  0.00    -0.274 OA
HETATM   16  H   UNL     1      19.881  52.250  48.217  1.00  0.00     0.169 HD
ENDBRANCH   8  12
ENDBRANCH   5   6
ENDBRANCH   4   5
ENDBRANCH   3   4
ENDBRANCH   2   3
ENDBRANCH   1   2
BRANCH   1  17
HETATM   17  N   UNL     1      24.199  43.151  50.604  1.00  0.00    -0.345 N 
HETATM   18  C   UNL     1      25.561  42.998  50.614  1.00  0.00     0.270 C 
HETATM   19  O   UNL     1      26.191  42.609  49.635  1.00  0.00    -0.266 OA
HETATM   20  H   UNL     1      23.711  43.369  51.459  1.00  0.00     0.163 HD
BRANCH  18  21
HETATM   21  C   UNL     1      26.203  43.316  51.860  1.00  0.00     0.120 A 
HETATM   22  N   UNL     1      25.482  43.622  52.980  1.00  0.00    -0.272 N 
HETATM   23  H   UNL     1      24.470  43.651  53.062  1.00  0.00     0.189 HD
HETATM   24  N   UNL     1      26.230  43.919  54.053  1.00  0.00    -0.174 NA
HETATM   25  C   UNL     1      27.498  43.780  53.635  1.00  0.00     0.089 A 
HETATM   26  C   UNL     1      27.522  43.400  52.263  1.00  0.00     0.071 A 
BRANCH  25  27
HETATM   27  C   UNL     1      28.637  44.021  54.528  1.00  0.00    -0.006 A 
HETATM   28  C   UNL     1      29.650  43.064  54.691  1.00  0.00     0.014 A 
HETATM   29  C   UNL     1      30.739  43.312  55.534  1.00  0.00     0.001 A 
HETATM   30  C   UNL     1      30.828  44.519  56.224  1.00  0.00     0.000 A 
HETATM   31  C   UNL     1      29.829  45.477  56.077  1.00  0.00     0.001 A 
HETATM   32  C   UNL     1      28.741  45.229  55.237  1.00  0.00     0.014 A 
ENDBRANCH  25  27
ENDBRANCH  18  21
ENDBRANCH   1  17
TORSDOF 9
ENDMDL
MODEL 10
REMARK VINA RESULT:      -8.2      2.583     11.630
REMARK  9 active torsions:
REMARK  status: ('A' for Active; 'I' for Inactive)
REMARK       I    between atoms: C_2  and  N_3 
REMARK    1  A    between atoms: N_3  and  C_4 
REMARK    2  A    between atoms: C_6  and  O_7 
REMARK    3  A    between atoms: O_7  and  C_8 
REMARK    4  A    between atoms: C_8  and  C_9 
REMARK    5  A    between atoms: C_9  and  C_10 
REMARK    6  A    between atoms: C_10  and  C_11 
REMARK    7  A    between atoms: C_11  and  N_12 
REMARK       I    between atoms: N_12  and  C_13 
REMARK    8  A    between atoms: C_13  and  C_14 
REMARK    9  A    between atoms: C_18  and  C_19 
ROOT
HETATM    1  C   UNL     1      24.530  48.230  49.565  1.00  0.00     0.217 C 
ENDROOT
BRANCH   1   2
HETATM    2  C   UNL     1      24.745  46.992  50.421  1.00  0.00    -0.085 C 
BRANCH   2   3
HETATM    3  C   UNL     1      24.929  45.931  51.155  1.00  0.00    -0.078 C 
BRANCH   3   4
HETATM    4  C   UNL     1      25.145  44.694  52.012  1.00  0.00     0.269 C 
BRANCH   4   5
HETATM    5  O   UNL     1      24.946  45.009  53.387  1.00  0.00    -0.339 OA
BRANCH   5   6
HETATM    6  C   UNL     1      25.956  45.718  53.988  1.00  0.00     0.072 A 
HETATM    7  C   UNL     1      27.099  45.170  54.585  1.00  0.00     0.066 A 
HETATM    8  C   UNL     1      28.075  45.994  55.156  1.00  0.00     0.037 A 
HETATM    9  C   UNL     1      27.889  47.381  55.135  1.00  0.00     0.029 A 
HETATM   10  C   UNL     1      26.751  47.934  54.547  1.00  0.00     0.005 A 
HETATM   11  C   UNL     1      25.789  47.103  53.974  1.00  0.00     0.037 A 
BRANCH   8  12
HETATM   12  N   UNL     1      29.256  45.507  55.760  1.00  0.00    -0.327 N 
HETATM   13  C   UNL     1      29.593  45.542  57.101  1.00  0.00     0.218 C 
HETATM   14  C   UNL     1      30.936  44.913  57.380  1.00  0.00     0.117 C 
HETATM   15  O   UNL     1      28.913  45.986  58.021  1.00  0.00    -0.274 OA
HETATM   16  H   UNL     1      29.920  45.067  55.135  1.00  0.00     0.169 HD
ENDBRANCH   8  12
ENDBRANCH   5   6
ENDBRANCH   4   5
ENDBRANCH   3   4
ENDBRANCH   2   3
ENDBRANCH   1   2
BRANCH   1  17
HETATM   17  N   UNL     1      23.127  48.550  49.571  1.00  0.00    -0.345 N 
HETATM   18  C   UNL     1      22.689  49.845  49.474  1.00  0.00     0.270 C 
HETATM   19  O   UNL     1      23.453  50.794  49.331  1.00  0.00    -0.266 OA
HETATM   20  H   UNL     1      22.475  47.814  49.795  1.00  0.00     0.163 HD
BRANCH  18  21
HETATM   21  C   UNL     1      21.264  50.016  49.561  1.00  0.00     0.120 A 
HETATM   22  N   UNL     1      20.455  49.045  50.081  1.00  0.00    -0.272 N 
HETATM   23  H   UNL     1      20.748  48.145  50.453  1.00  0.00     0.189 HD
HETATM   24  N   UNL     1      19.149  49.349  50.069  1.00  0.00    -0.174 NA
HETATM   25  C   UNL     1      19.091  50.581  49.542  1.00  0.00     0.089 A 
HETATM   26  C   UNL     1      20.400  51.036  49.212  1.00  0.00     0.071 A 
BRANCH  25  27
HETATM   27  C   UNL     1      17.815  51.283  49.353  1.00  0.00    -0.006 A 
HETATM   28  C   UNL     1      17.584  52.541  49.928  1.00  0.00     0.014 A 
HETATM   29  C   UNL     1      16.369  53.206  49.729  1.00  0.00     0.001 A 
HETATM   30  C   UNL     1      15.371  52.620  48.954  1.00  0.00     0.000 A 
HETATM   31  C   UNL     1      15.582  51.369  48.381  1.00  0.00     0.001 A 
HETATM   32  C   UNL     1      16.794  50.704  48.581  1.00  0.00     0.014 A 
ENDBRANCH  25  27
ENDBRANCH  18  21
ENDBRANCH   1  17
TORSDOF 9
ENDMDL
