MODEL 1
REMARK VINA RESULT:     -10.5      0.000      0.000
REMARK  8 active torsions:
REMARK  status: ('A' for Active; 'I' for Inactive)
REMARK    1  A    between atoms: C_3  and  N_4 
REMARK       I    between atoms: N_4  and  C_5 
REMARK    2  A    between atoms: C_5  and  C_6 
REMARK    3  A    between atoms: C_6  and  N_7 
REMARK    4  A    between atoms: N_11  and  C_12 
REMARK    5  A    between atoms: C_14  and  N_15 
REMARK    6  A    between atoms: N_15  and  C_16 
REMARK    7  A    between atoms: C_23  and  N_24 
REMARK    8  A    between atoms: N_24  and  C_25 
ROOT
HETATM    1  C   UNL     1      24.230  47.275  49.461  1.00  0.00     0.756 A 
HETATM    2  N   UNL     1      23.559  46.555  48.572  1.00  0.00     0.131 NA
HETATM    3  C   UNL     1      22.361  47.005  48.218  1.00  0.00     0.758 A 
HETATM    4  N   UNL     1      21.870  48.159  48.637  1.00  0.00     0.131 NA
HETATM    5  C   UNL     1      22.616  48.855  49.479  1.00  0.00     0.758 A 
HETATM    6  N   UNL     1      23.802  48.444  49.917  1.00  0.00     0.131 NA
ENDROOT
BRANCH   1   7
HETATM    7  N   UNL     1      25.450  46.770  49.924  1.00  0.00    -0.210 N 
HETATM    8  C   UNL     1      25.572  45.303  49.949  1.00  0.00     0.169 C 
HETATM    9  C   UNL     1      24.949  44.719  51.237  1.00  0.00     0.256 C 
HETATM   10  N   UNL     1      25.586  45.405  52.463  1.00  0.00    -0.060 N 
HETATM   11  H   UNL     1      26.598  45.259  52.369  1.00  0.00     0.280 HD
HETATM   12  C   UNL     1      25.367  46.922  52.399  1.00  0.00     0.256 C 
HETATM   13  C   UNL     1      25.999  47.467  51.097  1.00  0.00     0.169 C 
BRANCH  10  14
HETATM   14  C   UNL     1      25.193  44.786  53.801  1.00  0.00     0.337 C 
BRANCH  14  15
HETATM   15  C   UNL     1      26.312  44.133  54.627  1.00  0.00     0.248 C 
HETATM   16  N   UNL     1      27.494  44.853  54.572  1.00  0.00    -0.325 N 
HETATM   17  H   UNL     1      27.523  45.615  53.903  1.00  0.00     0.169 HD
HETATM   18  O   UNL     1      26.113  43.069  55.196  1.00  0.00    -0.271 OA
BRANCH  16  19
HETATM   19  C   UNL     1      28.767  44.551  55.127  1.00  0.00     0.042 A 
HETATM   20  C   UNL     1      29.676  43.559  54.716  1.00  0.00    -0.035 A 
HETATM   21  C   UNL     1      29.421  42.512  53.667  1.00  0.00     0.050 C 
HETATM   22  C   UNL     1      30.939  43.487  55.349  1.00  0.00     0.011 A 
HETATM   23  C   UNL     1      31.279  44.327  56.407  1.00  0.00     0.024 A 
HETATM   24  C   UNL     1      30.355  45.254  56.853  1.00  0.00     0.036 A 
HETATM   25  C   UNL     1      29.113  45.364  56.226  1.00  0.00     0.053 A 
HETATM   26 CL   UNL     1      30.737  46.286  58.175  1.00  0.00    -0.084 Cl
ENDBRANCH  16  19
ENDBRANCH  14  15
ENDBRANCH  10  14
ENDBRANCH   1   7
BRANCH   3  27
HETATM   27  N   UNL     1      21.655  46.210  47.319  1.00  0.00    -0.187 N 
HETATM   28  H   UNL     1      22.193  45.392  47.074  1.00  0.00     0.184 HD
BRANCH  27  29
HETATM   29  C   UNL     1      20.281  46.103  47.049  1.00  0.00     0.049 A 
HETATM   30  C   UNL     1      19.778  46.704  45.884  1.00  0.00     0.030 A 
HETATM   31  C   UNL     1      18.416  46.662  45.576  1.00  0.00     0.002 A 
HETATM   32  C   UNL     1      17.528  46.021  46.435  1.00  0.00     0.000 A 
HETATM   33  C   UNL     1      18.004  45.438  47.606  1.00  0.00     0.002 A 
HETATM   34  C   UNL     1      19.367  45.492  47.915  1.00  0.00     0.030 A 
ENDBRANCH  27  29
ENDBRANCH   3  27
BRANCH   5  35
HETATM   35  N   UNL     1      22.073  50.085  49.840  1.00  0.00    -0.187 N 
HETATM   36  H   UNL     1      22.785  50.631  50.309  1.00  0.00     0.184 HD
BRANCH  35  37
HETATM   37  C   UNL     1      20.857  50.733  49.610  1.00  0.00     0.049 A 
HETATM   38  C   UNL     1      19.727  50.586  50.420  1.00  0.00     0.030 A 
HETATM   39  C   UNL     1      18.548  51.290  50.151  1.00  0.00     0.002 A 
HETATM   40  C   UNL     1      18.484  52.163  49.069  1.00  0.00     0.000 A 
HETATM   41  C   UNL     1      19.598  52.333  48.255  1.00  0.00     0.002 A 
HETATM   42  C   UNL     1      20.773  51.626  48.528  1.00  0.00     0.030 A 
ENDBRANCH  35  37
ENDBRANCH   5  35
TORSDOF 8
ENDMDL
MODEL 2
REMARK VINA RESULT:     -10.4      4.097     10.654
REMARK  8 active torsions:
REMARK  status: ('A' for Active; 'I' for Inactive)
REMARK    1  A    between atoms: C_3  and  N_4 
REMARK       I    between atoms: N_4  and  C_5 
REMARK    2  A    between atoms: C_5  and  C_6 
REMARK    3  A    between atoms: C_6  and  N_7 
REMARK    4  A    between atoms: N_11  and  C_12 
REMARK    5  A    between atoms: C_14  and  N_15 
REMARK    6  A    between atoms: N_15  and  C_16 
REMARK    7  A    between atoms: C_23  and  N_24 
REMARK    8  A    between atoms: N_24  and  C_25 
ROOT
HETATM    1  C   UNL     1      27.168  42.837  52.747  1.00  0.00     0.756 A 
HETATM    2  N   UNL     1      27.352  41.680  52.128  1.00  0.00     0.131 NA
HETATM    3  C   UNL     1      28.577  41.167  52.168  1.00  0.00     0.758 A 
HETATM    4  N   UNL     1      29.563  41.707  52.864  1.00  0.00     0.131 NA
HETATM    5  C   UNL     1      29.295  42.833  53.506  1.00  0.00     0.758 A 
HETATM    6  N   UNL     1      28.108  43.430  53.469  1.00  0.00     0.131 NA
ENDROOT
BRANCH   1   7
HETATM    7  N   UNL     1      25.913  43.446  52.634  1.00  0.00    -0.210 N 
HETATM    8  C   UNL     1      25.428  43.673  51.262  1.00  0.00     0.169 C 
HETATM    9  C   UNL     1      26.011  44.981  50.680  1.00  0.00     0.256 C 
HETATM   10  N   UNL     1      25.694  46.147  51.640  1.00  0.00    -0.060 N 
HETATM   11  H   UNL     1      24.674  46.142  51.755  1.00  0.00     0.280 HD
HETATM   12  C   UNL     1      26.281  45.867  53.030  1.00  0.00     0.256 C 
HETATM   13  C   UNL     1      25.678  44.551  53.575  1.00  0.00     0.169 C 
BRANCH  10  14
HETATM   14  C   UNL     1      26.052  47.524  51.091  1.00  0.00     0.337 C 
BRANCH  14  15
HETATM   15  C   UNL     1      25.230  48.038  49.898  1.00  0.00     0.248 C 
HETATM   16  N   UNL     1      23.871  47.827  50.067  1.00  0.00    -0.325 N 
HETATM   17  H   UNL     1      23.602  47.251  50.857  1.00  0.00     0.169 HD
HETATM   18  O   UNL     1      25.794  48.519  48.926  1.00  0.00    -0.271 OA
BRANCH  16  19
HETATM   19  C   UNL     1      22.795  48.084  49.175  1.00  0.00     0.042 A 
HETATM   20  C   UNL     1      22.154  47.178  48.311  1.00  0.00    -0.035 A 
HETATM   21  C   UNL     1      22.571  45.756  48.059  1.00  0.00     0.050 C 
HETATM   22  C   UNL     1      21.032  47.620  47.570  1.00  0.00     0.011 A 
HETATM   23  C   UNL     1      20.590  48.939  47.625  1.00  0.00     0.024 A 
HETATM   24  C   UNL     1      21.268  49.843  48.422  1.00  0.00     0.036 A 
HETATM   25  C   UNL     1      22.358  49.425  49.185  1.00  0.00     0.053 A 
HETATM   26 CL   UNL     1      20.761  51.485  48.488  1.00  0.00    -0.084 Cl
ENDBRANCH  16  19
ENDBRANCH  14  15
ENDBRANCH  10  14
ENDBRANCH   1   7
BRANCH   3  27
HETATM   27  N   UNL     1      28.759  39.975  51.473  1.00  0.00    -0.187 N 
HETATM   28  H   UNL     1      28.736  39.190  52.106  1.00  0.00     0.184 HD
BRANCH  27  29
HETATM   29  C   UNL     1      28.545  39.640  50.126  1.00  0.00     0.049 A 
HETATM   30  C   UNL     1      28.667  38.294  49.743  1.00  0.00     0.030 A 
HETATM   31  C   UNL     1      28.498  37.900  48.413  1.00  0.00     0.002 A 
HETATM   32  C   UNL     1      28.210  38.851  47.437  1.00  0.00     0.000 A 
HETATM   33  C   UNL     1      28.105  40.192  47.794  1.00  0.00     0.002 A 
HETATM   34  C   UNL     1      28.285  40.582  49.124  1.00  0.00     0.030 A 
ENDBRANCH  27  29
ENDBRANCH   3  27
BRANCH   5  35
HETATM   35  N   UNL     1      30.354  43.322  54.265  1.00  0.00    -0.187 N 
HETATM   36  H   UNL     1      31.208  43.237  53.727  1.00  0.00     0.184 HD
BRANCH  35  37
HETATM   37  C   UNL     1      30.469  43.970  55.497  1.00  0.00     0.049 A 
HETATM   38  C   UNL     1      29.777  45.137  55.835  1.00  0.00     0.030 A 
HETATM   39  C   UNL     1      29.914  45.718  57.100  1.00  0.00     0.002 A 
HETATM   40  C   UNL     1      30.740  45.133  58.055  1.00  0.00     0.000 A 
HETATM   41  C   UNL     1      31.431  43.966  57.745  1.00  0.00     0.002 A 
HETATM   42  C   UNL     1      31.291  43.391  56.480  1.00  0.00     0.030 A 
ENDBRANCH  35  37
ENDBRANCH   5  35
TORSDOF 8
ENDMDL
MODEL 3
REMARK VINA RESULT:     -10.1      3.952     11.700
REMARK  8 active torsions:
REMARK  status: ('A' for Active; 'I' for Inactive)
REMARK    1  A    between atoms: C_3  and  N_4 
REMARK       I    between atoms: N_4  and  C_5 
REMARK    2  A    between atoms: C_5  and  C_6 
REMARK    3  A    between atoms: C_6  and  N_7 
REMARK    4  A    between atoms: N_11  and  C_12 
REMARK    5  A    between atoms: C_14  and  N_15 
REMARK    6  A    between atoms: N_15  and  C_16 
REMARK    7  A    between atoms: C_23  and  N_24 
REMARK    8  A    between atoms: N_24  and  C_25 
ROOT
HETATM    1  C   UNL     1      26.886  43.443  52.517  1.00  0.00     0.756 A 
HETATM    2  N   UNL     1      27.836  44.173  53.084  1.00  0.00     0.131 NA
HETATM    3  C   UNL     1      28.955  43.542  53.421  1.00  0.00     0.758 A 
HETATM    4  N   UNL     1      29.183  42.272  53.133  1.00  0.00     0.131 NA
HETATM    5  C   UNL     1      28.214  41.616  52.516  1.00  0.00     0.758 A 
HETATM    6  N   UNL     1      27.048  42.168  52.193  1.00  0.00     0.131 NA
ENDROOT
BRANCH   1   7
HETATM    7  N   UNL     1      25.661  44.062  52.244  1.00  0.00    -0.210 N 
HETATM    8  C   UNL     1      25.254  44.090  50.830  1.00  0.00     0.169 C 
HETATM    9  C   UNL     1      25.912  45.277  50.089  1.00  0.00     0.256 C 
HETATM   10  N   UNL     1      25.589  46.585  50.843  1.00  0.00    -0.060 N 
HETATM   11  H   UNL     1      24.566  46.627  50.902  1.00  0.00     0.280 HD
HETATM   12  C   UNL     1      26.096  46.504  52.289  1.00  0.00     0.256 C 
HETATM   13  C   UNL     1      25.419  45.304  52.994  1.00  0.00     0.169 C 
BRANCH  10  14
HETATM   14  C   UNL     1      26.024  47.851  50.113  1.00  0.00     0.337 C 
BRANCH  14  15
HETATM   15  C   UNL     1      24.974  48.547  49.232  1.00  0.00     0.248 C 
HETATM   16  N   UNL     1      23.701  48.042  49.435  1.00  0.00    -0.325 N 
HETATM   17  H   UNL     1      23.636  47.208  50.009  1.00  0.00     0.169 HD
HETATM   18  O   UNL     1      25.317  49.405  48.431  1.00  0.00    -0.271 OA
BRANCH  16  19
HETATM   19  C   UNL     1      22.483  48.357  48.773  1.00  0.00     0.042 A 
HETATM   20  C   UNL     1      21.734  47.539  47.908  1.00  0.00    -0.035 A 
HETATM   21  C   UNL     1      22.146  46.187  47.398  1.00  0.00     0.050 C 
HETATM   22  C   UNL     1      20.491  48.015  47.426  1.00  0.00     0.011 A 
HETATM   23  C   UNL     1      20.025  49.291  47.733  1.00  0.00     0.024 A 
HETATM   24  C   UNL     1      20.799  50.117  48.527  1.00  0.00     0.036 A 
HETATM   25  C   UNL     1      22.014  49.661  49.038  1.00  0.00     0.053 A 
HETATM   26 CL   UNL     1      20.261  51.708  48.899  1.00  0.00    -0.084 Cl
ENDBRANCH  16  19
ENDBRANCH  14  15
ENDBRANCH  10  14
ENDBRANCH   1   7
BRANCH   3  27
HETATM   27  N   UNL     1      29.922  44.318  54.056  1.00  0.00    -0.187 N 
HETATM   28  H   UNL     1      30.135  45.136  53.505  1.00  0.00     0.184 HD
BRANCH  27  29
HETATM   29  C   UNL     1      30.305  44.409  55.403  1.00  0.00     0.049 A 
HETATM   30  C   UNL     1      31.084  43.377  55.950  1.00  0.00     0.030 A 
HETATM   31  C   UNL     1      31.470  43.393  57.293  1.00  0.00     0.002 A 
HETATM   32  C   UNL     1      31.076  44.442  58.118  1.00  0.00     0.000 A 
HETATM   33  C   UNL     1      30.286  45.465  57.600  1.00  0.00     0.002 A 
HETATM   34  C   UNL     1      29.894  45.439  56.258  1.00  0.00     0.030 A 
ENDBRANCH  27  29
ENDBRANCH   3  27
BRANCH   5  35
HETATM   35  N   UNL     1      28.533  40.301  52.189  1.00  0.00    -0.187 N 
HETATM   36  H   UNL     1      28.449  39.729  53.021  1.00  0.00     0.184 HD
BRANCH  35  37
HETATM   37  C   UNL     1      28.823  39.620  51.005  1.00  0.00     0.049 A 
HETATM   38  C   UNL     1      28.396  40.036  49.740  1.00  0.00     0.030 A 
HETATM   39  C   UNL     1      28.749  39.323  48.588  1.00  0.00     0.002 A 
HETATM   40  C   UNL     1      29.545  38.186  48.683  1.00  0.00     0.000 A 
HETATM   41  C   UNL     1      29.989  37.759  49.929  1.00  0.00     0.002 A 
HETATM   42  C   UNL     1      29.633  38.474  51.076  1.00  0.00     0.030 A 
ENDBRANCH  35  37
ENDBRANCH   5  35
TORSDOF 8
ENDMDL
MODEL 4
REMARK VINA RESULT:     -10.1      4.107     10.825
REMARK  8 active torsions:
REMARK  status: ('A' for Active; 'I' for Inactive)
REMARK    1  A    between atoms: C_3  and  N_4 
REMARK       I    between atoms: N_4  and  C_5 
REMARK    2  A    between atoms: C_5  and  C_6 
REMARK    3  A    between atoms: C_6  and  N_7 
REMARK    4  A    between atoms: N_11  and  C_12 
REMARK    5  A    between atoms: C_14  and  N_15 
REMARK    6  A    between atoms: N_15  and  C_16 
REMARK    7  A    between atoms: C_23  and  N_24 
REMARK    8  A    between atoms: N_24  and  C_25 
ROOT
HETATM    1  C   UNL     1      26.854  43.489  52.530  1.00  0.00     0.756 A 
HETATM    2  N   UNL     1      26.983  42.238  52.112  1.00  0.00     0.131 NA
HETATM    3  C   UNL     1      28.170  41.669  52.282  1.00  0.00     0.758 A 
HETATM    4  N   UNL     1      29.169  42.257  52.920  1.00  0.00     0.131 NA
HETATM    5  C   UNL     1      28.954  43.485  53.361  1.00  0.00     0.758 A 
HETATM    6  N   UNL     1      27.809  44.137  53.182  1.00  0.00     0.131 NA
ENDROOT
BRANCH   1   7
HETATM    7  N   UNL     1      25.644  44.143  52.271  1.00  0.00    -0.210 N 
HETATM    8  C   UNL     1      25.205  44.153  50.866  1.00  0.00     0.169 C 
HETATM    9  C   UNL     1      25.884  45.300  50.082  1.00  0.00     0.256 C 
HETATM   10  N   UNL     1      25.623  46.634  50.812  1.00  0.00    -0.060 N 
HETATM   11  H   UNL     1      24.602  46.712  50.894  1.00  0.00     0.280 HD
HETATM   12  C   UNL     1      26.161  46.570  52.248  1.00  0.00     0.256 C 
HETATM   13  C   UNL     1      25.462  45.410  52.996  1.00  0.00     0.169 C 
BRANCH  10  14
HETATM   14  C   UNL     1      26.081  47.869  50.043  1.00  0.00     0.337 C 
BRANCH  14  15
HETATM   15  C   UNL     1      25.023  48.608  49.209  1.00  0.00     0.248 C 
HETATM   16  N   UNL     1      23.741  48.151  49.464  1.00  0.00    -0.325 N 
HETATM   17  H   UNL     1      23.668  47.317  50.038  1.00  0.00     0.169 HD
HETATM   18  O   UNL     1      25.364  49.455  48.397  1.00  0.00    -0.271 OA
BRANCH  16  19
HETATM   19  C   UNL     1      22.509  48.514  48.855  1.00  0.00     0.042 A 
HETATM   20  C   UNL     1      21.824  49.739  48.956  1.00  0.00    -0.035 A 
HETATM   21  C   UNL     1      22.201  50.888  49.849  1.00  0.00     0.050 C 
HETATM   22  C   UNL     1      20.650  49.929  48.187  1.00  0.00     0.011 A 
HETATM   23  C   UNL     1      20.124  48.916  47.389  1.00  0.00     0.024 A 
HETATM   24  C   UNL     1      20.763  47.691  47.350  1.00  0.00     0.036 A 
HETATM   25  C   UNL     1      21.937  47.488  48.075  1.00  0.00     0.053 A 
HETATM   26 CL   UNL     1      20.120  46.413  46.394  1.00  0.00    -0.084 Cl
ENDBRANCH  16  19
ENDBRANCH  14  15
ENDBRANCH  10  14
ENDBRANCH   1   7
BRANCH   3  27
HETATM   27  N   UNL     1      28.297  40.370  51.796  1.00  0.00    -0.187 N 
HETATM   28  H   UNL     1      27.939  39.706  52.466  1.00  0.00     0.184 HD
BRANCH  27  29
HETATM   29  C   UNL     1      28.406  39.872  50.488  1.00  0.00     0.049 A 
HETATM   30  C   UNL     1      29.002  38.614  50.297  1.00  0.00     0.030 A 
HETATM   31  C   UNL     1      29.170  38.078  49.017  1.00  0.00     0.002 A 
HETATM   32  C   UNL     1      28.750  38.796  47.901  1.00  0.00     0.000 A 
HETATM   33  C   UNL     1      28.176  40.053  48.068  1.00  0.00     0.002 A 
HETATM   34  C   UNL     1      28.020  40.590  49.350  1.00  0.00     0.030 A 
ENDBRANCH  27  29
ENDBRANCH   3  27
BRANCH   5  35
HETATM   35  N   UNL     1      30.019  44.030  54.072  1.00  0.00    -0.187 N 
HETATM   36  H   UNL     1      30.733  44.324  53.416  1.00  0.00     0.184 HD
BRANCH  35  37
HETATM   37  C   UNL     1      30.255  44.341  55.413  1.00  0.00     0.049 A 
HETATM   38  C   UNL     1      29.639  45.396  56.092  1.00  0.00     0.030 A 
HETATM   39  C   UNL     1      29.896  45.633  57.447  1.00  0.00     0.002 A 
HETATM   40  C   UNL     1      30.771  44.809  58.149  1.00  0.00     0.000 A 
HETATM   41  C   UNL     1      31.388  43.748  57.497  1.00  0.00     0.002 A 
HETATM   42  C   UNL     1      31.128  43.516  56.144  1.00  0.00     0.030 A 
ENDBRANCH  35  37
ENDBRANCH   5  35
TORSDOF 8
ENDMDL
MODEL 5
REMARK VINA RESULT:      -9.8      3.972     10.921
REMARK  8 active torsions:
REMARK  status: ('A' for Active; 'I' for Inactive)
REMARK    1  A    between atoms: C_3  and  N_4 
REMARK       I    between atoms: N_4  and  C_5 
REMARK    2  A    between atoms: C_5  and  C_6 
REMARK    3  A    between atoms: C_6  and  N_7 
REMARK    4  A    between atoms: N_11  and  C_12 
REMARK    5  A    between atoms: C_14  and  N_15 
REMARK    6  A    between atoms: N_15  and  C_16 
REMARK    7  A    between atoms: C_23  and  N_24 
REMARK    8  A    between atoms: N_24  and  C_25 
ROOT
HETATM    1  C   UNL     1      26.976  44.325  52.335  1.00  0.00     0.756 A 
HETATM    2  N   UNL     1      26.842  43.366  51.430  1.00  0.00     0.131 NA
HETATM    3  C   UNL     1      27.820  42.470  51.358  1.00  0.00     0.758 A 
HETATM    4  N   UNL     1      28.843  42.449  52.195  1.00  0.00     0.131 NA
HETATM    5  C   UNL     1      28.885  43.402  53.111  1.00  0.00     0.758 A 
HETATM    6  N   UNL     1      27.970  44.362  53.210  1.00  0.00     0.131 NA
ENDROOT
BRANCH   1   7
HETATM    7  N   UNL     1      26.009  45.337  52.362  1.00  0.00    -0.210 N 
HETATM    8  C   UNL     1      24.615  44.892  52.531  1.00  0.00     0.169 C 
HETATM    9  C   UNL     1      24.002  44.472  51.175  1.00  0.00     0.256 C 
HETATM   10  N   UNL     1      24.154  45.633  50.170  1.00  0.00    -0.060 N 
HETATM   11  H   UNL     1      23.708  46.445  50.613  1.00  0.00     0.280 HD
HETATM   12  C   UNL     1      25.634  46.000  50.001  1.00  0.00     0.256 C 
HETATM   13  C   UNL     1      26.212  46.409  51.377  1.00  0.00     0.169 C 
BRANCH  10  14
HETATM   14  C   UNL     1      23.423  45.416  48.849  1.00  0.00     0.337 C 
BRANCH  14  15
HETATM   15  C   UNL     1      22.698  46.628  48.243  1.00  0.00     0.248 C 
HETATM   16  N   UNL     1      22.564  47.667  49.149  1.00  0.00    -0.325 N 
HETATM   17  H   UNL     1      22.819  47.460  50.109  1.00  0.00     0.169 HD
HETATM   18  O   UNL     1      22.272  46.579  47.098  1.00  0.00    -0.271 OA
BRANCH  16  19
HETATM   19  C   UNL     1      21.898  48.914  49.009  1.00  0.00     0.042 A 
HETATM   20  C   UNL     1      22.403  50.107  48.459  1.00  0.00    -0.035 A 
HETATM   21  C   UNL     1      23.821  50.342  48.019  1.00  0.00     0.050 C 
HETATM   22  C   UNL     1      21.536  51.218  48.327  1.00  0.00     0.011 A 
HETATM   23  C   UNL     1      20.221  51.181  48.784  1.00  0.00     0.024 A 
HETATM   24  C   UNL     1      19.751  50.028  49.387  1.00  0.00     0.036 A 
HETATM   25  C   UNL     1      20.577  48.911  49.503  1.00  0.00     0.053 A 
HETATM   26 CL   UNL     1      18.140  49.964  49.985  1.00  0.00    -0.084 Cl
ENDBRANCH  16  19
ENDBRANCH  14  15
ENDBRANCH  10  14
ENDBRANCH   1   7
BRANCH   3  27
HETATM   27  N   UNL     1      27.682  41.498  50.370  1.00  0.00    -0.187 N 
HETATM   28  H   UNL     1      27.226  41.884  49.557  1.00  0.00     0.184 HD
BRANCH  27  29
HETATM   29  C   UNL     1      28.386  40.308  50.130  1.00  0.00     0.049 A 
HETATM   30  C   UNL     1      28.879  39.587  51.230  1.00  0.00     0.030 A 
HETATM   31  C   UNL     1      29.617  38.413  51.057  1.00  0.00     0.002 A 
HETATM   32  C   UNL     1      29.881  37.940  49.775  1.00  0.00     0.000 A 
HETATM   33  C   UNL     1      29.418  38.651  48.671  1.00  0.00     0.002 A 
HETATM   34  C   UNL     1      28.690  39.831  48.849  1.00  0.00     0.030 A 
ENDBRANCH  27  29
ENDBRANCH   3  27
BRANCH   5  35
HETATM   35  N   UNL     1      29.953  43.295  53.998  1.00  0.00    -0.187 N 
HETATM   36  H   UNL     1      30.681  42.740  53.565  1.00  0.00     0.184 HD
BRANCH  35  37
HETATM   37  C   UNL     1      30.262  43.847  55.243  1.00  0.00     0.049 A 
HETATM   38  C   UNL     1      29.735  45.052  55.716  1.00  0.00     0.030 A 
HETATM   39  C   UNL     1      30.062  45.535  56.988  1.00  0.00     0.002 A 
HETATM   40  C   UNL     1      30.917  44.811  57.814  1.00  0.00     0.000 A 
HETATM   41  C   UNL     1      31.445  43.605  57.369  1.00  0.00     0.002 A 
HETATM   42  C   UNL     1      31.116  43.129  56.097  1.00  0.00     0.030 A 
ENDBRANCH  35  37
ENDBRANCH   5  35
TORSDOF 8
ENDMDL
MODEL 6
REMARK VINA RESULT:      -9.8      4.589     11.446
REMARK  8 active torsions:
REMARK  status: ('A' for Active; 'I' for Inactive)
REMARK    1  A    between atoms: C_3  and  N_4 
REMARK       I    between atoms: N_4  and  C_5 
REMARK    2  A    between atoms: C_5  and  C_6 
REMARK    3  A    between atoms: C_6  and  N_7 
REMARK    4  A    between atoms: N_11  and  C_12 
REMARK    5  A    between atoms: C_14  and  N_15 
REMARK    6  A    between atoms: N_15  and  C_16 
REMARK    7  A    between atoms: C_23  and  N_24 
REMARK    8  A    between atoms: N_24  and  C_25 
ROOT
HETATM    1  C   UNL     1      26.251  42.839  51.436  1.00  0.00     0.756 A 
HETATM    2  N   UNL     1      26.833  42.977  52.619  1.00  0.00     0.131 NA
HETATM    3  C   UNL     1      27.916  42.242  52.843  1.00  0.00     0.758 A 
HETATM    4  N   UNL     1      28.471  41.474  51.921  1.00  0.00     0.131 NA
HETATM    5  C   UNL     1      27.871  41.426  50.743  1.00  0.00     0.758 A 
HETATM    6  N   UNL     1      26.755  42.093  50.463  1.00  0.00     0.131 NA
ENDROOT
BRANCH   1   7
HETATM    7  N   UNL     1      25.053  43.527  51.213  1.00  0.00    -0.210 N 
HETATM    8  C   UNL     1      24.755  43.865  49.812  1.00  0.00     0.169 C 
HETATM    9  C   UNL     1      25.471  45.169  49.394  1.00  0.00     0.256 C 
HETATM   10  N   UNL     1      25.096  46.291  50.385  1.00  0.00    -0.060 N 
HETATM   11  H   UNL     1      24.071  46.340  50.376  1.00  0.00     0.280 HD
HETATM   12  C   UNL     1      25.491  45.894  51.813  1.00  0.00     0.256 C 
HETATM   13  C   UNL     1      24.759  44.584  52.192  1.00  0.00     0.169 C 
BRANCH  10  14
HETATM   14  C   UNL     1      25.590  47.676  49.977  1.00  0.00     0.337 C 
BRANCH  14  15
HETATM   15  C   UNL     1      24.599  48.579  49.226  1.00  0.00     0.248 C 
HETATM   16  N   UNL     1      23.281  48.229  49.468  1.00  0.00    -0.325 N 
HETATM   17  H   UNL     1      23.134  47.361  49.974  1.00  0.00     0.169 HD
HETATM   18  O   UNL     1      25.012  49.453  48.478  1.00  0.00    -0.271 OA
BRANCH  16  19
HETATM   19  C   UNL     1      22.085  48.758  48.914  1.00  0.00     0.042 A 
HETATM   20  C   UNL     1      21.495  50.010  49.166  1.00  0.00    -0.035 A 
HETATM   21  C   UNL     1      21.954  51.008  50.192  1.00  0.00     0.050 C 
HETATM   22  C   UNL     1      20.343  50.382  48.432  1.00  0.00     0.011 A 
HETATM   23  C   UNL     1      19.745  49.518  47.518  1.00  0.00     0.024 A 
HETATM   24  C   UNL     1      20.288  48.261  47.326  1.00  0.00     0.036 A 
HETATM   25  C   UNL     1      21.440  47.882  48.016  1.00  0.00     0.053 A 
HETATM   26 CL   UNL     1      19.554  47.164  46.224  1.00  0.00    -0.084 Cl
ENDBRANCH  16  19
ENDBRANCH  14  15
ENDBRANCH  10  14
ENDBRANCH   1   7
BRANCH   3  27
HETATM   27  N   UNL     1      28.485  42.368  54.108  1.00  0.00    -0.187 N 
HETATM   28  H   UNL     1      28.754  41.463  54.466  1.00  0.00     0.184 HD
BRANCH  27  29
HETATM   29  C   UNL     1      29.110  43.452  54.744  1.00  0.00     0.049 A 
HETATM   30  C   UNL     1      30.388  43.261  55.293  1.00  0.00     0.030 A 
HETATM   31  C   UNL     1      31.050  44.291  55.968  1.00  0.00     0.002 A 
HETATM   32  C   UNL     1      30.438  45.533  56.112  1.00  0.00     0.000 A 
HETATM   33  C   UNL     1      29.163  45.736  55.593  1.00  0.00     0.002 A 
HETATM   34  C   UNL     1      28.501  44.699  54.928  1.00  0.00     0.030 A 
ENDBRANCH  27  29
ENDBRANCH   3  27
BRANCH   5  35
HETATM   35  N   UNL     1      28.532  40.647  49.798  1.00  0.00    -0.187 N 
HETATM   36  H   UNL     1      29.506  40.921  49.772  1.00  0.00     0.184 HD
BRANCH  35  37
HETATM   37  C   UNL     1      28.182  39.555  48.999  1.00  0.00     0.049 A 
HETATM   38  C   UNL     1      28.220  39.564  47.602  1.00  0.00     0.030 A 
HETATM   39  C   UNL     1      27.887  38.424  46.862  1.00  0.00     0.002 A 
HETATM   40  C   UNL     1      27.518  37.249  47.512  1.00  0.00     0.000 A 
HETATM   41  C   UNL     1      27.482  37.214  48.901  1.00  0.00     0.002 A 
HETATM   42  C   UNL     1      27.816  38.356  49.634  1.00  0.00     0.030 A 
ENDBRANCH  35  37
ENDBRANCH   5  35
TORSDOF 8
ENDMDL
MODEL 7
REMARK VINA RESULT:      -9.8      1.449      1.931
REMARK  8 active torsions:
REMARK  status: ('A' for Active; 'I' for Inactive)
REMARK    1  A    between atoms: C_3  and  N_4 
REMARK       I    between atoms: N_4  and  C_5 
REMARK    2  A    between atoms: C_5  and  C_6 
REMARK    3  A    between atoms: C_6  and  N_7 
REMARK    4  A    between atoms: N_11  and  C_12 
REMARK    5  A    between atoms: C_14  and  N_15 
REMARK    6  A    between atoms: N_15  and  C_16 
REMARK    7  A    between atoms: C_23  and  N_24 
REMARK    8  A    between atoms: N_24  and  C_25 
ROOT
HETATM    1  C   UNL     1      24.889  47.484  49.689  1.00  0.00     0.756 A 
HETATM    2  N   UNL     1      24.167  46.385  49.523  1.00  0.00     0.131 NA
HETATM    3  C   UNL     1      22.890  46.550  49.197  1.00  0.00     0.758 A 
HETATM    4  N   UNL     1      22.355  47.733  48.948  1.00  0.00     0.131 NA
HETATM    5  C   UNL     1      23.147  48.786  49.078  1.00  0.00     0.758 A 
HETATM    6  N   UNL     1      24.421  48.701  49.451  1.00  0.00     0.131 NA
ENDROOT
BRANCH   1   7
HETATM    7  N   UNL     1      26.209  47.338  50.130  1.00  0.00    -0.210 N 
HETATM    8  C   UNL     1      26.986  46.261  49.493  1.00  0.00     0.169 C 
HETATM    9  C   UNL     1      26.707  44.902  50.175  1.00  0.00     0.256 C 
HETATM   10  N   UNL     1      26.973  45.032  51.689  1.00  0.00    -0.060 N 
HETATM   11  H   UNL     1      27.939  45.368  51.774  1.00  0.00     0.280 HD
HETATM   12  C   UNL     1      26.086  46.129  52.293  1.00  0.00     0.256 C 
HETATM   13  C   UNL     1      26.391  47.470  51.583  1.00  0.00     0.169 C 
BRANCH  10  14
HETATM   14  C   UNL     1      26.915  43.711  52.450  1.00  0.00     0.337 C 
BRANCH  14  15
HETATM   15  C   UNL     1      27.357  43.731  53.922  1.00  0.00     0.248 C 
HETATM   16  N   UNL     1      28.335  44.681  54.164  1.00  0.00    -0.325 N 
HETATM   17  H   UNL     1      28.734  45.132  53.347  1.00  0.00     0.169 HD
HETATM   18  O   UNL     1      26.884  42.930  54.715  1.00  0.00    -0.271 OA
BRANCH  16  19
HETATM   19  C   UNL     1      29.053  44.962  55.358  1.00  0.00     0.042 A 
HETATM   20  C   UNL     1      28.811  45.986  56.291  1.00  0.00    -0.035 A 
HETATM   21  C   UNL     1      27.802  47.091  56.143  1.00  0.00     0.050 C 
HETATM   22  C   UNL     1      29.591  46.033  57.471  1.00  0.00     0.011 A 
HETATM   23  C   UNL     1      30.631  45.134  57.699  1.00  0.00     0.024 A 
HETATM   24  C   UNL     1      30.910  44.173  56.745  1.00  0.00     0.036 A 
HETATM   25  C   UNL     1      30.136  44.088  55.587  1.00  0.00     0.053 A 
HETATM   26 CL   UNL     1      32.205  43.068  56.988  1.00  0.00    -0.084 Cl
ENDBRANCH  16  19
ENDBRANCH  14  15
ENDBRANCH  10  14
ENDBRANCH   1   7
BRANCH   3  27
HETATM   27  N   UNL     1      22.139  45.384  49.071  1.00  0.00    -0.187 N 
HETATM   28  H   UNL     1      22.229  44.815  49.900  1.00  0.00     0.184 HD
BRANCH  27  29
HETATM   29  C   UNL     1      21.026  45.075  48.274  1.00  0.00     0.049 A 
HETATM   30  C   UNL     1      21.233  44.366  47.079  1.00  0.00     0.030 A 
HETATM   31  C   UNL     1      20.171  44.057  46.225  1.00  0.00     0.002 A 
HETATM   32  C   UNL     1      18.879  44.458  46.550  1.00  0.00     0.000 A 
HETATM   33  C   UNL     1      18.655  45.179  47.719  1.00  0.00     0.002 A 
HETATM   34  C   UNL     1      19.723  45.495  48.565  1.00  0.00     0.030 A 
ENDBRANCH  27  29
ENDBRANCH   3  27
BRANCH   5  35
HETATM   35  N   UNL     1      22.545  49.997  48.749  1.00  0.00    -0.187 N 
HETATM   36  H   UNL     1      23.242  50.607  48.340  1.00  0.00     0.184 HD
BRANCH  35  37
HETATM   37  C   UNL     1      21.236  50.484  48.760  1.00  0.00     0.049 A 
HETATM   38  C   UNL     1      20.612  51.020  49.890  1.00  0.00     0.030 A 
HETATM   39  C   UNL     1      19.306  51.521  49.825  1.00  0.00     0.002 A 
HETATM   40  C   UNL     1      18.606  51.501  48.622  1.00  0.00     0.000 A 
HETATM   41  C   UNL     1      19.211  50.981  47.484  1.00  0.00     0.002 A 
HETATM   42  C   UNL     1      20.514  50.482  47.554  1.00  0.00     0.030 A 
ENDBRANCH  35  37
ENDBRANCH   5  35
TORSDOF 8
ENDMDL
MODEL 8
REMARK VINA RESULT:      -9.6      3.910     11.725
REMARK  8 active torsions:
REMARK  status: ('A' for Active; 'I' for Inactive)
REMARK    1  A    between atoms: C_3  and  N_4 
REMARK       I    between atoms: N_4  and  C_5 
REMARK    2  A    between atoms: C_5  and  C_6 
REMARK    3  A    between atoms: C_6  and  N_7 
REMARK    4  A    between atoms: N_11  and  C_12 
REMARK    5  A    between atoms: C_14  and  N_15 
REMARK    6  A    between atoms: N_15  and  C_16 
REMARK    7  A    between atoms: C_23  and  N_24 
REMARK    8  A    between atoms: N_24  and  C_25 
ROOT
HETATM    1  C   UNL     1      27.473  43.818  52.177  1.00  0.00     0.756 A 
HETATM    2  N   UNL     1      28.553  43.998  52.924  1.00  0.00     0.131 NA
HETATM    3  C   UNL     1      29.256  42.915  53.232  1.00  0.00     0.758 A 
HETATM    4  N   UNL     1      28.977  41.713  52.756  1.00  0.00     0.131 NA
HETATM    5  C   UNL     1      27.917  41.613  51.971  1.00  0.00     0.758 A 
HETATM    6  N   UNL     1      27.137  42.644  51.660  1.00  0.00     0.131 NA
ENDROOT
BRANCH   1   7
HETATM    7  N   UNL     1      26.661  44.929  51.923  1.00  0.00    -0.210 N 
HETATM    8  C   UNL     1      25.268  44.829  52.388  1.00  0.00     0.169 C 
HETATM    9  C   UNL     1      24.395  44.074  51.360  1.00  0.00     0.256 C 
HETATM   10  N   UNL     1      24.531  44.758  49.983  1.00  0.00    -0.060 N 
HETATM   11  H   UNL     1      24.270  45.740  50.133  1.00  0.00     0.280 HD
HETATM   12  C   UNL     1      25.999  44.771  49.538  1.00  0.00     0.256 C 
HETATM   13  C   UNL     1      26.839  45.530  50.593  1.00  0.00     0.169 C 
BRANCH  10  14
HETATM   14  C   UNL     1      23.574  44.224  48.922  1.00  0.00     0.337 C 
BRANCH  14  15
HETATM   15  C   UNL     1      22.265  44.999  48.704  1.00  0.00     0.248 C 
HETATM   16  N   UNL     1      22.488  46.296  48.273  1.00  0.00    -0.325 N 
HETATM   17  H   UNL     1      23.451  46.615  48.292  1.00  0.00     0.169 HD
HETATM   18  O   UNL     1      21.192  44.472  48.957  1.00  0.00    -0.271 OA
BRANCH  16  19
HETATM   19  C   UNL     1      21.561  47.345  48.034  1.00  0.00     0.042 A 
HETATM   20  C   UNL     1      20.584  47.422  47.024  1.00  0.00    -0.035 A 
HETATM   21  C   UNL     1      20.408  46.446  45.894  1.00  0.00     0.050 C 
HETATM   22  C   UNL     1      19.692  48.521  47.020  1.00  0.00     0.011 A 
HETATM   23  C   UNL     1      19.797  49.555  47.947  1.00  0.00     0.024 A 
HETATM   24  C   UNL     1      20.804  49.509  48.894  1.00  0.00     0.036 A 
HETATM   25  C   UNL     1      21.678  48.422  48.937  1.00  0.00     0.053 A 
HETATM   26 CL   UNL     1      20.976  50.786  50.033  1.00  0.00    -0.084 Cl
ENDBRANCH  16  19
ENDBRANCH  14  15
ENDBRANCH  10  14
ENDBRANCH   1   7
BRANCH   3  27
HETATM   27  N   UNL     1      30.361  43.121  54.054  1.00  0.00    -0.187 N 
HETATM   28  H   UNL     1      31.209  43.135  53.508  1.00  0.00     0.184 HD
BRANCH  27  29
HETATM   29  C   UNL     1      30.480  43.705  55.325  1.00  0.00     0.049 A 
HETATM   30  C   UNL     1      29.791  44.902  55.580  1.00  0.00     0.030 A 
HETATM   31  C   UNL     1      29.894  45.550  56.814  1.00  0.00     0.002 A 
HETATM   32  C   UNL     1      30.697  45.014  57.816  1.00  0.00     0.000 A 
HETATM   33  C   UNL     1      31.404  43.840  57.576  1.00  0.00     0.002 A 
HETATM   34  C   UNL     1      31.306  43.200  56.336  1.00  0.00     0.030 A 
ENDBRANCH  27  29
ENDBRANCH   3  27
BRANCH   5  35
HETATM   35  N   UNL     1      27.707  40.337  51.455  1.00  0.00    -0.187 N 
HETATM   36  H   UNL     1      26.894  39.934  51.904  1.00  0.00     0.184 HD
BRANCH  35  37
HETATM   37  C   UNL     1      28.281  39.579  50.432  1.00  0.00     0.049 A 
HETATM   38  C   UNL     1      27.906  39.669  49.089  1.00  0.00     0.030 A 
HETATM   39  C   UNL     1      28.544  38.902  48.107  1.00  0.00     0.002 A 
HETATM   40  C   UNL     1      29.578  38.037  48.455  1.00  0.00     0.000 A 
HETATM   41  C   UNL     1      29.974  37.938  49.784  1.00  0.00     0.002 A 
HETATM   42  C   UNL     1      29.332  38.706  50.759  1.00  0.00     0.030 A 
ENDBRANCH  35  37
ENDBRANCH   5  35
TORSDOF 8
ENDMDL
MODEL 9
REMARK VINA RESULT:      -9.6      2.777      5.455
REMARK  8 active torsions:
REMARK  status: ('A' for Active; 'I' for Inactive)
REMARK    1  A    between atoms: C_3  and  N_4 
REMARK       I    between atoms: N_4  and  C_5 
REMARK    2  A    between atoms: C_5  and  C_6 
REMARK    3  A    between atoms: C_6  and  N_7 
REMARK    4  A    between atoms: N_11  and  C_12 
REMARK    5  A    between atoms: C_14  and  N_15 
REMARK    6  A    between atoms: N_15  and  C_16 
REMARK    7  A    between atoms: C_23  and  N_24 
REMARK    8  A    between atoms: N_24  and  C_25 
ROOT
HETATM    1  C   UNL     1      21.116  47.246  48.046  1.00  0.00     0.756 A 
HETATM    2  N   UNL     1      20.142  47.873  48.691  1.00  0.00     0.131 NA
HETATM    3  C   UNL     1      20.456  49.020  49.280  1.00  0.00     0.758 A 
HETATM    4  N   UNL     1      21.645  49.588  49.169  1.00  0.00     0.131 NA
HETATM    5  C   UNL     1      22.554  48.936  48.463  1.00  0.00     0.758 A 
HETATM    6  N   UNL     1      22.327  47.758  47.888  1.00  0.00     0.131 NA
ENDROOT
BRANCH   1   7
HETATM    7  N   UNL     1      20.835  45.987  47.503  1.00  0.00    -0.210 N 
HETATM    8  C   UNL     1      20.408  44.953  48.460  1.00  0.00     0.169 C 
HETATM    9  C   UNL     1      21.629  44.286  49.134  1.00  0.00     0.256 C 
HETATM   10  N   UNL     1      22.579  43.751  48.042  1.00  0.00    -0.060 N 
HETATM   11  H   UNL     1      22.010  43.124  47.461  1.00  0.00     0.280 HD
HETATM   12  C   UNL     1      23.029  44.893  47.121  1.00  0.00     0.256 C 
HETATM   13  C   UNL     1      21.781  45.537  46.471  1.00  0.00     0.169 C 
BRANCH  10  14
HETATM   14  C   UNL     1      23.732  42.905  48.574  1.00  0.00     0.337 C 
BRANCH  14  15
HETATM   15  C   UNL     1      24.116  43.095  50.050  1.00  0.00     0.248 C 
HETATM   16  N   UNL     1      25.261  43.858  50.200  1.00  0.00    -0.325 N 
HETATM   17  H   UNL     1      25.774  44.070  49.350  1.00  0.00     0.169 HD
HETATM   18  O   UNL     1      23.459  42.555  50.929  1.00  0.00    -0.271 OA
BRANCH  16  19
HETATM   19  C   UNL     1      25.979  44.195  51.379  1.00  0.00     0.042 A 
HETATM   20  C   UNL     1      27.002  43.461  52.009  1.00  0.00    -0.035 A 
HETATM   21  C   UNL     1      27.460  42.082  51.623  1.00  0.00     0.050 C 
HETATM   22  C   UNL     1      27.655  44.025  53.130  1.00  0.00     0.011 A 
HETATM   23  C   UNL     1      27.271  45.253  53.663  1.00  0.00     0.024 A 
HETATM   24  C   UNL     1      26.218  45.937  53.083  1.00  0.00     0.036 A 
HETATM   25  C   UNL     1      25.577  45.416  51.959  1.00  0.00     0.053 A 
HETATM   26 CL   UNL     1      25.704  47.443  53.737  1.00  0.00    -0.084 Cl
ENDBRANCH  16  19
ENDBRANCH  14  15
ENDBRANCH  10  14
ENDBRANCH   1   7
BRANCH   3  27
HETATM   27  N   UNL     1      19.430  49.640  49.990  1.00  0.00    -0.187 N 
HETATM   28  H   UNL     1      19.677  49.724  50.965  1.00  0.00     0.184 HD
BRANCH  27  29
HETATM   29  C   UNL     1      18.397  50.495  49.577  1.00  0.00     0.049 A 
HETATM   30  C   UNL     1      18.478  51.856  49.915  1.00  0.00     0.030 A 
HETATM   31  C   UNL     1      17.466  52.753  49.562  1.00  0.00     0.002 A 
HETATM   32  C   UNL     1      16.347  52.301  48.868  1.00  0.00     0.000 A 
HETATM   33  C   UNL     1      16.239  50.953  48.541  1.00  0.00     0.002 A 
HETATM   34  C   UNL     1      17.249  50.057  48.906  1.00  0.00     0.030 A 
ENDBRANCH  27  29
ENDBRANCH   3  27
BRANCH   5  35
HETATM   35  N   UNL     1      23.766  49.609  48.334  1.00  0.00    -0.187 N 
HETATM   36  H   UNL     1      23.591  50.522  47.933  1.00  0.00     0.184 HD
BRANCH  35  37
HETATM   37  C   UNL     1      25.084  49.351  48.717  1.00  0.00     0.049 A 
HETATM   38  C   UNL     1      25.471  48.260  49.501  1.00  0.00     0.030 A 
HETATM   39  C   UNL     1      26.816  48.042  49.824  1.00  0.00     0.002 A 
HETATM   40  C   UNL     1      27.798  48.910  49.356  1.00  0.00     0.000 A 
HETATM   41  C   UNL     1      27.438  49.996  48.567  1.00  0.00     0.002 A 
HETATM   42  C   UNL     1      26.094  50.209  48.249  1.00  0.00     0.030 A 
ENDBRANCH  35  37
ENDBRANCH   5  35
TORSDOF 8
ENDMDL
MODEL 10
REMARK VINA RESULT:      -9.2      4.830     11.451
REMARK  8 active torsions:
REMARK  status: ('A' for Active; 'I' for Inactive)
REMARK    1  A    between atoms: C_3  and  N_4 
REMARK       I    between atoms: N_4  and  C_5 
REMARK    2  A    between atoms: C_5  and  C_6 
REMARK    3  A    between atoms: C_6  and  N_7 
REMARK    4  A    between atoms: N_11  and  C_12 
REMARK    5  A    between atoms: C_14  and  N_15 
REMARK    6  A    between atoms: N_15  and  C_16 
REMARK    7  A    between atoms: C_23  and  N_24 
REMARK    8  A    between atoms: N_24  and  C_25 
ROOT
HETATM    1  C   UNL     1      25.488  42.513  50.963  1.00  0.00     0.756 A 
HETATM    2  N   UNL     1      26.493  43.285  51.352  1.00  0.00     0.131 NA
HETATM    3  C   UNL     1      27.664  42.692  51.547  1.00  0.00     0.758 A 
HETATM    4  N   UNL     1      27.880  41.414  51.282  1.00  0.00     0.131 NA
HETATM    5  C   UNL     1      26.848  40.713  50.842  1.00  0.00     0.758 A 
HETATM    6  N   UNL     1      25.633  41.228  50.673  1.00  0.00     0.131 NA
ENDROOT
BRANCH   1   7
HETATM    7  N   UNL     1      24.221  43.096  50.849  1.00  0.00    -0.210 N 
HETATM    8  C   UNL     1      23.767  43.386  49.479  1.00  0.00     0.169 C 
HETATM    9  C   UNL     1      24.331  44.738  48.984  1.00  0.00     0.256 C 
HETATM   10  N   UNL     1      23.958  45.841  49.997  1.00  0.00    -0.060 N 
HETATM   11  H   UNL     1      22.936  45.806  50.084  1.00  0.00     0.280 HD
HETATM   12  C   UNL     1      24.516  45.500  51.385  1.00  0.00     0.256 C 
HETATM   13  C   UNL     1      23.933  44.142  51.842  1.00  0.00     0.169 C 
BRANCH  10  14
HETATM   14  C   UNL     1      24.295  47.255  49.534  1.00  0.00     0.337 C 
BRANCH  14  15
HETATM   15  C   UNL     1      23.176  48.050  48.841  1.00  0.00     0.248 C 
HETATM   16  N   UNL     1      21.951  47.884  49.464  1.00  0.00    -0.325 N 
HETATM   17  H   UNL     1      21.907  47.171  50.185  1.00  0.00     0.169 HD
HETATM   18  O   UNL     1      23.416  48.690  47.828  1.00  0.00    -0.271 OA
BRANCH  16  19
HETATM   19  C   UNL     1      20.671  48.379  49.096  1.00  0.00     0.042 A 
HETATM   20  C   UNL     1      19.550  47.643  48.668  1.00  0.00    -0.035 A 
HETATM   21  C   UNL     1      19.521  46.167  48.386  1.00  0.00     0.050 C 
HETATM   22  C   UNL     1      18.332  48.327  48.439  1.00  0.00     0.011 A 
HETATM   23  C   UNL     1      18.233  49.711  48.563  1.00  0.00     0.024 A 
HETATM   24  C   UNL     1      19.357  50.437  48.915  1.00  0.00     0.036 A 
HETATM   25  C   UNL     1      20.561  49.783  49.174  1.00  0.00     0.053 A 
HETATM   26 CL   UNL     1      19.271  52.149  49.048  1.00  0.00    -0.084 Cl
ENDBRANCH  16  19
ENDBRANCH  14  15
ENDBRANCH  10  14
ENDBRANCH   1   7
BRANCH   3  27
HETATM   27  N   UNL     1      28.694  43.513  51.999  1.00  0.00    -0.187 N 
HETATM   28  H   UNL     1      28.897  44.231  51.319  1.00  0.00     0.184 HD
BRANCH  27  29
HETATM   29  C   UNL     1      29.165  43.789  53.292  1.00  0.00     0.049 A 
HETATM   30  C   UNL     1      30.228  43.022  53.796  1.00  0.00     0.030 A 
HETATM   31  C   UNL     1      30.721  43.225  55.088  1.00  0.00     0.002 A 
HETATM   32  C   UNL     1      30.153  44.199  55.904  1.00  0.00     0.000 A 
HETATM   33  C   UNL     1      29.085  44.956  55.430  1.00  0.00     0.002 A 
HETATM   34  C   UNL     1      28.588  44.741  54.141  1.00  0.00     0.030 A 
ENDBRANCH  27  29
ENDBRANCH   3  27
BRANCH   5  35
HETATM   35  N   UNL     1      27.149  39.391  50.527  1.00  0.00    -0.187 N 
HETATM   36  H   UNL     1      27.419  38.907  51.375  1.00  0.00     0.184 HD
BRANCH  35  37
HETATM   37  C   UNL     1      27.058  38.605  49.376  1.00  0.00     0.049 A 
HETATM   38  C   UNL     1      27.314  39.077  48.085  1.00  0.00     0.030 A 
HETATM   39  C   UNL     1      27.235  38.227  46.976  1.00  0.00     0.002 A 
HETATM   40  C   UNL     1      26.909  36.884  47.143  1.00  0.00     0.000 A 
HETATM   41  C   UNL     1      26.660  36.391  48.419  1.00  0.00     0.002 A 
HETATM   42  C   UNL     1      26.739  37.244  49.522  1.00  0.00     0.030 A 
ENDBRANCH  35  37
ENDBRANCH   5  35
TORSDOF 8
ENDMDL
