MODEL 1
REMARK VINA RESULT:      -8.4      0.000      0.000
REMARK  6 active torsions:
REMARK  status: ('A' for Active; 'I' for Inactive)
REMARK    1  A    between atoms: N_2  and  C_4 
REMARK    2  A    between atoms: N_2  and  C_14 
REMARK    3  A    between atoms: C_5  and  O_6 
REMARK    4  A    between atoms: C_14  and  C_15 
REMARK    5  A    between atoms: C_15  and  O_16 
REMARK    6  A    between atoms: C_15  and  C_17 
ROOT
HETATM    1  C   UNL     1      26.192  43.557  54.924  1.00  0.00     0.270 C 
HETATM    2  N   UNL     1      26.737  43.040  53.620  1.00  0.00    -0.065 N 
HETATM    3  H   UNL     1      26.128  42.276  53.281  1.00  0.00     0.280 HD
ENDROOT
BRANCH   2   4
HETATM    4  C   UNL     1      26.705  44.057  52.466  1.00  0.00     0.225 C 
HETATM    5  C   UNL     1      25.641  43.623  51.402  1.00  0.00     0.183 C 
HETATM    6  C   UNL     1      25.183  44.935  50.857  1.00  0.00    -0.021 A 
HETATM    7  C   UNL     1      25.535  45.980  51.717  1.00  0.00    -0.047 A 
HETATM    8  C   UNL     1      24.480  45.179  49.688  1.00  0.00     0.010 A 
HETATM    9  C   UNL     1      26.240  45.462  52.932  1.00  0.00     0.075 C 
HETATM   10  C   UNL     1      25.183  47.288  51.436  1.00  0.00     0.008 A 
HETATM   11  C   UNL     1      24.481  47.543  50.256  1.00  0.00     0.001 A 
HETATM   12  C   UNL     1      24.133  46.497  49.388  1.00  0.00     0.001 A 
BRANCH   5  13
HETATM   13  O   UNL     1      24.575  42.936  52.068  1.00  0.00    -0.389 OA
HETATM   14  H   UNL     1      24.197  43.560  52.720  1.00  0.00     0.210 HD
ENDBRANCH   5  13
ENDBRANCH   2   4
BRANCH   2  15
HETATM   15  C   UNL     1      28.138  42.421  53.792  1.00  0.00     0.271 C 
BRANCH  15  16
HETATM   16  C   UNL     1      29.275  43.456  53.600  1.00  0.00     0.177 C 
BRANCH  16  17
HETATM   17  O   UNL     1      30.316  42.904  52.792  1.00  0.00    -0.389 OA
HETATM   18  H   UNL     1      30.165  41.940  52.737  1.00  0.00     0.210 HD
ENDBRANCH  16  17
BRANCH  16  19
HETATM   19  C   UNL     1      29.848  43.893  54.930  1.00  0.00    -0.028 A 
HETATM   20  C   UNL     1      30.792  43.087  55.591  1.00  0.00     0.013 A 
HETATM   21  C   UNL     1      31.334  43.491  56.813  1.00  0.00     0.043 A 
HETATM   22  C   UNL     1      30.939  44.697  57.376  1.00  0.00     0.116 A 
HETATM   23  F   UNL     1      31.461  45.081  58.547  1.00  0.00    -0.206 F 
HETATM   24  C   UNL     1      30.008  45.510  56.742  1.00  0.00     0.043 A 
HETATM   25  C   UNL     1      29.463  45.112  55.520  1.00  0.00     0.013 A 
ENDBRANCH  16  19
ENDBRANCH  15  16
ENDBRANCH   2  15
TORSDOF 6
ENDMDL
MODEL 2
REMARK VINA RESULT:      -8.3      2.169      3.175
REMARK  6 active torsions:
REMARK  status: ('A' for Active; 'I' for Inactive)
REMARK    1  A    between atoms: N_2  and  C_4 
REMARK    2  A    between atoms: N_2  and  C_14 
REMARK    3  A    between atoms: C_5  and  O_6 
REMARK    4  A    between atoms: C_14  and  C_15 
REMARK    5  A    between atoms: C_15  and  O_16 
REMARK    6  A    between atoms: C_15  and  C_17 
ROOT
HETATM    1  C   UNL     1      24.564  44.270  51.078  1.00  0.00     0.270 C 
HETATM    2  N   UNL     1      25.830  45.042  51.340  1.00  0.00    -0.065 N 
HETATM    3  H   UNL     1      26.553  44.739  50.666  1.00  0.00     0.280 HD
ENDROOT
BRANCH   2   4
HETATM    4  C   UNL     1      25.719  46.555  51.085  1.00  0.00     0.225 C 
HETATM    5  C   UNL     1      26.908  47.033  50.183  1.00  0.00     0.183 C 
HETATM    6  C   UNL     1      26.299  48.168  49.429  1.00  0.00    -0.021 A 
HETATM    7  C   UNL     1      24.903  48.115  49.495  1.00  0.00    -0.047 A 
HETATM    8  C   UNL     1      26.944  49.165  48.714  1.00  0.00     0.010 A 
HETATM    9  C   UNL     1      24.446  46.925  50.278  1.00  0.00     0.075 C 
HETATM   10  C   UNL     1      24.121  49.049  48.839  1.00  0.00     0.008 A 
HETATM   11  C   UNL     1      24.762  50.061  48.122  1.00  0.00     0.001 A 
HETATM   12  C   UNL     1      26.163  50.119  48.060  1.00  0.00     0.001 A 
BRANCH   5  13
HETATM   13  O   UNL     1      27.279  45.964  49.304  1.00  0.00    -0.389 OA
HETATM   14  H   UNL     1      27.384  46.352  48.412  1.00  0.00     0.210 HD
ENDBRANCH   5  13
ENDBRANCH   2   4
BRANCH   2  15
HETATM   15  C   UNL     1      26.402  44.743  52.739  1.00  0.00     0.271 C 
BRANCH  15  16
HETATM   16  C   UNL     1      27.518  43.669  52.710  1.00  0.00     0.177 C 
BRANCH  16  17
HETATM   17  O   UNL     1      26.957  42.366  52.871  1.00  0.00    -0.389 OA
HETATM   18  H   UNL     1      27.668  41.717  52.704  1.00  0.00     0.210 HD
ENDBRANCH  16  17
BRANCH  16  19
HETATM   19  C   UNL     1      28.542  43.914  53.798  1.00  0.00    -0.028 A 
HETATM   20  C   UNL     1      29.607  43.015  53.979  1.00  0.00     0.013 A 
HETATM   21  C   UNL     1      30.562  43.242  54.972  1.00  0.00     0.043 A 
HETATM   22  C   UNL     1      30.458  44.364  55.783  1.00  0.00     0.116 A 
HETATM   23  F   UNL     1      31.376  44.578  56.733  1.00  0.00    -0.206 F 
HETATM   24  C   UNL     1      29.415  45.266  55.623  1.00  0.00     0.043 A 
HETATM   25  C   UNL     1      28.457  45.045  54.632  1.00  0.00     0.013 A 
ENDBRANCH  16  19
ENDBRANCH  15  16
ENDBRANCH   2  15
TORSDOF 6
ENDMDL
MODEL 3
REMARK VINA RESULT:      -8.3      3.300      7.583
REMARK  6 active torsions:
REMARK  status: ('A' for Active; 'I' for Inactive)
REMARK    1  A    between atoms: N_2  and  C_4 
REMARK    2  A    between atoms: N_2  and  C_14 
REMARK    3  A    between atoms: C_5  and  O_6 
REMARK    4  A    between atoms: C_14  and  C_15 
REMARK    5  A    between atoms: C_15  and  O_16 
REMARK    6  A    between atoms: C_15  and  C_17 
ROOT
HETATM    1  C   UNL     1      26.811  42.616  51.897  1.00  0.00     0.270 C 
HETATM    2  N   UNL     1      26.921  44.059  52.310  1.00  0.00    -0.065 N 
HETATM    3  H   UNL     1      26.208  44.256  53.033  1.00  0.00     0.280 HD
ENDROOT
BRANCH   2   4
HETATM    4  C   UNL     1      28.242  44.425  53.007  1.00  0.00     0.225 C 
HETATM    5  C   UNL     1      27.955  45.314  54.264  1.00  0.00     0.183 C 
HETATM    6  C   UNL     1      29.071  44.938  55.182  1.00  0.00    -0.021 A 
HETATM    7  C   UNL     1      29.659  43.735  54.781  1.00  0.00    -0.047 A 
HETATM    8  C   UNL     1      29.516  45.611  56.309  1.00  0.00     0.010 A 
HETATM    9  C   UNL     1      28.975  43.179  53.571  1.00  0.00     0.075 C 
HETATM   10  C   UNL     1      30.696  43.171  55.502  1.00  0.00     0.008 A 
HETATM   11  C   UNL     1      31.155  43.844  56.636  1.00  0.00     0.001 A 
HETATM   12  C   UNL     1      30.570  45.056  57.036  1.00  0.00     0.001 A 
BRANCH   5  13
HETATM   13  O   UNL     1      26.684  44.942  54.812  1.00  0.00    -0.389 OA
HETATM   14  H   UNL     1      26.362  45.708  55.330  1.00  0.00     0.210 HD
ENDBRANCH   5  13
ENDBRANCH   2   4
BRANCH   2  15
HETATM   15  C   UNL     1      26.613  45.013  51.140  1.00  0.00     0.271 C 
BRANCH  15  16
HETATM   16  C   UNL     1      25.464  46.002  51.462  1.00  0.00     0.177 C 
BRANCH  16  17
HETATM   17  O   UNL     1      24.207  45.324  51.442  1.00  0.00    -0.389 OA
HETATM   18  H   UNL     1      24.155  44.778  52.251  1.00  0.00     0.210 HD
ENDBRANCH  16  17
BRANCH  16  19
HETATM   19  C   UNL     1      25.435  47.148  50.474  1.00  0.00    -0.028 A 
HETATM   20  C   UNL     1      24.206  47.634  49.994  1.00  0.00     0.013 A 
HETATM   21  C   UNL     1      24.172  48.699  49.093  1.00  0.00     0.043 A 
HETATM   22  C   UNL     1      25.359  49.282  48.670  1.00  0.00     0.116 A 
HETATM   23  F   UNL     1      25.321  50.304  47.807  1.00  0.00    -0.206 F 
HETATM   24  C   UNL     1      26.585  48.820  49.131  1.00  0.00     0.043 A 
HETATM   25  C   UNL     1      26.626  47.754  50.033  1.00  0.00     0.013 A 
ENDBRANCH  16  19
ENDBRANCH  15  16
ENDBRANCH   2  15
TORSDOF 6
ENDMDL
MODEL 4
REMARK VINA RESULT:      -8.0      2.892      7.055
REMARK  6 active torsions:
REMARK  status: ('A' for Active; 'I' for Inactive)
REMARK    1  A    between atoms: N_2  and  C_4 
REMARK    2  A    between atoms: N_2  and  C_14 
REMARK    3  A    between atoms: C_5  and  O_6 
REMARK    4  A    between atoms: C_14  and  C_15 
REMARK    5  A    between atoms: C_15  and  O_16 
REMARK    6  A    between atoms: C_15  and  C_17 
ROOT
HETATM    1  C   UNL     1      27.764  41.048  52.255  1.00  0.00     0.270 C 
HETATM    2  N   UNL     1      27.302  42.449  52.554  1.00  0.00    -0.065 N 
HETATM    3  H   UNL     1      26.602  42.415  53.315  1.00  0.00     0.280 HD
ENDROOT
BRANCH   2   4
HETATM    4  C   UNL     1      28.393  43.376  53.117  1.00  0.00     0.225 C 
HETATM    5  C   UNL     1      27.767  44.371  54.151  1.00  0.00     0.183 C 
HETATM    6  C   UNL     1      28.898  44.598  55.099  1.00  0.00    -0.021 A 
HETATM    7  C   UNL     1      29.868  43.601  54.961  1.00  0.00    -0.047 A 
HETATM    8  C   UNL     1      29.040  45.609  56.037  1.00  0.00     0.010 A 
HETATM    9  C   UNL     1      29.467  42.599  53.925  1.00  0.00     0.075 C 
HETATM   10  C   UNL     1      30.996  43.585  55.762  1.00  0.00     0.008 A 
HETATM   11  C   UNL     1      31.151  44.603  56.704  1.00  0.00     0.001 A 
HETATM   12  C   UNL     1      30.181  45.608  56.840  1.00  0.00     0.001 A 
BRANCH   5  13
HETATM   13  O   UNL     1      26.664  43.728  54.802  1.00  0.00    -0.389 OA
HETATM   14  H   UNL     1      25.858  44.229  54.559  1.00  0.00     0.210 HD
ENDBRANCH   5  13
ENDBRANCH   2   4
BRANCH   2  15
HETATM   15  C   UNL     1      26.585  43.084  51.347  1.00  0.00     0.271 C 
BRANCH  15  16
HETATM   16  C   UNL     1      25.186  43.643  51.709  1.00  0.00     0.177 C 
BRANCH  16  17
HETATM   17  O   UNL     1      24.165  42.744  51.275  1.00  0.00    -0.389 OA
HETATM   18  H   UNL     1      23.681  43.179  50.547  1.00  0.00     0.210 HD
ENDBRANCH  16  17
BRANCH  16  19
HETATM   19  C   UNL     1      24.961  45.002  51.082  1.00  0.00    -0.028 A 
HETATM   20  C   UNL     1      25.774  46.090  51.445  1.00  0.00     0.013 A 
HETATM   21  C   UNL     1      25.579  47.343  50.861  1.00  0.00     0.043 A 
HETATM   22  C   UNL     1      24.578  47.513  49.914  1.00  0.00     0.116 A 
HETATM   23  F   UNL     1      24.396  48.716  49.355  1.00  0.00    -0.206 F 
HETATM   24  C   UNL     1      23.763  46.453  49.539  1.00  0.00     0.043 A 
HETATM   25  C   UNL     1      23.953  45.198  50.119  1.00  0.00     0.013 A 
ENDBRANCH  16  19
ENDBRANCH  15  16
ENDBRANCH   2  15
TORSDOF 6
ENDMDL
MODEL 5
REMARK VINA RESULT:      -7.8      3.691      7.810
REMARK  6 active torsions:
REMARK  status: ('A' for Active; 'I' for Inactive)
REMARK    1  A    between atoms: N_2  and  C_4 
REMARK    2  A    between atoms: N_2  and  C_14 
REMARK    3  A    between atoms: C_5  and  O_6 
REMARK    4  A    between atoms: C_14  and  C_15 
REMARK    5  A    between atoms: C_15  and  O_16 
REMARK    6  A    between atoms: C_15  and  C_17 
ROOT
HETATM    1  C   UNL     1      27.948  41.375  52.279  1.00  0.00     0.270 C 
HETATM    2  N   UNL     1      27.624  42.805  52.619  1.00  0.00    -0.065 N 
HETATM    3  H   UNL     1      26.872  42.820  53.329  1.00  0.00     0.280 HD
ENDROOT
BRANCH   2   4
HETATM    4  C   UNL     1      28.769  43.574  53.301  1.00  0.00     0.225 C 
HETATM    5  C   UNL     1      28.183  44.621  54.309  1.00  0.00     0.183 C 
HETATM    6  C   UNL     1      29.246  44.682  55.356  1.00  0.00    -0.021 A 
HETATM    7  C   UNL     1      30.093  43.573  55.270  1.00  0.00    -0.047 A 
HETATM    8  C   UNL     1      29.430  45.648  56.333  1.00  0.00     0.010 A 
HETATM    9  C   UNL     1      29.662  42.651  54.172  1.00  0.00     0.075 C 
HETATM   10  C   UNL     1      31.134  43.398  56.163  1.00  0.00     0.008 A 
HETATM   11  C   UNL     1      31.331  44.369  57.146  1.00  0.00     0.001 A 
HETATM   12  C   UNL     1      30.486  45.486  57.230  1.00  0.00     0.001 A 
BRANCH   5  13
HETATM   13  O   UNL     1      26.956  44.110  54.842  1.00  0.00    -0.389 OA
HETATM   14  H   UNL     1      26.621  43.447  54.204  1.00  0.00     0.210 HD
ENDBRANCH   5  13
ENDBRANCH   2   4
BRANCH   2  15
HETATM   15  C   UNL     1      27.073  43.571  51.401  1.00  0.00     0.271 C 
BRANCH  15  16
HETATM   16  C   UNL     1      25.553  43.853  51.511  1.00  0.00     0.177 C 
BRANCH  16  17
HETATM   17  O   UNL     1      25.084  43.533  52.821  1.00  0.00    -0.389 OA
HETATM   18  H   UNL     1      24.445  42.799  52.732  1.00  0.00     0.210 HD
ENDBRANCH  16  17
BRANCH  16  19
HETATM   19  C   UNL     1      24.773  43.058  50.487  1.00  0.00    -0.028 A 
HETATM   20  C   UNL     1      23.460  43.433  50.154  1.00  0.00     0.013 A 
HETATM   21  C   UNL     1      22.739  42.710  49.201  1.00  0.00     0.043 A 
HETATM   22  C   UNL     1      23.325  41.617  48.578  1.00  0.00     0.116 A 
HETATM   23  F   UNL     1      22.631  40.928  47.664  1.00  0.00    -0.206 F 
HETATM   24  C   UNL     1      24.621  41.228  48.890  1.00  0.00     0.043 A 
HETATM   25  C   UNL     1      25.347  41.946  49.842  1.00  0.00     0.013 A 
ENDBRANCH  16  19
ENDBRANCH  15  16
ENDBRANCH   2  15
TORSDOF 6
ENDMDL
MODEL 6
REMARK VINA RESULT:      -7.7      2.175      3.050
REMARK  6 active torsions:
REMARK  status: ('A' for Active; 'I' for Inactive)
REMARK    1  A    between atoms: N_2  and  C_4 
REMARK    2  A    between atoms: N_2  and  C_14 
REMARK    3  A    between atoms: C_5  and  O_6 
REMARK    4  A    between atoms: C_14  and  C_15 
REMARK    5  A    between atoms: C_15  and  O_16 
REMARK    6  A    between atoms: C_15  and  C_17 
ROOT
HETATM    1  C   UNL     1      25.601  44.078  53.677  1.00  0.00     0.270 C 
HETATM    2  N   UNL     1      26.617  43.423  52.779  1.00  0.00    -0.065 N 
HETATM    3  H   UNL     1      26.755  42.445  53.087  1.00  0.00     0.280 HD
ENDROOT
BRANCH   2   4
HETATM    4  C   UNL     1      26.173  43.274  51.314  1.00  0.00     0.225 C 
HETATM    5  C   UNL     1      26.565  41.856  50.778  1.00  0.00     0.183 C 
HETATM    6  C   UNL     1      25.486  41.582  49.783  1.00  0.00    -0.021 A 
HETATM    7  C   UNL     1      24.395  42.431  49.989  1.00  0.00    -0.047 A 
HETATM    8  C   UNL     1      25.469  40.625  48.780  1.00  0.00     0.010 A 
HETATM    9  C   UNL     1      24.630  43.337  51.156  1.00  0.00     0.075 C 
HETATM   10  C   UNL     1      23.259  42.338  49.205  1.00  0.00     0.008 A 
HETATM   11  C   UNL     1      23.235  41.382  48.188  1.00  0.00     0.001 A 
HETATM   12  C   UNL     1      24.332  40.533  47.976  1.00  0.00     0.001 A 
BRANCH   5  13
HETATM   13  O   UNL     1      26.520  40.923  51.865  1.00  0.00    -0.389 OA
HETATM   14  H   UNL     1      27.371  41.000  52.342  1.00  0.00     0.210 HD
ENDBRANCH   5  13
ENDBRANCH   2   4
BRANCH   2  15
HETATM   15  C   UNL     1      27.997  44.100  52.888  1.00  0.00     0.271 C 
BRANCH  15  16
HETATM   16  C   UNL     1      29.061  43.185  53.545  1.00  0.00     0.177 C 
BRANCH  16  17
HETATM   17  O   UNL     1      28.497  41.909  53.850  1.00  0.00    -0.389 OA
HETATM   18  H   UNL     1      29.065  41.230  53.437  1.00  0.00     0.210 HD
ENDBRANCH  16  17
BRANCH  16  19
HETATM   19  C   UNL     1      29.613  43.807  54.809  1.00  0.00    -0.028 A 
HETATM   20  C   UNL     1      30.653  43.173  55.511  1.00  0.00     0.013 A 
HETATM   21  C   UNL     1      31.176  43.749  56.670  1.00  0.00     0.043 A 
HETATM   22  C   UNL     1      30.666  44.955  57.131  1.00  0.00     0.116 A 
HETATM   23  F   UNL     1      31.171  45.504  58.242  1.00  0.00    -0.206 F 
HETATM   24  C   UNL     1      29.639  45.600  56.454  1.00  0.00     0.043 A 
HETATM   25  C   UNL     1      29.112  45.030  55.294  1.00  0.00     0.013 A 
ENDBRANCH  16  19
ENDBRANCH  15  16
ENDBRANCH   2  15
TORSDOF 6
ENDMDL
MODEL 7
REMARK VINA RESULT:      -7.7      4.272      7.693
REMARK  6 active torsions:
REMARK  status: ('A' for Active; 'I' for Inactive)
REMARK    1  A    between atoms: N_2  and  C_4 
REMARK    2  A    between atoms: N_2  and  C_14 
REMARK    3  A    between atoms: C_5  and  O_6 
REMARK    4  A    between atoms: C_14  and  C_15 
REMARK    5  A    between atoms: C_15  and  O_16 
REMARK    6  A    between atoms: C_15  and  C_17 
ROOT
HETATM    1  C   UNL     1      27.400  43.943  51.168  1.00  0.00     0.270 C 
HETATM    2  N   UNL     1      27.882  42.741  51.937  1.00  0.00    -0.065 N 
HETATM    3  H   UNL     1      28.819  42.475  51.590  1.00  0.00     0.280 HD
ENDROOT
BRANCH   2   4
HETATM    4  C   UNL     1      28.118  42.995  53.436  1.00  0.00     0.225 C 
HETATM    5  C   UNL     1      29.538  42.477  53.847  1.00  0.00     0.183 C 
HETATM    6  C   UNL     1      29.910  43.413  54.950  1.00  0.00    -0.021 A 
HETATM    7  C   UNL     1      29.109  44.558  54.921  1.00  0.00    -0.047 A 
HETATM    8  C   UNL     1      30.911  43.264  55.897  1.00  0.00     0.010 A 
HETATM    9  C   UNL     1      28.140  44.508  53.781  1.00  0.00     0.075 C 
HETATM   10  C   UNL     1      29.294  45.584  55.830  1.00  0.00     0.008 A 
HETATM   11  C   UNL     1      30.295  45.440  56.792  1.00  0.00     0.001 A 
HETATM   12  C   UNL     1      31.097  44.289  56.827  1.00  0.00     0.001 A 
BRANCH   5  13
HETATM   13  O   UNL     1      30.422  42.615  52.728  1.00  0.00    -0.389 OA
HETATM   14  H   UNL     1      31.031  41.849  52.750  1.00  0.00     0.210 HD
ENDBRANCH   5  13
ENDBRANCH   2   4
BRANCH   2  15
HETATM   15  C   UNL     1      26.979  41.515  51.705  1.00  0.00     0.271 C 
BRANCH  15  16
HETATM   16  C   UNL     1      27.676  40.409  50.872  1.00  0.00     0.177 C 
BRANCH  16  17
HETATM   17  O   UNL     1      29.092  40.483  51.037  1.00  0.00    -0.389 OA
HETATM   18  H   UNL     1      29.373  39.685  51.525  1.00  0.00     0.210 HD
ENDBRANCH  16  17
BRANCH  16  19
HETATM   19  C   UNL     1      27.332  40.533  49.403  1.00  0.00    -0.028 A 
HETATM   20  C   UNL     1      25.988  40.556  48.993  1.00  0.00     0.013 A 
HETATM   21  C   UNL     1      25.664  40.683  47.640  1.00  0.00     0.043 A 
HETATM   22  C   UNL     1      26.677  40.788  46.697  1.00  0.00     0.116 A 
HETATM   23  F   UNL     1      26.363  40.911  45.402  1.00  0.00    -0.206 F 
HETATM   24  C   UNL     1      28.012  40.768  47.078  1.00  0.00     0.043 A 
HETATM   25  C   UNL     1      28.343  40.642  48.429  1.00  0.00     0.013 A 
ENDBRANCH  16  19
ENDBRANCH  15  16
ENDBRANCH   2  15
TORSDOF 6
ENDMDL
MODEL 8
REMARK VINA RESULT:      -7.7      3.262      4.912
REMARK  6 active torsions:
REMARK  status: ('A' for Active; 'I' for Inactive)
REMARK    1  A    between atoms: N_2  and  C_4 
REMARK    2  A    between atoms: N_2  and  C_14 
REMARK    3  A    between atoms: C_5  and  O_6 
REMARK    4  A    between atoms: C_14  and  C_15 
REMARK    5  A    between atoms: C_15  and  O_16 
REMARK    6  A    between atoms: C_15  and  C_17 
ROOT
HETATM    1  C   UNL     1      25.338  43.400  51.430  1.00  0.00     0.270 C 
HETATM    2  N   UNL     1      26.732  43.140  51.934  1.00  0.00    -0.065 N 
HETATM    3  H   UNL     1      26.681  42.504  52.748  1.00  0.00     0.280 HD
ENDROOT
BRANCH   2   4
HETATM    4  C   UNL     1      27.637  42.381  50.948  1.00  0.00     0.225 C 
HETATM    5  C   UNL     1      28.153  41.057  51.607  1.00  0.00     0.183 C 
HETATM    6  C   UNL     1      28.295  40.151  50.429  1.00  0.00    -0.021 A 
HETATM    7  C   UNL     1      27.578  40.643  49.334  1.00  0.00    -0.047 A 
HETATM    8  C   UNL     1      28.995  38.957  50.347  1.00  0.00     0.010 A 
HETATM    9  C   UNL     1      26.868  41.914  49.684  1.00  0.00     0.075 C 
HETATM   10  C   UNL     1      27.535  39.951  48.138  1.00  0.00     0.008 A 
HETATM   11  C   UNL     1      28.243  38.751  48.044  1.00  0.00     0.001 A 
HETATM   12  C   UNL     1      28.968  38.258  49.139  1.00  0.00     0.001 A 
BRANCH   5  13
HETATM   13  O   UNL     1      27.156  40.576  52.517  1.00  0.00    -0.389 OA
HETATM   14  H   UNL     1      27.628  40.255  53.313  1.00  0.00     0.210 HD
ENDBRANCH   5  13
ENDBRANCH   2   4
BRANCH   2  15
HETATM   15  C   UNL     1      27.405  44.429  52.445  1.00  0.00     0.271 C 
BRANCH  15  16
HETATM   16  C   UNL     1      27.241  44.622  53.973  1.00  0.00     0.177 C 
BRANCH  16  17
HETATM   17  O   UNL     1      26.741  45.929  54.257  1.00  0.00    -0.389 OA
HETATM   18  H   UNL     1      27.450  46.422  54.714  1.00  0.00     0.210 HD
ENDBRANCH  16  17
BRANCH  16  19
HETATM   19  C   UNL     1      28.556  44.419  54.695  1.00  0.00    -0.028 A 
HETATM   20  C   UNL     1      29.008  45.376  55.619  1.00  0.00     0.013 A 
HETATM   21  C   UNL     1      30.215  45.188  56.298  1.00  0.00     0.043 A 
HETATM   22  C   UNL     1      30.969  44.047  56.058  1.00  0.00     0.116 A 
HETATM   23  F   UNL     1      32.124  43.870  56.710  1.00  0.00    -0.206 F 
HETATM   24  C   UNL     1      30.542  43.088  55.149  1.00  0.00     0.043 A 
HETATM   25  C   UNL     1      29.337  43.270  54.467  1.00  0.00     0.013 A 
ENDBRANCH  16  19
ENDBRANCH  15  16
ENDBRANCH   2  15
TORSDOF 6
ENDMDL
MODEL 9
REMARK VINA RESULT:      -7.5      3.612      7.929
REMARK  6 active torsions:
REMARK  status: ('A' for Active; 'I' for Inactive)
REMARK    1  A    between atoms: N_2  and  C_4 
REMARK    2  A    between atoms: N_2  and  C_14 
REMARK    3  A    between atoms: C_5  and  O_6 
REMARK    4  A    between atoms: C_14  and  C_15 
REMARK    5  A    between atoms: C_15  and  O_16 
REMARK    6  A    between atoms: C_15  and  C_17 
ROOT
HETATM    1  C   UNL     1      26.710  42.150  51.120  1.00  0.00     0.270 C 
HETATM    2  N   UNL     1      26.585  43.549  51.662  1.00  0.00    -0.065 N 
HETATM    3  H   UNL     1      25.894  43.550  52.432  1.00  0.00     0.280 HD
ENDROOT
BRANCH   2   4
HETATM    4  C   UNL     1      27.860  44.092  52.329  1.00  0.00     0.225 C 
HETATM    5  C   UNL     1      27.486  44.911  53.610  1.00  0.00     0.183 C 
HETATM    6  C   UNL     1      28.672  44.687  54.489  1.00  0.00    -0.021 A 
HETATM    7  C   UNL     1      29.415  43.588  54.049  1.00  0.00    -0.047 A 
HETATM    8  C   UNL     1      29.049  45.400  55.616  1.00  0.00     0.010 A 
HETATM    9  C   UNL     1      28.782  42.956  52.849  1.00  0.00     0.075 C 
HETATM   10  C   UNL     1      30.543  43.169  54.730  1.00  0.00     0.008 A 
HETATM   11  C   UNL     1      30.934  43.885  55.863  1.00  0.00     0.001 A 
HETATM   12  C   UNL     1      30.193  44.992  56.302  1.00  0.00     0.001 A 
BRANCH   5  13
HETATM   13  O   UNL     1      26.299  44.352  54.185  1.00  0.00    -0.389 OA
HETATM   14  H   UNL     1      25.826  43.886  53.466  1.00  0.00     0.210 HD
ENDBRANCH   5  13
ENDBRANCH   2   4
BRANCH   2  15
HETATM   15  C   UNL     1      26.040  44.525  50.602  1.00  0.00     0.271 C 
BRANCH  15  16
HETATM   16  C   UNL     1      24.935  45.458  51.161  1.00  0.00     0.177 C 
BRANCH  16  17
HETATM   17  O   UNL     1      24.115  44.752  52.093  1.00  0.00    -0.389 OA
HETATM   18  H   UNL     1      23.239  44.628  51.678  1.00  0.00     0.210 HD
ENDBRANCH  16  17
BRANCH  16  19
HETATM   19  C   UNL     1      24.071  46.012  50.049  1.00  0.00    -0.028 A 
HETATM   20  C   UNL     1      23.312  45.142  49.246  1.00  0.00     0.013 A 
HETATM   21  C   UNL     1      22.503  45.648  48.226  1.00  0.00     0.043 A 
HETATM   22  C   UNL     1      22.448  47.018  48.007  1.00  0.00     0.116 A 
HETATM   23  F   UNL     1      21.671  47.499  47.029  1.00  0.00    -0.206 F 
HETATM   24  C   UNL     1      23.189  47.896  48.787  1.00  0.00     0.043 A 
HETATM   25  C   UNL     1      24.000  47.397  49.808  1.00  0.00     0.013 A 
ENDBRANCH  16  19
ENDBRANCH  15  16
ENDBRANCH   2  15
TORSDOF 6
ENDMDL
MODEL 10
REMARK VINA RESULT:      -7.4      1.951      3.102
REMARK  6 active torsions:
REMARK  status: ('A' for Active; 'I' for Inactive)
REMARK    1  A    between atoms: N_2  and  C_4 
REMARK    2  A    between atoms: N_2  and  C_14 
REMARK    3  A    between atoms: C_5  and  O_6 
REMARK    4  A    between atoms: C_14  and  C_15 
REMARK    5  A    between atoms: C_15  and  O_16 
REMARK    6  A    between atoms: C_15  and  C_17 
ROOT
HETATM    1  C   UNL     1      27.081  44.211  50.716  1.00  0.00     0.270 C 
HETATM    2  N   UNL     1      26.569  45.409  51.469  1.00  0.00    -0.065 N 
HETATM    3  H   UNL     1      27.126  46.238  51.199  1.00  0.00     0.280 HD
ENDROOT
BRANCH   2   4
HETATM    4  C   UNL     1      25.129  45.819  51.115  1.00  0.00     0.225 C 
HETATM    5  C   UNL     1      25.081  47.342  50.750  1.00  0.00     0.183 C 
HETATM    6  C   UNL     1      23.968  47.396  49.757  1.00  0.00    -0.021 A 
HETATM    7  C   UNL     1      23.690  46.122  49.253  1.00  0.00    -0.047 A 
HETATM    8  C   UNL     1      23.268  48.508  49.316  1.00  0.00     0.010 A 
HETATM    9  C   UNL     1      24.608  45.098  49.843  1.00  0.00     0.075 C 
HETATM   10  C   UNL     1      22.715  45.932  48.290  1.00  0.00     0.008 A 
HETATM   11  C   UNL     1      22.001  47.045  47.844  1.00  0.00     0.001 A 
HETATM   12  C   UNL     1      22.274  48.323  48.354  1.00  0.00     0.001 A 
BRANCH   5  13
HETATM   13  O   UNL     1      26.330  47.713  50.153  1.00  0.00    -0.389 OA
HETATM   14  H   UNL     1      26.965  46.995  50.352  1.00  0.00     0.210 HD
ENDBRANCH   5  13
ENDBRANCH   2   4
BRANCH   2  15
HETATM   15  C   UNL     1      26.755  45.251  52.990  1.00  0.00     0.271 C 
BRANCH  15  16
HETATM   16  C   UNL     1      27.291  43.850  53.383  1.00  0.00     0.177 C 
BRANCH  16  17
HETATM   17  O   UNL     1      26.268  43.092  54.031  1.00  0.00    -0.389 OA
HETATM   18  H   UNL     1      25.509  43.040  53.418  1.00  0.00     0.210 HD
ENDBRANCH  16  17
BRANCH  16  19
HETATM   19  C   UNL     1      28.492  43.960  54.297  1.00  0.00    -0.028 A 
HETATM   20  C   UNL     1      29.435  42.919  54.350  1.00  0.00     0.013 A 
HETATM   21  C   UNL     1      30.552  43.020  55.182  1.00  0.00     0.043 A 
HETATM   22  C   UNL     1      30.732  44.157  55.958  1.00  0.00     0.116 A 
HETATM   23  F   UNL     1      31.805  44.250  56.752  1.00  0.00    -0.206 F 
HETATM   24  C   UNL     1      29.815  45.199  55.922  1.00  0.00     0.043 A 
HETATM   25  C   UNL     1      28.695  45.104  55.092  1.00  0.00     0.013 A 
ENDBRANCH  16  19
ENDBRANCH  15  16
ENDBRANCH   2  15
TORSDOF 6
ENDMDL
