MODEL 1
REMARK VINA RESULT:      -9.8      0.000      0.000
REMARK  7 active torsions:
REMARK  status: ('A' for Active; 'I' for Inactive)
REMARK    1  A    between atoms: C_2  and  N_3 
REMARK    2  A    between atoms: N_7  and  C_8 
REMARK    3  A    between atoms: C_11  and  N_12 
REMARK    4  A    between atoms: N_12  and  C_13 
REMARK    5  A    between atoms: C_13  and  N_14 
REMARK       I    between atoms: N_14  and  C_15 
REMARK    6  A    between atoms: C_15  and  C_16 
REMARK    7  A    between atoms: C_18  and  C_19 
ROOT
HETATM    1  C   UNL     1      26.485  47.341  49.700  1.00  0.00     0.179 C 
HETATM    2  S   UNL     1      27.522  48.548  49.153  1.00  0.00    -0.040 SA
ENDROOT
BRANCH   1   3
HETATM    3  N   UNL     1      25.276  47.519  50.320  1.00  0.00    -0.333 N 
HETATM    4  H   UNL     1      25.339  47.996  51.216  1.00  0.00     0.168 HD
BRANCH   3   5
HETATM    5  C   UNL     1      24.027  47.584  49.660  1.00  0.00     0.034 A 
HETATM    6  C   UNL     1      23.382  48.796  49.442  1.00  0.00     0.032 A 
HETATM    7  C   UNL     1      22.121  48.835  48.831  1.00  0.00     0.031 A 
HETATM    8  C   UNL     1      21.438  47.671  48.441  1.00  0.00     0.030 A 
HETATM    9  C   UNL     1      22.167  46.475  48.574  1.00  0.00     0.031 A 
HETATM   10  C   UNL     1      23.439  46.426  49.174  1.00  0.00     0.032 A 
BRANCH   8  11
HETATM   11  N   UNL     1      20.131  47.714  47.919  1.00  0.00    -0.378 N 
HETATM   12  C   UNL     1      19.750  48.886  47.092  1.00  0.00     0.150 C 
HETATM   13  C   UNL     1      19.428  50.096  47.999  1.00  0.00     0.254 C 
HETATM   14  N   UNL     1      18.308  49.742  48.995  1.00  0.00    -0.068 N 
HETATM   15  H   UNL     1      17.462  49.550  48.443  1.00  0.00     0.280 HD
HETATM   16  C   UNL     1      18.634  48.443  49.762  1.00  0.00     0.254 C 
HETATM   17  C   UNL     1      19.004  47.302  48.785  1.00  0.00     0.150 C 
BRANCH  14  18
HETATM   18  C   UNL     1      17.997  50.863  49.961  1.00  0.00     0.230 C 
HETATM   19  C   UNL     1      18.369  52.211  49.372  1.00  0.00     0.034 C 
ENDBRANCH  14  18
ENDBRANCH   8  11
ENDBRANCH   3   5
ENDBRANCH   1   3
BRANCH   1  20
HETATM   20  N   UNL     1      26.927  46.048  49.501  1.00  0.00    -0.298 N 
HETATM   21  C   UNL     1      26.919  44.813  50.151  1.00  0.00     0.281 C 
HETATM   22  O   UNL     1      26.892  43.827  49.409  1.00  0.00    -0.265 OA
HETATM   23  H   UNL     1      27.049  45.873  48.509  1.00  0.00     0.171 HD
BRANCH  21  24
HETATM   24  C   UNL     1      26.947  44.669  51.590  1.00  0.00     0.144 A 
HETATM   25  O   UNL     1      28.107  44.668  52.325  1.00  0.00    -0.304 OA
HETATM   26  C   UNL     1      27.758  44.379  53.619  1.00  0.00     0.086 A 
HETATM   27  C   UNL     1      26.395  44.208  53.723  1.00  0.00     0.041 A 
HETATM   28  C   UNL     1      25.876  44.406  52.429  1.00  0.00     0.046 A 
BRANCH  26  29
HETATM   29  C   UNL     1      28.836  44.265  54.584  1.00  0.00    -0.001 A 
HETATM   30  C   UNL     1      28.939  45.164  55.651  1.00  0.00     0.040 A 
HETATM   31  C   UNL     1      29.970  45.039  56.589  1.00  0.00     0.056 A 
HETATM   32 CL   UNL     1      30.041  46.206  57.863  1.00  0.00    -0.083 Cl
HETATM   33  C   UNL     1      30.898  43.999  56.475  1.00  0.00     0.055 A 
HETATM   34 CL   UNL     1      32.195  43.787  57.596  1.00  0.00    -0.083 Cl
HETATM   35  C   UNL     1      30.789  43.086  55.423  1.00  0.00     0.026 A 
HETATM   36  C   UNL     1      29.763  43.220  54.485  1.00  0.00     0.016 A 
ENDBRANCH  26  29
ENDBRANCH  21  24
ENDBRANCH   1  20
TORSDOF 7
ENDMDL
MODEL 2
REMARK VINA RESULT:      -9.8      2.031      2.744
REMARK  7 active torsions:
REMARK  status: ('A' for Active; 'I' for Inactive)
REMARK    1  A    between atoms: C_2  and  N_3 
REMARK    2  A    between atoms: N_7  and  C_8 
REMARK    3  A    between atoms: C_11  and  N_12 
REMARK    4  A    between atoms: N_12  and  C_13 
REMARK    5  A    between atoms: C_13  and  N_14 
REMARK       I    between atoms: N_14  and  C_15 
REMARK    6  A    between atoms: C_15  and  C_16 
REMARK    7  A    between atoms: C_18  and  C_19 
ROOT
HETATM    1  C   UNL     1      25.213  43.988  50.039  1.00  0.00     0.179 C 
HETATM    2  S   UNL     1      23.981  42.950  50.527  1.00  0.00    -0.040 SA
ENDROOT
BRANCH   1   3
HETATM    3  N   UNL     1      25.251  45.348  50.203  1.00  0.00    -0.333 N 
HETATM    4  H   UNL     1      26.179  45.713  50.403  1.00  0.00     0.168 HD
BRANCH   3   5
HETATM    5  C   UNL     1      24.324  46.259  49.646  1.00  0.00     0.034 A 
HETATM    6  C   UNL     1      23.317  45.837  48.786  1.00  0.00     0.032 A 
HETATM    7  C   UNL     1      22.440  46.763  48.203  1.00  0.00     0.031 A 
HETATM    8  C   UNL     1      22.549  48.146  48.427  1.00  0.00     0.030 A 
HETATM    9  C   UNL     1      23.506  48.525  49.387  1.00  0.00     0.031 A 
HETATM   10  C   UNL     1      24.382  47.602  49.987  1.00  0.00     0.032 A 
BRANCH   8  11
HETATM   11  N   UNL     1      21.727  49.074  47.761  1.00  0.00    -0.378 N 
HETATM   12  C   UNL     1      21.686  50.464  48.278  1.00  0.00     0.150 C 
HETATM   13  C   UNL     1      20.769  50.544  49.521  1.00  0.00     0.254 C 
HETATM   14  N   UNL     1      19.352  50.045  49.181  1.00  0.00    -0.068 N 
HETATM   15  H   UNL     1      18.964  50.692  48.483  1.00  0.00     0.280 HD
HETATM   16  C   UNL     1      19.397  48.655  48.513  1.00  0.00     0.254 C 
HETATM   17  C   UNL     1      20.380  48.645  47.319  1.00  0.00     0.150 C 
BRANCH  14  18
HETATM   18  C   UNL     1      18.426  50.029  50.376  1.00  0.00     0.230 C 
HETATM   19  C   UNL     1      18.614  48.766  51.195  1.00  0.00     0.034 C 
ENDBRANCH  14  18
ENDBRANCH   8  11
ENDBRANCH   3   5
ENDBRANCH   1   3
BRANCH   1  20
HETATM   20  N   UNL     1      26.278  43.382  49.401  1.00  0.00    -0.298 N 
HETATM   21  C   UNL     1      27.239  42.400  49.644  1.00  0.00     0.281 C 
HETATM   22  O   UNL     1      27.610  41.769  48.649  1.00  0.00    -0.265 OA
HETATM   23  H   UNL     1      26.173  43.470  48.395  1.00  0.00     0.171 HD
BRANCH  21  24
HETATM   24  C   UNL     1      27.785  42.126  50.954  1.00  0.00     0.144 A 
HETATM   25  O   UNL     1      28.041  43.102  51.884  1.00  0.00    -0.304 OA
HETATM   26  C   UNL     1      28.671  42.493  52.939  1.00  0.00     0.086 A 
HETATM   27  C   UNL     1      28.808  41.143  52.701  1.00  0.00     0.041 A 
HETATM   28  C   UNL     1      28.231  40.906  51.439  1.00  0.00     0.046 A 
BRANCH  26  29
HETATM   29  C   UNL     1      29.097  43.343  54.035  1.00  0.00    -0.001 A 
HETATM   30  C   UNL     1      30.178  42.980  54.844  1.00  0.00     0.040 A 
HETATM   31  C   UNL     1      30.597  43.813  55.888  1.00  0.00     0.056 A 
HETATM   32 CL   UNL     1      31.925  43.278  56.857  1.00  0.00    -0.083 Cl
HETATM   33  C   UNL     1      29.943  45.028  56.120  1.00  0.00     0.055 A 
HETATM   34 CL   UNL     1      30.406  46.102  57.391  1.00  0.00    -0.083 Cl
HETATM   35  C   UNL     1      28.875  45.406  55.303  1.00  0.00     0.026 A 
HETATM   36  C   UNL     1      28.456  44.568  54.266  1.00  0.00     0.016 A 
ENDBRANCH  26  29
ENDBRANCH  21  24
ENDBRANCH   1  20
TORSDOF 7
ENDMDL
MODEL 3
REMARK VINA RESULT:      -9.5      2.656      4.231
REMARK  7 active torsions:
REMARK  status: ('A' for Active; 'I' for Inactive)
REMARK    1  A    between atoms: C_2  and  N_3 
REMARK    2  A    between atoms: N_7  and  C_8 
REMARK    3  A    between atoms: C_11  and  N_12 
REMARK    4  A    between atoms: N_12  and  C_13 
REMARK    5  A    between atoms: C_13  and  N_14 
REMARK       I    between atoms: N_14  and  C_15 
REMARK    6  A    between atoms: C_15  and  C_16 
REMARK    7  A    between atoms: C_18  and  C_19 
ROOT
HETATM    1  C   UNL     1      22.867  48.899  49.192  1.00  0.00     0.179 C 
HETATM    2  S   UNL     1      22.193  47.687  48.238  1.00  0.00    -0.040 SA
ENDROOT
BRANCH   1   3
HETATM    3  N   UNL     1      22.189  49.800  49.972  1.00  0.00    -0.333 N 
HETATM    4  H   UNL     1      22.780  50.295  50.636  1.00  0.00     0.168 HD
BRANCH   3   5
HETATM    5  C   UNL     1      20.978  50.434  49.612  1.00  0.00     0.034 A 
HETATM    6  C   UNL     1      19.808  50.229  50.333  1.00  0.00     0.032 A 
HETATM    7  C   UNL     1      18.605  50.827  49.930  1.00  0.00     0.031 A 
HETATM    8  C   UNL     1      18.512  51.626  48.779  1.00  0.00     0.030 A 
HETATM    9  C   UNL     1      19.735  51.903  48.140  1.00  0.00     0.031 A 
HETATM   10  C   UNL     1      20.949  51.318  48.544  1.00  0.00     0.032 A 
BRANCH   8  11
HETATM   11  N   UNL     1      17.282  52.142  48.328  1.00  0.00    -0.378 N 
HETATM   12  C   UNL     1      16.046  51.700  49.020  1.00  0.00     0.150 C 
HETATM   13  C   UNL     1      15.636  50.291  48.531  1.00  0.00     0.254 C 
HETATM   14  N   UNL     1      15.439  50.285  47.004  1.00  0.00    -0.068 N 
HETATM   15  H   UNL     1      14.652  50.913  46.798  1.00  0.00     0.280 HD
HETATM   16  C   UNL     1      16.669  50.875  46.281  1.00  0.00     0.254 C 
HETATM   17  C   UNL     1      17.048  52.254  46.870  1.00  0.00     0.150 C 
BRANCH  14  18
HETATM   18  C   UNL     1      15.108  48.916  46.453  1.00  0.00     0.230 C 
HETATM   19  C   UNL     1      16.004  47.853  47.059  1.00  0.00     0.034 C 
ENDBRANCH  14  18
ENDBRANCH   8  11
ENDBRANCH   3   5
ENDBRANCH   1   3
BRANCH   1  20
HETATM   20  N   UNL     1      24.246  48.978  49.159  1.00  0.00    -0.298 N 
HETATM   21  C   UNL     1      25.360  48.218  49.517  1.00  0.00     0.281 C 
HETATM   22  O   UNL     1      26.358  48.378  48.807  1.00  0.00    -0.265 OA
HETATM   23  H   UNL     1      24.537  49.633  48.440  1.00  0.00     0.171 HD
BRANCH  21  24
HETATM   24  C   UNL     1      25.375  47.305  50.638  1.00  0.00     0.144 A 
HETATM   25  O   UNL     1      26.218  47.445  51.713  1.00  0.00    -0.304 OA
HETATM   26  C   UNL     1      26.045  46.337  52.502  1.00  0.00     0.086 A 
HETATM   27  C   UNL     1      25.099  45.500  51.954  1.00  0.00     0.041 A 
HETATM   28  C   UNL     1      24.661  46.124  50.770  1.00  0.00     0.046 A 
BRANCH  26  29
HETATM   29  C   UNL     1      26.882  46.230  53.684  1.00  0.00    -0.001 A 
HETATM   30  C   UNL     1      27.785  45.173  53.828  1.00  0.00     0.040 A 
HETATM   31  C   UNL     1      28.603  45.085  54.961  1.00  0.00     0.056 A 
HETATM   32 CL   UNL     1      29.675  43.733  55.072  1.00  0.00    -0.083 Cl
HETATM   33  C   UNL     1      28.532  46.068  55.953  1.00  0.00     0.055 A 
HETATM   34 CL   UNL     1      29.510  46.020  57.376  1.00  0.00    -0.083 Cl
HETATM   35  C   UNL     1      27.645  47.137  55.806  1.00  0.00     0.026 A 
HETATM   36  C   UNL     1      26.827  47.217  54.677  1.00  0.00     0.016 A 
ENDBRANCH  26  29
ENDBRANCH  21  24
ENDBRANCH   1  20
TORSDOF 7
ENDMDL
MODEL 4
REMARK VINA RESULT:      -9.5      4.498      8.538
REMARK  7 active torsions:
REMARK  status: ('A' for Active; 'I' for Inactive)
REMARK    1  A    between atoms: C_2  and  N_3 
REMARK    2  A    between atoms: N_7  and  C_8 
REMARK    3  A    between atoms: C_11  and  N_12 
REMARK    4  A    between atoms: N_12  and  C_13 
REMARK    5  A    between atoms: C_13  and  N_14 
REMARK       I    between atoms: N_14  and  C_15 
REMARK    6  A    between atoms: C_15  and  C_16 
REMARK    7  A    between atoms: C_18  and  C_19 
ROOT
HETATM    1  C   UNL     1      24.003  44.091  49.480  1.00  0.00     0.179 C 
HETATM    2  S   UNL     1      22.605  44.761  48.825  1.00  0.00    -0.040 SA
ENDROOT
BRANCH   1   3
HETATM    3  N   UNL     1      24.104  42.897  50.147  1.00  0.00    -0.333 N 
HETATM    4  H   UNL     1      23.335  42.717  50.787  1.00  0.00     0.168 HD
BRANCH   3   5
HETATM    5  C   UNL     1      24.814  41.766  49.682  1.00  0.00     0.034 A 
HETATM    6  C   UNL     1      25.808  41.167  50.447  1.00  0.00     0.032 A 
HETATM    7  C   UNL     1      26.536  40.077  49.946  1.00  0.00     0.031 A 
HETATM    8  C   UNL     1      26.326  39.562  48.657  1.00  0.00     0.030 A 
HETATM    9  C   UNL     1      25.240  40.119  47.957  1.00  0.00     0.031 A 
HETATM   10  C   UNL     1      24.495  41.204  48.455  1.00  0.00     0.032 A 
BRANCH   8  11
HETATM   11  N   UNL     1      27.128  38.532  48.127  1.00  0.00    -0.378 N 
HETATM   12  C   UNL     1      26.915  37.154  48.633  1.00  0.00     0.150 C 
HETATM   13  C   UNL     1      27.598  36.979  50.009  1.00  0.00     0.254 C 
HETATM   14  N   UNL     1      29.102  37.299  49.910  1.00  0.00    -0.068 N 
HETATM   15  H   UNL     1      29.519  36.602  49.280  1.00  0.00     0.280 HD
HETATM   16  C   UNL     1      29.336  38.677  49.255  1.00  0.00     0.254 C 
HETATM   17  C   UNL     1      28.570  38.791  47.916  1.00  0.00     0.150 C 
BRANCH  14  18
HETATM   18  C   UNL     1      29.815  37.218  51.241  1.00  0.00     0.230 C 
HETATM   19  C   UNL     1      29.872  35.788  51.743  1.00  0.00     0.034 C 
ENDBRANCH  14  18
ENDBRANCH   8  11
ENDBRANCH   3   5
ENDBRANCH   1   3
BRANCH   1  20
HETATM   20  N   UNL     1      25.149  44.846  49.326  1.00  0.00    -0.298 N 
HETATM   21  C   UNL     1      26.352  45.095  49.987  1.00  0.00     0.281 C 
HETATM   22  O   UNL     1      27.311  45.358  49.255  1.00  0.00    -0.265 OA
HETATM   23  H   UNL     1      25.283  45.073  48.345  1.00  0.00     0.171 HD
BRANCH  21  24
HETATM   24  C   UNL     1      26.492  45.060  51.426  1.00  0.00     0.144 A 
HETATM   25  O   UNL     1      27.691  44.849  52.062  1.00  0.00    -0.304 OA
HETATM   26  C   UNL     1      27.419  44.750  53.402  1.00  0.00     0.086 A 
HETATM   27  C   UNL     1      26.070  44.905  53.631  1.00  0.00     0.041 A 
HETATM   28  C   UNL     1      25.480  45.116  52.371  1.00  0.00     0.046 A 
BRANCH  26  29
HETATM   29  C   UNL     1      28.537  44.466  54.283  1.00  0.00    -0.001 A 
HETATM   30  C   UNL     1      28.804  45.284  55.386  1.00  0.00     0.040 A 
HETATM   31  C   UNL     1      29.872  44.995  56.244  1.00  0.00     0.056 A 
HETATM   32 CL   UNL     1      30.148  46.070  57.570  1.00  0.00    -0.083 Cl
HETATM   33  C   UNL     1      30.673  43.872  56.011  1.00  0.00     0.055 A 
HETATM   34 CL   UNL     1      32.007  43.460  57.027  1.00  0.00    -0.083 Cl
HETATM   35  C   UNL     1      30.401  43.041  54.922  1.00  0.00     0.026 A 
HETATM   36  C   UNL     1      29.338  43.337  54.065  1.00  0.00     0.016 A 
ENDBRANCH  26  29
ENDBRANCH  21  24
ENDBRANCH   1  20
TORSDOF 7
ENDMDL
MODEL 5
REMARK VINA RESULT:      -9.4      1.469      1.980
REMARK  7 active torsions:
REMARK  status: ('A' for Active; 'I' for Inactive)
REMARK    1  A    between atoms: C_2  and  N_3 
REMARK    2  A    between atoms: N_7  and  C_8 
REMARK    3  A    between atoms: C_11  and  N_12 
REMARK    4  A    between atoms: N_12  and  C_13 
REMARK    5  A    between atoms: C_13  and  N_14 
REMARK       I    between atoms: N_14  and  C_15 
REMARK    6  A    between atoms: C_15  and  C_16 
REMARK    7  A    between atoms: C_18  and  C_19 
ROOT
HETATM    1  C   UNL     1      25.541  45.264  50.749  1.00  0.00     0.179 C 
HETATM    2  S   UNL     1      25.065  44.584  52.214  1.00  0.00    -0.040 SA
ENDROOT
BRANCH   1   3
HETATM    3  N   UNL     1      25.172  46.489  50.257  1.00  0.00    -0.333 N 
HETATM    4  H   UNL     1      25.957  47.100  50.044  1.00  0.00     0.168 HD
BRANCH   3   5
HETATM    5  C   UNL     1      23.962  46.759  49.577  1.00  0.00     0.034 A 
HETATM    6  C   UNL     1      23.466  48.052  49.462  1.00  0.00     0.032 A 
HETATM    7  C   UNL     1      22.238  48.293  48.828  1.00  0.00     0.031 A 
HETATM    8  C   UNL     1      21.443  47.257  48.311  1.00  0.00     0.030 A 
HETATM    9  C   UNL     1      22.028  45.977  48.345  1.00  0.00     0.031 A 
HETATM   10  C   UNL     1      23.265  45.727  48.967  1.00  0.00     0.032 A 
BRANCH   8  11
HETATM   11  N   UNL     1      20.168  47.499  47.765  1.00  0.00    -0.378 N 
HETATM   12  C   UNL     1      19.935  48.799  47.089  1.00  0.00     0.150 C 
HETATM   13  C   UNL     1      19.697  49.910  48.138  1.00  0.00     0.254 C 
HETATM   14  N   UNL     1      18.510  49.548  49.050  1.00  0.00    -0.068 N 
HETATM   15  H   UNL     1      17.672  49.515  48.455  1.00  0.00     0.280 HD
HETATM   16  C   UNL     1      18.678  48.135  49.648  1.00  0.00     0.254 C 
HETATM   17  C   UNL     1      18.972  47.096  48.540  1.00  0.00     0.150 C 
BRANCH  14  18
HETATM   18  C   UNL     1      18.272  50.562  50.145  1.00  0.00     0.230 C 
HETATM   19  C   UNL     1      18.844  51.916  49.769  1.00  0.00     0.034 C 
ENDBRANCH  14  18
ENDBRANCH   8  11
ENDBRANCH   3   5
ENDBRANCH   1   3
BRANCH   1  20
HETATM   20  N   UNL     1      26.381  44.482  49.981  1.00  0.00    -0.298 N 
HETATM   21  C   UNL     1      27.156  43.328  50.097  1.00  0.00     0.281 C 
HETATM   22  O   UNL     1      27.271  42.664  49.062  1.00  0.00    -0.265 OA
HETATM   23  H   UNL     1      26.172  44.615  48.996  1.00  0.00     0.171 HD
BRANCH  21  24
HETATM   24  C   UNL     1      27.797  42.918  51.327  1.00  0.00     0.144 A 
HETATM   25  O   UNL     1      28.086  43.786  52.352  1.00  0.00    -0.304 OA
HETATM   26  C   UNL     1      28.802  43.078  53.283  1.00  0.00     0.086 A 
HETATM   27  C   UNL     1      28.962  41.772  52.874  1.00  0.00     0.041 A 
HETATM   28  C   UNL     1      28.309  41.667  51.631  1.00  0.00     0.046 A 
BRANCH  26  29
HETATM   29  C   UNL     1      29.276  43.806  54.445  1.00  0.00    -0.001 A 
HETATM   30  C   UNL     1      30.362  43.335  55.191  1.00  0.00     0.040 A 
HETATM   31  C   UNL     1      30.827  44.052  56.300  1.00  0.00     0.056 A 
HETATM   32 CL   UNL     1      32.158  43.388  57.182  1.00  0.00    -0.083 Cl
HETATM   33  C   UNL     1      30.216  45.257  56.661  1.00  0.00     0.055 A 
HETATM   34 CL   UNL     1      30.738  46.189  58.018  1.00  0.00    -0.083 Cl
HETATM   35  C   UNL     1      29.144  45.742  55.909  1.00  0.00     0.026 A 
HETATM   36  C   UNL     1      28.679  45.021  54.807  1.00  0.00     0.016 A 
ENDBRANCH  26  29
ENDBRANCH  21  24
ENDBRANCH   1  20
TORSDOF 7
ENDMDL
MODEL 6
REMARK VINA RESULT:      -9.3      6.533     12.048
REMARK  7 active torsions:
REMARK  status: ('A' for Active; 'I' for Inactive)
REMARK    1  A    between atoms: C_2  and  N_3 
REMARK    2  A    between atoms: N_7  and  C_8 
REMARK    3  A    between atoms: C_11  and  N_12 
REMARK    4  A    between atoms: N_12  and  C_13 
REMARK    5  A    between atoms: C_13  and  N_14 
REMARK       I    between atoms: N_14  and  C_15 
REMARK    6  A    between atoms: C_15  and  C_16 
REMARK    7  A    between atoms: C_18  and  C_19 
ROOT
HETATM    1  C   UNL     1      18.755  47.237  48.821  1.00  0.00     0.179 C 
HETATM    2  S   UNL     1      17.159  46.895  48.410  1.00  0.00    -0.040 SA
ENDROOT
BRANCH   1   3
HETATM    3  N   UNL     1      19.854  47.109  48.012  1.00  0.00    -0.333 N 
HETATM    4  H   UNL     1      19.804  47.662  47.159  1.00  0.00     0.168 HD
BRANCH   3   5
HETATM    5  C   UNL     1      21.148  46.748  48.452  1.00  0.00     0.034 A 
HETATM    6  C   UNL     1      22.102  47.707  48.769  1.00  0.00     0.032 A 
HETATM    7  C   UNL     1      23.396  47.328  49.155  1.00  0.00     0.031 A 
HETATM    8  C   UNL     1      23.801  45.984  49.211  1.00  0.00     0.030 A 
HETATM    9  C   UNL     1      22.780  45.040  48.993  1.00  0.00     0.031 A 
HETATM   10  C   UNL     1      21.475  45.410  48.618  1.00  0.00     0.032 A 
BRANCH   8  11
HETATM   11  N   UNL     1      25.129  45.618  49.504  1.00  0.00    -0.378 N 
HETATM   12  C   UNL     1      25.354  44.360  50.256  1.00  0.00     0.150 C 
HETATM   13  C   UNL     1      25.083  44.583  51.763  1.00  0.00     0.254 C 
HETATM   14  N   UNL     1      25.973  45.714  52.310  1.00  0.00    -0.068 N 
HETATM   15  H   UNL     1      26.948  45.399  52.226  1.00  0.00     0.280 HD
HETATM   16  C   UNL     1      25.849  46.988  51.446  1.00  0.00     0.254 C 
HETATM   17  C   UNL     1      26.074  46.666  49.950  1.00  0.00     0.150 C 
BRANCH  14  18
HETATM   18  C   UNL     1      25.702  46.032  53.763  1.00  0.00     0.230 C 
HETATM   19  C   UNL     1      26.145  47.442  54.105  1.00  0.00     0.034 C 
ENDBRANCH  14  18
ENDBRANCH   8  11
ENDBRANCH   3   5
ENDBRANCH   1   3
BRANCH   1  20
HETATM   20  N   UNL     1      18.950  47.681  50.114  1.00  0.00    -0.298 N 
HETATM   21  C   UNL     1      18.642  48.782  50.914  1.00  0.00     0.281 C 
HETATM   22  O   UNL     1      18.487  48.534  52.114  1.00  0.00    -0.265 OA
HETATM   23  H   UNL     1      19.122  46.892  50.728  1.00  0.00     0.171 HD
BRANCH  21  24
HETATM   24  C   UNL     1      18.513  50.128  50.404  1.00  0.00     0.144 A 
HETATM   25  O   UNL     1      17.308  50.775  50.278  1.00  0.00    -0.304 OA
HETATM   26  C   UNL     1      17.559  51.965  49.644  1.00  0.00     0.086 A 
HETATM   27  C   UNL     1      18.903  52.091  49.374  1.00  0.00     0.041 A 
HETATM   28  C   UNL     1      19.515  50.924  49.871  1.00  0.00     0.046 A 
BRANCH  26  29
HETATM   29  C   UNL     1      16.416  52.808  49.345  1.00  0.00    -0.001 A 
HETATM   30  C   UNL     1      15.997  53.790  50.248  1.00  0.00     0.040 A 
HETATM   31  C   UNL     1      14.905  54.613  49.947  1.00  0.00     0.056 A 
HETATM   32 CL   UNL     1      14.436  55.786  51.128  1.00  0.00    -0.083 Cl
HETATM   33  C   UNL     1      14.233  54.469  48.729  1.00  0.00     0.055 A 
HETATM   34 CL   UNL     1      12.879  55.448  48.295  1.00  0.00    -0.083 Cl
HETATM   35  C   UNL     1      14.659  53.502  47.815  1.00  0.00     0.026 A 
HETATM   36  C   UNL     1      15.745  52.678  48.122  1.00  0.00     0.016 A 
ENDBRANCH  26  29
ENDBRANCH  21  24
ENDBRANCH   1  20
TORSDOF 7
ENDMDL
MODEL 7
REMARK VINA RESULT:      -9.1      1.905      2.961
REMARK  7 active torsions:
REMARK  status: ('A' for Active; 'I' for Inactive)
REMARK    1  A    between atoms: C_2  and  N_3 
REMARK    2  A    between atoms: N_7  and  C_8 
REMARK    3  A    between atoms: C_11  and  N_12 
REMARK    4  A    between atoms: N_12  and  C_13 
REMARK    5  A    between atoms: C_13  and  N_14 
REMARK       I    between atoms: N_14  and  C_15 
REMARK    6  A    between atoms: C_15  and  C_16 
REMARK    7  A    between atoms: C_18  and  C_19 
ROOT
HETATM    1  C   UNL     1      23.921  46.450  49.703  1.00  0.00     0.179 C 
HETATM    2  S   UNL     1      25.038  47.209  50.707  1.00  0.00    -0.040 SA
ENDROOT
BRANCH   1   3
HETATM    3  N   UNL     1      23.217  47.026  48.677  1.00  0.00    -0.333 N 
HETATM    4  H   UNL     1      23.266  46.508  47.803  1.00  0.00     0.168 HD
BRANCH   3   5
HETATM    5  C   UNL     1      22.107  47.886  48.838  1.00  0.00     0.034 A 
HETATM    6  C   UNL     1      22.264  49.216  49.209  1.00  0.00     0.032 A 
HETATM    7  C   UNL     1      21.147  50.039  49.413  1.00  0.00     0.031 A 
HETATM    8  C   UNL     1      19.831  49.564  49.287  1.00  0.00     0.030 A 
HETATM    9  C   UNL     1      19.711  48.248  48.803  1.00  0.00     0.031 A 
HETATM   10  C   UNL     1      20.826  47.419  48.582  1.00  0.00     0.032 A 
BRANCH   8  11
HETATM   11  N   UNL     1      18.717  50.370  49.589  1.00  0.00    -0.378 N 
HETATM   12  C   UNL     1      17.404  49.987  49.015  1.00  0.00     0.150 C 
HETATM   13  C   UNL     1      17.320  50.427  47.534  1.00  0.00     0.254 C 
HETATM   14  N   UNL     1      17.551  51.944  47.407  1.00  0.00    -0.068 N 
HETATM   15  H   UNL     1      16.779  52.410  47.900  1.00  0.00     0.280 HD
HETATM   16  C   UNL     1      18.849  52.373  48.125  1.00  0.00     0.254 C 
HETATM   17  C   UNL     1      18.879  51.842  49.578  1.00  0.00     0.150 C 
BRANCH  14  18
HETATM   18  C   UNL     1      17.556  52.426  45.974  1.00  0.00     0.230 C 
HETATM   19  C   UNL     1      17.844  51.286  45.016  1.00  0.00     0.034 C 
ENDBRANCH  14  18
ENDBRANCH   8  11
ENDBRANCH   3   5
ENDBRANCH   1   3
BRANCH   1  20
HETATM   20  N   UNL     1      23.703  45.112  49.968  1.00  0.00    -0.298 N 
HETATM   21  C   UNL     1      24.200  44.099  50.789  1.00  0.00     0.281 C 
HETATM   22  O   UNL     1      23.374  43.247  51.132  1.00  0.00    -0.265 OA
HETATM   23  H   UNL     1      22.757  44.857  49.701  1.00  0.00     0.171 HD
BRANCH  21  24
HETATM   24  C   UNL     1      25.578  44.024  51.217  1.00  0.00     0.144 A 
HETATM   25  O   UNL     1      25.994  44.357  52.483  1.00  0.00    -0.304 OA
HETATM   26  C   UNL     1      27.364  44.292  52.482  1.00  0.00     0.086 A 
HETATM   27  C   UNL     1      27.826  43.912  51.242  1.00  0.00     0.041 A 
HETATM   28  C   UNL     1      26.685  43.728  50.437  1.00  0.00     0.046 A 
BRANCH  26  29
HETATM   29  C   UNL     1      28.043  44.662  53.710  1.00  0.00    -0.001 A 
HETATM   30  C   UNL     1      29.115  43.903  54.191  1.00  0.00     0.040 A 
HETATM   31  C   UNL     1      29.779  44.275  55.366  1.00  0.00     0.056 A 
HETATM   32 CL   UNL     1      31.078  43.268  55.905  1.00  0.00    -0.083 Cl
HETATM   33  C   UNL     1      29.383  45.422  56.061  1.00  0.00     0.055 A 
HETATM   34 CL   UNL     1      30.156  45.936  57.517  1.00  0.00    -0.083 Cl
HETATM   35  C   UNL     1      28.325  46.195  55.576  1.00  0.00     0.026 A 
HETATM   36  C   UNL     1      27.662  45.816  54.406  1.00  0.00     0.016 A 
ENDBRANCH  26  29
ENDBRANCH  21  24
ENDBRANCH   1  20
TORSDOF 7
ENDMDL
MODEL 8
REMARK VINA RESULT:      -8.9      2.110      2.860
REMARK  7 active torsions:
REMARK  status: ('A' for Active; 'I' for Inactive)
REMARK    1  A    between atoms: C_2  and  N_3 
REMARK    2  A    between atoms: N_7  and  C_8 
REMARK    3  A    between atoms: C_11  and  N_12 
REMARK    4  A    between atoms: N_12  and  C_13 
REMARK    5  A    between atoms: C_13  and  N_14 
REMARK       I    between atoms: N_14  and  C_15 
REMARK    6  A    between atoms: C_15  and  C_16 
REMARK    7  A    between atoms: C_18  and  C_19 
ROOT
HETATM    1  C   UNL     1      23.693  43.880  48.925  1.00  0.00     0.179 C 
HETATM    2  S   UNL     1      23.042  43.040  50.229  1.00  0.00    -0.040 SA
ENDROOT
BRANCH   1   3
HETATM    3  N   UNL     1      22.997  44.554  47.955  1.00  0.00    -0.333 N 
HETATM    4  H   UNL     1      22.429  43.952  47.363  1.00  0.00     0.168 HD
BRANCH   3   5
HETATM    5  C   UNL     1      22.608  45.911  48.029  1.00  0.00     0.034 A 
HETATM    6  C   UNL     1      21.589  46.420  47.233  1.00  0.00     0.032 A 
HETATM    7  C   UNL     1      21.253  47.780  47.285  1.00  0.00     0.031 A 
HETATM    8  C   UNL     1      21.935  48.693  48.107  1.00  0.00     0.030 A 
HETATM    9  C   UNL     1      22.882  48.123  48.979  1.00  0.00     0.031 A 
HETATM   10  C   UNL     1      23.217  46.757  48.943  1.00  0.00     0.032 A 
BRANCH   8  11
HETATM   11  N   UNL     1      21.656  50.072  48.080  1.00  0.00    -0.378 N 
HETATM   12  C   UNL     1      21.704  50.818  49.362  1.00  0.00     0.150 C 
HETATM   13  C   UNL     1      20.409  50.571  50.171  1.00  0.00     0.254 C 
HETATM   14  N   UNL     1      19.172  50.977  49.349  1.00  0.00    -0.068 N 
HETATM   15  H   UNL     1      19.234  51.990  49.189  1.00  0.00     0.280 HD
HETATM   16  C   UNL     1      19.186  50.312  47.956  1.00  0.00     0.254 C 
HETATM   17  C   UNL     1      20.536  50.556  47.240  1.00  0.00     0.150 C 
BRANCH  14  18
HETATM   18  C   UNL     1      17.868  50.690  50.058  1.00  0.00     0.230 C 
HETATM   19  C   UNL     1      16.810  51.713  49.689  1.00  0.00     0.034 C 
ENDBRANCH  14  18
ENDBRANCH   8  11
ENDBRANCH   3   5
ENDBRANCH   1   3
BRANCH   1  20
HETATM   20  N   UNL     1      25.072  43.866  48.842  1.00  0.00    -0.298 N 
HETATM   21  C   UNL     1      26.185  43.985  49.675  1.00  0.00     0.281 C 
HETATM   22  O   UNL     1      27.181  43.347  49.318  1.00  0.00    -0.265 OA
HETATM   23  H   UNL     1      25.362  43.365  48.009  1.00  0.00     0.171 HD
BRANCH  21  24
HETATM   24  C   UNL     1      26.202  44.796  50.872  1.00  0.00     0.144 A 
HETATM   25  O   UNL     1      27.168  44.689  51.842  1.00  0.00    -0.304 OA
HETATM   26  C   UNL     1      26.789  45.508  52.874  1.00  0.00     0.086 A 
HETATM   27  C   UNL     1      25.605  46.144  52.573  1.00  0.00     0.041 A 
HETATM   28  C   UNL     1      25.237  45.699  51.289  1.00  0.00     0.046 A 
BRANCH  26  29
HETATM   29  C   UNL     1      27.636  45.519  54.053  1.00  0.00    -0.001 A 
HETATM   30  C   UNL     1      28.649  44.568  54.215  1.00  0.00     0.040 A 
HETATM   31  C   UNL     1      29.474  44.595  55.346  1.00  0.00     0.056 A 
HETATM   32 CL   UNL     1      30.686  43.369  55.481  1.00  0.00    -0.083 Cl
HETATM   33  C   UNL     1      29.301  45.586  56.317  1.00  0.00     0.055 A 
HETATM   34 CL   UNL     1      30.282  45.676  57.735  1.00  0.00    -0.083 Cl
HETATM   35  C   UNL     1      28.303  46.550  56.151  1.00  0.00     0.026 A 
HETATM   36  C   UNL     1      27.477  46.515  55.025  1.00  0.00     0.016 A 
ENDBRANCH  26  29
ENDBRANCH  21  24
ENDBRANCH   1  20
TORSDOF 7
ENDMDL
MODEL 9
REMARK VINA RESULT:      -8.8      9.149     12.042
REMARK  7 active torsions:
REMARK  status: ('A' for Active; 'I' for Inactive)
REMARK    1  A    between atoms: C_2  and  N_3 
REMARK    2  A    between atoms: N_7  and  C_8 
REMARK    3  A    between atoms: C_11  and  N_12 
REMARK    4  A    between atoms: N_12  and  C_13 
REMARK    5  A    between atoms: C_13  and  N_14 
REMARK       I    between atoms: N_14  and  C_15 
REMARK    6  A    between atoms: C_15  and  C_16 
REMARK    7  A    between atoms: C_18  and  C_19 
ROOT
HETATM    1  C   UNL     1      19.354  47.347  49.072  1.00  0.00     0.179 C 
HETATM    2  S   UNL     1      20.731  47.660  48.157  1.00  0.00    -0.040 SA
ENDROOT
BRANCH   1   3
HETATM    3  N   UNL     1      18.263  46.613  48.685  1.00  0.00    -0.333 N 
HETATM    4  H   UNL     1      17.954  45.938  49.380  1.00  0.00     0.168 HD
BRANCH   3   5
HETATM    5  C   UNL     1      17.296  47.032  47.743  1.00  0.00     0.034 A 
HETATM    6  C   UNL     1      17.254  46.502  46.459  1.00  0.00     0.032 A 
HETATM    7  C   UNL     1      16.319  46.969  45.523  1.00  0.00     0.031 A 
HETATM    8  C   UNL     1      15.412  48.000  45.816  1.00  0.00     0.030 A 
HETATM    9  C   UNL     1      15.408  48.433  47.155  1.00  0.00     0.031 A 
HETATM   10  C   UNL     1      16.332  47.962  48.105  1.00  0.00     0.032 A 
BRANCH   8  11
HETATM   11  N   UNL     1      14.545  48.528  44.840  1.00  0.00    -0.378 N 
HETATM   12  C   UNL     1      15.004  48.533  43.430  1.00  0.00     0.150 C 
HETATM   13  C   UNL     1      15.985  49.705  43.193  1.00  0.00     0.254 C 
HETATM   14  N   UNL     1      15.322  51.047  43.557  1.00  0.00    -0.068 N 
HETATM   15  H   UNL     1      14.536  51.181  42.909  1.00  0.00     0.280 HD
HETATM   16  C   UNL     1      14.717  51.002  44.976  1.00  0.00     0.254 C 
HETATM   17  C   UNL     1      13.799  49.769  45.148  1.00  0.00     0.150 C 
BRANCH  14  18
HETATM   18  C   UNL     1      16.256  52.228  43.417  1.00  0.00     0.230 C 
HETATM   19  C   UNL     1      17.116  52.394  44.656  1.00  0.00     0.034 C 
ENDBRANCH  14  18
ENDBRANCH   8  11
ENDBRANCH   3   5
ENDBRANCH   1   3
BRANCH   1  20
HETATM   20  N   UNL     1      19.344  47.907  50.334  1.00  0.00    -0.298 N 
HETATM   21  C   UNL     1      18.815  49.015  50.998  1.00  0.00     0.281 C 
HETATM   22  O   UNL     1      18.554  48.839  52.192  1.00  0.00    -0.265 OA
HETATM   23  H   UNL     1      19.537  47.194  51.030  1.00  0.00     0.171 HD
BRANCH  21  24
HETATM   24  C   UNL     1      18.585  50.292  50.360  1.00  0.00     0.144 A 
HETATM   25  O   UNL     1      17.358  50.908  50.326  1.00  0.00    -0.304 OA
HETATM   26  C   UNL     1      17.492  52.018  49.533  1.00  0.00     0.086 A 
HETATM   27  C   UNL     1      18.785  52.127  49.072  1.00  0.00     0.041 A 
HETATM   28  C   UNL     1      19.487  51.031  49.611  1.00  0.00     0.046 A 
BRANCH  26  29
HETATM   29  C   UNL     1      16.298  52.810  49.297  1.00  0.00    -0.001 A 
HETATM   30  C   UNL     1      15.790  53.652  50.291  1.00  0.00     0.040 A 
HETATM   31  C   UNL     1      14.649  54.427  50.052  1.00  0.00     0.056 A 
HETATM   32 CL   UNL     1      14.073  55.423  51.343  1.00  0.00    -0.083 Cl
HETATM   33  C   UNL     1      14.016  54.376  48.806  1.00  0.00     0.055 A 
HETATM   34 CL   UNL     1      12.605  55.303  48.446  1.00  0.00    -0.083 Cl
HETATM   35  C   UNL     1      14.529  53.551  47.803  1.00  0.00     0.026 A 
HETATM   36  C   UNL     1      15.664  52.774  48.048  1.00  0.00     0.016 A 
ENDBRANCH  26  29
ENDBRANCH  21  24
ENDBRANCH   1  20
TORSDOF 7
ENDMDL
MODEL 10
REMARK VINA RESULT:      -8.8      5.255      8.904
REMARK  7 active torsions:
REMARK  status: ('A' for Active; 'I' for Inactive)
REMARK    1  A    between atoms: C_2  and  N_3 
REMARK    2  A    between atoms: N_7  and  C_8 
REMARK    3  A    between atoms: C_11  and  N_12 
REMARK    4  A    between atoms: N_12  and  C_13 
REMARK    5  A    between atoms: C_13  and  N_14 
REMARK       I    between atoms: N_14  and  C_15 
REMARK    6  A    between atoms: C_15  and  C_16 
REMARK    7  A    between atoms: C_18  and  C_19 
ROOT
HETATM    1  C   UNL     1      24.751  43.781  49.125  1.00  0.00     0.179 C 
HETATM    2  S   UNL     1      23.478  43.777  50.225  1.00  0.00    -0.040 SA
ENDROOT
BRANCH   1   3
HETATM    3  N   UNL     1      24.962  42.880  48.113  1.00  0.00    -0.333 N 
HETATM    4  H   UNL     1      24.910  43.288  47.183  1.00  0.00     0.168 HD
BRANCH   3   5
HETATM    5  C   UNL     1      25.702  41.682  48.234  1.00  0.00     0.034 A 
HETATM    6  C   UNL     1      25.187  40.572  48.893  1.00  0.00     0.032 A 
HETATM    7  C   UNL     1      25.957  39.410  49.047  1.00  0.00     0.031 A 
HETATM    8  C   UNL     1      27.278  39.317  48.579  1.00  0.00     0.030 A 
HETATM    9  C   UNL     1      27.726  40.415  47.821  1.00  0.00     0.031 A 
HETATM   10  C   UNL     1      26.956  41.580  47.650  1.00  0.00     0.032 A 
BRANCH   8  11
HETATM   11  N   UNL     1      28.076  38.183  48.825  1.00  0.00    -0.378 N 
HETATM   12  C   UNL     1      29.077  37.800  47.798  1.00  0.00     0.150 C 
HETATM   13  C   UNL     1      28.386  37.062  46.628  1.00  0.00     0.254 C 
HETATM   14  N   UNL     1      27.630  35.823  47.143  1.00  0.00    -0.068 N 
HETATM   15  H   UNL     1      28.332  35.179  47.529  1.00  0.00     0.280 HD
HETATM   16  C   UNL     1      26.686  36.190  48.308  1.00  0.00     0.254 C 
HETATM   17  C   UNL     1      27.441  36.977  49.405  1.00  0.00     0.150 C 
BRANCH  14  18
HETATM   18  C   UNL     1      26.870  35.097  46.055  1.00  0.00     0.230 C 
HETATM   19  C   UNL     1      27.611  35.166  44.733  1.00  0.00     0.034 C 
ENDBRANCH  14  18
ENDBRANCH   8  11
ENDBRANCH   3   5
ENDBRANCH   1   3
BRANCH   1  20
HETATM   20  N   UNL     1      25.669  44.800  49.287  1.00  0.00    -0.298 N 
HETATM   21  C   UNL     1      26.925  45.015  49.857  1.00  0.00     0.281 C 
HETATM   22  O   UNL     1      27.623  45.861  49.290  1.00  0.00    -0.265 OA
HETATM   23  H   UNL     1      25.530  45.507  48.573  1.00  0.00     0.171 HD
BRANCH  21  24
HETATM   24  C   UNL     1      27.397  44.316  51.032  1.00  0.00     0.144 A 
HETATM   25  O   UNL     1      27.807  44.956  52.176  1.00  0.00    -0.304 OA
HETATM   26  C   UNL     1      28.306  43.993  53.014  1.00  0.00     0.086 A 
HETATM   27  C   UNL     1      28.210  42.750  52.429  1.00  0.00     0.041 A 
HETATM   28  C   UNL     1      27.618  42.955  51.168  1.00  0.00     0.046 A 
BRANCH  26  29
HETATM   29  C   UNL     1      28.859  44.441  54.279  1.00  0.00    -0.001 A 
HETATM   30  C   UNL     1      29.903  43.740  54.892  1.00  0.00     0.040 A 
HETATM   31  C   UNL     1      30.445  44.187  56.103  1.00  0.00     0.056 A 
HETATM   32 CL   UNL     1      31.717  43.250  56.805  1.00  0.00    -0.083 Cl
HETATM   33  C   UNL     1      29.954  45.351  56.703  1.00  0.00     0.055 A 
HETATM   34 CL   UNL     1      30.575  45.956  58.196  1.00  0.00    -0.083 Cl
HETATM   35  C   UNL     1      28.924  46.066  56.086  1.00  0.00     0.026 A 
HETATM   36  C   UNL     1      28.382  45.612  54.881  1.00  0.00     0.016 A 
ENDBRANCH  26  29
ENDBRANCH  21  24
ENDBRANCH   1  20
TORSDOF 7
ENDMDL
