MODEL 1
REMARK VINA RESULT:      -9.2      0.000      0.000
REMARK  9 active torsions:
REMARK  status: ('A' for Active; 'I' for Inactive)
REMARK    1  A    between atoms: C_2  and  O_3 
REMARK    2  A    between atoms: O_3  and  C_4 
REMARK    3  A    between atoms: C_5  and  C_6 
REMARK    4  A    between atoms: C_7  and  C_8 
REMARK       I    between atoms: C_8  and  N_9 
REMARK    5  A    between atoms: N_9  and  C_10 
REMARK    6  A    between atoms: C_20  and  S_21 
REMARK    7  A    between atoms: S_21  and  C_22 
REMARK    8  A    between atoms: C_22  and  C_23 
REMARK       I    between atoms: C_23  and  N_24 
REMARK    9  A    between atoms: N_24  and  C_25 
ROOT
HETATM    1  C   UNL     1      22.738  45.610  47.815  1.00  0.00     0.107 A 
HETATM    2  C   UNL     1      23.158  46.696  48.804  1.00  0.00     0.046 A 
HETATM    3  C   UNL     1      23.984  46.410  49.837  1.00  0.00     0.019 A 
HETATM    4  C   UNL     1      24.603  47.422  50.769  1.00  0.00     0.069 C 
HETATM    5  N   UNL     1      24.366  45.100  50.068  1.00  0.00    -0.353 N 
HETATM    6  C   UNL     1      24.000  44.004  49.304  1.00  0.00     0.087 A 
HETATM    7  C   UNL     1      23.262  44.218  48.181  1.00  0.00     0.055 A 
HETATM    8  C   UNL     1      22.957  43.085  47.214  1.00  0.00     0.019 C 
HETATM    9  N   UNL     1      22.703  42.147  46.411  1.00  0.00    -0.096 N 
HETATM   10  H   UNL     1      24.768  44.922  50.986  1.00  0.00     0.166 HD
ENDROOT
BRANCH   1  11
HETATM   11  C   UNL     1      21.228  45.618  47.531  1.00  0.00    -0.011 A 
HETATM   12  C   UNL     1      20.679  45.956  46.279  1.00  0.00     0.076 A 
HETATM   13  C   UNL     1      19.291  45.910  46.095  1.00  0.00     0.037 A 
HETATM   14  C   UNL     1      18.444  45.547  47.144  1.00  0.00     0.003 A 
HETATM   15  C   UNL     1      18.974  45.218  48.383  1.00  0.00     0.001 A 
HETATM   16  C   UNL     1      20.353  45.251  48.575  1.00  0.00     0.011 A 
BRANCH  12  17
HETATM   17  O   UNL     1      21.567  46.280  45.292  1.00  0.00    -0.351 OA
BRANCH  17  18
HETATM   18  C   UNL     1      21.615  45.462  44.125  1.00  0.00     0.171 C 
HETATM   19  C   UNL     1      22.985  44.830  43.937  1.00  0.00     0.034 C 
ENDBRANCH  17  18
ENDBRANCH  12  17
ENDBRANCH   1  11
BRANCH   6  20
HETATM   20  S   UNL     1      24.476  42.349  49.706  1.00  0.00    -0.102 SA
BRANCH  20  21
HETATM   21  C   UNL     1      26.216  42.215  49.236  1.00  0.00     0.184 C 
BRANCH  21  22
HETATM   22  C   UNL     1      27.110  43.053  50.132  1.00  0.00     0.231 C 
HETATM   23  N   UNL     1      27.514  42.401  51.282  1.00  0.00    -0.327 N 
HETATM   24  H   UNL     1      27.158  41.460  51.414  1.00  0.00     0.169 HD
HETATM   25  O   UNL     1      27.384  44.207  49.797  1.00  0.00    -0.272 OA
BRANCH  23  26
HETATM   26  C   UNL     1      28.232  42.943  52.369  1.00  0.00     0.034 A 
HETATM   27  C   UNL     1      27.704  43.869  53.269  1.00  0.00     0.030 A 
HETATM   28  C   UNL     1      28.445  44.278  54.386  1.00  0.00     0.009 A 
HETATM   29  C   UNL     1      29.728  43.775  54.614  1.00  0.00    -0.062 A 
HETATM   30  C   UNL     1      30.513  44.177  55.827  1.00  0.00     0.048 C 
HETATM   31  C   UNL     1      30.274  42.878  53.689  1.00  0.00     0.009 A 
HETATM   32  C   UNL     1      29.533  42.469  52.576  1.00  0.00     0.030 A 
ENDBRANCH  23  26
ENDBRANCH  21  22
ENDBRANCH  20  21
ENDBRANCH   6  20
BRANCH   2  33
HETATM   33  C   UNL     1      22.648  48.066  48.502  1.00  0.00     0.255 C 
HETATM   34  N   UNL     1      21.485  48.376  49.177  1.00  0.00    -0.323 N 
HETATM   35  H   UNL     1      21.172  47.730  49.889  1.00  0.00     0.169 HD
HETATM   36  O   UNL     1      23.249  48.774  47.705  1.00  0.00    -0.268 OA
BRANCH  34  37
HETATM   37  C   UNL     1      20.698  49.531  49.014  1.00  0.00     0.035 A 
HETATM   38  C   UNL     1      20.639  50.552  49.963  1.00  0.00     0.029 A 
HETATM   39  C   UNL     1      19.882  51.699  49.715  1.00  0.00     0.002 A 
HETATM   40  C   UNL     1      19.156  51.819  48.530  1.00  0.00     0.000 A 
HETATM   41  C   UNL     1      19.201  50.798  47.585  1.00  0.00     0.002 A 
HETATM   42  C   UNL     1      19.985  49.667  47.816  1.00  0.00     0.029 A 
ENDBRANCH  34  37
ENDBRANCH   2  33
TORSDOF 9
ENDMDL
MODEL 2
REMARK VINA RESULT:      -8.9      2.991      9.766
REMARK  9 active torsions:
REMARK  status: ('A' for Active; 'I' for Inactive)
REMARK    1  A    between atoms: C_2  and  O_3 
REMARK    2  A    between atoms: O_3  and  C_4 
REMARK    3  A    between atoms: C_5  and  C_6 
REMARK    4  A    between atoms: C_7  and  C_8 
REMARK       I    between atoms: C_8  and  N_9 
REMARK    5  A    between atoms: N_9  and  C_10 
REMARK    6  A    between atoms: C_20  and  S_21 
REMARK    7  A    between atoms: S_21  and  C_22 
REMARK    8  A    between atoms: C_22  and  C_23 
REMARK       I    between atoms: C_23  and  N_24 
REMARK    9  A    between atoms: N_24  and  C_25 
ROOT
HETATM    1  C   UNL     1      25.011  44.150  51.808  1.00  0.00     0.107 A 
HETATM    2  C   UNL     1      25.645  45.165  52.759  1.00  0.00     0.046 A 
HETATM    3  C   UNL     1      25.397  46.488  52.625  1.00  0.00     0.019 A 
HETATM    4  C   UNL     1      25.820  47.560  53.598  1.00  0.00     0.069 C 
HETATM    5  N   UNL     1      24.651  46.941  51.552  1.00  0.00    -0.353 N 
HETATM    6  C   UNL     1      24.080  46.148  50.570  1.00  0.00     0.087 A 
HETATM    7  C   UNL     1      24.188  44.797  50.690  1.00  0.00     0.055 A 
HETATM    8  C   UNL     1      23.457  43.863  49.738  1.00  0.00     0.019 C 
HETATM    9  N   UNL     1      22.851  43.089  48.949  1.00  0.00    -0.096 N 
HETATM   10  H   UNL     1      24.715  47.942  51.372  1.00  0.00     0.166 HD
ENDROOT
BRANCH   1  11
HETATM   11  C   UNL     1      26.022  43.121  51.278  1.00  0.00    -0.011 A 
HETATM   12  C   UNL     1      27.255  43.476  50.700  1.00  0.00     0.076 A 
HETATM   13  C   UNL     1      28.134  42.474  50.269  1.00  0.00     0.037 A 
HETATM   14  C   UNL     1      27.793  41.126  50.392  1.00  0.00     0.003 A 
HETATM   15  C   UNL     1      26.579  40.764  50.955  1.00  0.00     0.001 A 
HETATM   16  C   UNL     1      25.701  41.752  51.396  1.00  0.00     0.011 A 
BRANCH  12  17
HETATM   17  O   UNL     1      27.532  44.813  50.630  1.00  0.00    -0.351 OA
BRANCH  17  18
HETATM   18  C   UNL     1      27.287  45.495  49.401  1.00  0.00     0.171 C 
HETATM   19  C   UNL     1      27.542  46.988  49.525  1.00  0.00     0.034 C 
ENDBRANCH  17  18
ENDBRANCH  12  17
ENDBRANCH   1  11
BRANCH   6  20
HETATM   20  S   UNL     1      23.197  46.812  49.189  1.00  0.00    -0.102 SA
BRANCH  20  21
HETATM   21  C   UNL     1      23.865  48.472  48.938  1.00  0.00     0.184 C 
BRANCH  21  22
HETATM   22  C   UNL     1      22.864  49.549  49.316  1.00  0.00     0.231 C 
HETATM   23  N   UNL     1      21.550  49.200  49.062  1.00  0.00    -0.327 N 
HETATM   24  H   UNL     1      21.399  48.291  48.638  1.00  0.00     0.169 HD
HETATM   25  O   UNL     1      23.273  50.613  49.781  1.00  0.00    -0.272 OA
BRANCH  23  26
HETATM   26  C   UNL     1      20.407  50.020  49.177  1.00  0.00     0.034 A 
HETATM   27  C   UNL     1      19.298  49.708  49.963  1.00  0.00     0.030 A 
HETATM   28  C   UNL     1      18.249  50.625  50.110  1.00  0.00     0.009 A 
HETATM   29  C   UNL     1      18.288  51.864  49.464  1.00  0.00    -0.062 A 
HETATM   30  C   UNL     1      17.188  52.867  49.646  1.00  0.00     0.048 C 
HETATM   31  C   UNL     1      19.380  52.159  48.642  1.00  0.00     0.009 A 
HETATM   32  C   UNL     1      20.428  51.244  48.498  1.00  0.00     0.030 A 
ENDBRANCH  23  26
ENDBRANCH  21  22
ENDBRANCH  20  21
ENDBRANCH   6  20
BRANCH   2  33
HETATM   33  C   UNL     1      26.480  44.580  53.849  1.00  0.00     0.255 C 
HETATM   34  N   UNL     1      27.800  44.979  53.800  1.00  0.00    -0.323 N 
HETATM   35  H   UNL     1      28.043  45.707  53.141  1.00  0.00     0.169 HD
HETATM   36  O   UNL     1      25.972  43.814  54.657  1.00  0.00    -0.268 OA
BRANCH  34  37
HETATM   37  C   UNL     1      28.853  44.510  54.606  1.00  0.00     0.035 A 
HETATM   38  C   UNL     1      29.469  43.274  54.410  1.00  0.00     0.029 A 
HETATM   39  C   UNL     1      30.548  42.892  55.212  1.00  0.00     0.002 A 
HETATM   40  C   UNL     1      30.996  43.729  56.233  1.00  0.00     0.000 A 
HETATM   41  C   UNL     1      30.376  44.959  56.442  1.00  0.00     0.002 A 
HETATM   42  C   UNL     1      29.322  45.357  55.618  1.00  0.00     0.029 A 
ENDBRANCH  34  37
ENDBRANCH   2  33
TORSDOF 9
ENDMDL
MODEL 3
REMARK VINA RESULT:      -8.4      2.082      9.618
REMARK  9 active torsions:
REMARK  status: ('A' for Active; 'I' for Inactive)
REMARK    1  A    between atoms: C_2  and  O_3 
REMARK    2  A    between atoms: O_3  and  C_4 
REMARK    3  A    between atoms: C_5  and  C_6 
REMARK    4  A    between atoms: C_7  and  C_8 
REMARK       I    between atoms: C_8  and  N_9 
REMARK    5  A    between atoms: N_9  and  C_10 
REMARK    6  A    between atoms: C_20  and  S_21 
REMARK    7  A    between atoms: S_21  and  C_22 
REMARK    8  A    between atoms: C_22  and  C_23 
REMARK       I    between atoms: C_23  and  N_24 
REMARK    9  A    between atoms: N_24  and  C_25 
ROOT
HETATM    1  C   UNL     1      24.679  45.246  49.343  1.00  0.00     0.107 A 
HETATM    2  C   UNL     1      24.805  43.723  49.335  1.00  0.00     0.046 A 
HETATM    3  C   UNL     1      23.760  42.943  48.974  1.00  0.00     0.019 A 
HETATM    4  C   UNL     1      23.814  41.451  48.761  1.00  0.00     0.069 C 
HETATM    5  N   UNL     1      22.530  43.521  48.716  1.00  0.00    -0.353 N 
HETATM    6  C   UNL     1      22.247  44.877  48.761  1.00  0.00     0.087 A 
HETATM    7  C   UNL     1      23.269  45.741  49.007  1.00  0.00     0.055 A 
HETATM    8  C   UNL     1      23.065  47.245  48.918  1.00  0.00     0.019 C 
HETATM    9  N   UNL     1      22.896  48.492  48.845  1.00  0.00    -0.096 N 
HETATM   10  H   UNL     1      21.743  42.875  48.701  1.00  0.00     0.166 HD
ENDROOT
BRANCH   1  11
HETATM   11  C   UNL     1      25.238  45.881  50.626  1.00  0.00    -0.011 A 
HETATM   12  C   UNL     1      26.167  46.939  50.623  1.00  0.00     0.076 A 
HETATM   13  C   UNL     1      26.606  47.481  51.838  1.00  0.00     0.037 A 
HETATM   14  C   UNL     1      26.143  46.973  53.053  1.00  0.00     0.003 A 
HETATM   15  C   UNL     1      25.232  45.927  53.069  1.00  0.00     0.001 A 
HETATM   16  C   UNL     1      24.782  45.386  51.866  1.00  0.00     0.011 A 
BRANCH  12  17
HETATM   17  O   UNL     1      26.561  47.400  49.398  1.00  0.00    -0.351 OA
BRANCH  17  18
HETATM   18  C   UNL     1      27.255  48.644  49.331  1.00  0.00     0.171 C 
HETATM   19  C   UNL     1      26.566  49.623  48.395  1.00  0.00     0.034 C 
ENDBRANCH  17  18
ENDBRANCH  12  17
ENDBRANCH   1  11
BRANCH   6  20
HETATM   20  S   UNL     1      20.628  45.531  48.484  1.00  0.00    -0.102 SA
BRANCH  20  21
HETATM   21  C   UNL     1      20.679  46.273  46.837  1.00  0.00     0.184 C 
BRANCH  21  22
HETATM   22  C   UNL     1      19.889  47.568  46.774  1.00  0.00     0.231 C 
HETATM   23  N   UNL     1      19.828  48.241  47.980  1.00  0.00    -0.327 N 
HETATM   24  H   UNL     1      20.287  47.796  48.768  1.00  0.00     0.169 HD
HETATM   25  O   UNL     1      19.367  47.902  45.710  1.00  0.00    -0.272 OA
BRANCH  23  26
HETATM   26  C   UNL     1      19.070  49.392  48.283  1.00  0.00     0.034 A 
HETATM   27  C   UNL     1      17.696  49.382  48.521  1.00  0.00     0.030 A 
HETATM   28  C   UNL     1      17.034  50.550  48.922  1.00  0.00     0.009 A 
HETATM   29  C   UNL     1      17.735  51.748  49.083  1.00  0.00    -0.062 A 
HETATM   30  C   UNL     1      17.042  52.994  49.549  1.00  0.00     0.048 C 
HETATM   31  C   UNL     1      19.105  51.768  48.804  1.00  0.00     0.009 A 
HETATM   32  C   UNL     1      19.765  50.601  48.405  1.00  0.00     0.030 A 
ENDBRANCH  23  26
ENDBRANCH  21  22
ENDBRANCH  20  21
ENDBRANCH   6  20
BRANCH   2  33
HETATM   33  C   UNL     1      26.157  43.194  49.684  1.00  0.00     0.255 C 
HETATM   34  N   UNL     1      26.342  43.020  51.041  1.00  0.00    -0.323 N 
HETATM   35  H   UNL     1      25.534  43.131  51.639  1.00  0.00     0.169 HD
HETATM   36  O   UNL     1      26.972  42.981  48.797  1.00  0.00    -0.268 OA
BRANCH  34  37
HETATM   37  C   UNL     1      27.536  42.656  51.689  1.00  0.00     0.035 A 
HETATM   38  C   UNL     1      28.492  43.586  52.100  1.00  0.00     0.029 A 
HETATM   39  C   UNL     1      29.631  43.163  52.790  1.00  0.00     0.002 A 
HETATM   40  C   UNL     1      29.836  41.808  53.044  1.00  0.00     0.000 A 
HETATM   41  C   UNL     1      28.892  40.874  52.624  1.00  0.00     0.002 A 
HETATM   42  C   UNL     1      27.736  41.299  51.967  1.00  0.00     0.029 A 
ENDBRANCH  34  37
ENDBRANCH   2  33
TORSDOF 9
ENDMDL
MODEL 4
REMARK VINA RESULT:      -8.4      2.202      9.411
REMARK  9 active torsions:
REMARK  status: ('A' for Active; 'I' for Inactive)
REMARK    1  A    between atoms: C_2  and  O_3 
REMARK    2  A    between atoms: O_3  and  C_4 
REMARK    3  A    between atoms: C_5  and  C_6 
REMARK    4  A    between atoms: C_7  and  C_8 
REMARK       I    between atoms: C_8  and  N_9 
REMARK    5  A    between atoms: N_9  and  C_10 
REMARK    6  A    between atoms: C_20  and  S_21 
REMARK    7  A    between atoms: S_21  and  C_22 
REMARK    8  A    between atoms: C_22  and  C_23 
REMARK       I    between atoms: C_23  and  N_24 
REMARK    9  A    between atoms: N_24  and  C_25 
ROOT
HETATM    1  C   UNL     1      24.800  43.319  51.196  1.00  0.00     0.107 A 
HETATM    2  C   UNL     1      25.272  44.515  52.021  1.00  0.00     0.046 A 
HETATM    3  C   UNL     1      24.838  45.765  51.740  1.00  0.00     0.019 A 
HETATM    4  C   UNL     1      25.092  46.991  52.582  1.00  0.00     0.069 C 
HETATM    5  N   UNL     1      24.045  45.982  50.626  1.00  0.00    -0.353 N 
HETATM    6  C   UNL     1      23.605  45.008  49.745  1.00  0.00     0.087 A 
HETATM    7  C   UNL     1      23.904  43.709  50.017  1.00  0.00     0.055 A 
HETATM    8  C   UNL     1      23.325  42.578  49.182  1.00  0.00     0.019 C 
HETATM    9  N   UNL     1      22.846  41.639  48.490  1.00  0.00    -0.096 N 
HETATM   10  H   UNL     1      23.966  46.954  50.333  1.00  0.00     0.166 HD
ENDROOT
BRANCH   1  11
HETATM   11  C   UNL     1      25.954  42.392  50.781  1.00  0.00    -0.011 A 
HETATM   12  C   UNL     1      26.952  42.766  49.860  1.00  0.00     0.076 A 
HETATM   13  C   UNL     1      27.987  41.872  49.558  1.00  0.00     0.037 A 
HETATM   14  C   UNL     1      28.032  40.608  50.149  1.00  0.00     0.003 A 
HETATM   15  C   UNL     1      27.052  40.227  51.053  1.00  0.00     0.001 A 
HETATM   16  C   UNL     1      26.023  41.111  51.369  1.00  0.00     0.011 A 
BRANCH  12  17
HETATM   17  O   UNL     1      26.856  44.025  49.337  1.00  0.00    -0.351 OA
BRANCH  17  18
HETATM   18  C   UNL     1      27.729  45.037  49.837  1.00  0.00     0.171 C 
HETATM   19  C   UNL     1      27.275  46.427  49.421  1.00  0.00     0.034 C 
ENDBRANCH  17  18
ENDBRANCH  12  17
ENDBRANCH   1  11
BRANCH   6  20
HETATM   20  S   UNL     1      22.649  45.376  48.303  1.00  0.00    -0.102 SA
BRANCH  20  21
HETATM   21  C   UNL     1      20.925  45.135  48.788  1.00  0.00     0.184 C 
BRANCH  21  22
HETATM   22  C   UNL     1      20.107  46.403  48.620  1.00  0.00     0.231 C 
HETATM   23  N   UNL     1      20.720  47.532  49.131  1.00  0.00    -0.327 N 
HETATM   24  H   UNL     1      21.622  47.394  49.575  1.00  0.00     0.169 HD
HETATM   25  O   UNL     1      18.999  46.337  48.086  1.00  0.00    -0.272 OA
BRANCH  23  26
HETATM   26  C   UNL     1      20.171  48.827  49.249  1.00  0.00     0.034 A 
HETATM   27  C   UNL     1      20.576  49.919  48.480  1.00  0.00     0.030 A 
HETATM   28  C   UNL     1      19.908  51.147  48.581  1.00  0.00     0.009 A 
HETATM   29  C   UNL     1      18.832  51.303  49.458  1.00  0.00    -0.062 A 
HETATM   30  C   UNL     1      18.086  52.602  49.545  1.00  0.00     0.048 C 
HETATM   31  C   UNL     1      18.453  50.221  50.259  1.00  0.00     0.009 A 
HETATM   32  C   UNL     1      19.119  48.995  50.156  1.00  0.00     0.030 A 
ENDBRANCH  23  26
ENDBRANCH  21  22
ENDBRANCH  20  21
ENDBRANCH   6  20
BRANCH   2  33
HETATM   33  C   UNL     1      26.171  44.185  53.166  1.00  0.00     0.255 C 
HETATM   34  N   UNL     1      27.482  44.563  52.958  1.00  0.00    -0.323 N 
HETATM   35  H   UNL     1      27.680  45.129  52.143  1.00  0.00     0.169 HD
HETATM   36  O   UNL     1      25.717  43.615  54.149  1.00  0.00    -0.268 OA
BRANCH  34  37
HETATM   37  C   UNL     1      28.582  44.283  53.789  1.00  0.00     0.035 A 
HETATM   38  C   UNL     1      28.876  45.021  54.936  1.00  0.00     0.029 A 
HETATM   39  C   UNL     1      29.952  44.656  55.749  1.00  0.00     0.002 A 
HETATM   40  C   UNL     1      30.758  43.571  55.404  1.00  0.00     0.000 A 
HETATM   41  C   UNL     1      30.477  42.840  54.253  1.00  0.00     0.002 A 
HETATM   42  C   UNL     1      29.381  43.182  53.459  1.00  0.00     0.029 A 
ENDBRANCH  34  37
ENDBRANCH   2  33
TORSDOF 9
ENDMDL
MODEL 5
REMARK VINA RESULT:      -8.3      2.003      2.886
REMARK  9 active torsions:
REMARK  status: ('A' for Active; 'I' for Inactive)
REMARK    1  A    between atoms: C_2  and  O_3 
REMARK    2  A    between atoms: O_3  and  C_4 
REMARK    3  A    between atoms: C_5  and  C_6 
REMARK    4  A    between atoms: C_7  and  C_8 
REMARK       I    between atoms: C_8  and  N_9 
REMARK    5  A    between atoms: N_9  and  C_10 
REMARK    6  A    between atoms: C_20  and  S_21 
REMARK    7  A    between atoms: S_21  and  C_22 
REMARK    8  A    between atoms: C_22  and  C_23 
REMARK       I    between atoms: C_23  and  N_24 
REMARK    9  A    between atoms: N_24  and  C_25 
ROOT
HETATM    1  C   UNL     1      21.084  47.822  47.470  1.00  0.00     0.107 A 
HETATM    2  C   UNL     1      21.032  49.083  48.332  1.00  0.00     0.046 A 
HETATM    3  C   UNL     1      21.958  49.303  49.294  1.00  0.00     0.019 A 
HETATM    4  C   UNL     1      22.113  50.579  50.084  1.00  0.00     0.069 C 
HETATM    5  N   UNL     1      22.898  48.328  49.577  1.00  0.00    -0.353 N 
HETATM    6  C   UNL     1      23.016  47.107  48.934  1.00  0.00     0.087 A 
HETATM    7  C   UNL     1      22.195  46.851  47.879  1.00  0.00     0.055 A 
HETATM    8  C   UNL     1      22.371  45.602  47.031  1.00  0.00     0.019 C 
HETATM    9  N   UNL     1      22.517  44.566  46.327  1.00  0.00    -0.096 N 
HETATM   10  H   UNL     1      23.391  48.446  50.460  1.00  0.00     0.166 HD
ENDROOT
BRANCH   1  11
HETATM   11  C   UNL     1      19.715  47.136  47.341  1.00  0.00    -0.011 A 
HETATM   12  C   UNL     1      19.104  46.858  46.104  1.00  0.00     0.076 A 
HETATM   13  C   UNL     1      17.867  46.201  46.072  1.00  0.00     0.037 A 
HETATM   14  C   UNL     1      17.226  45.833  47.256  1.00  0.00     0.003 A 
HETATM   15  C   UNL     1      17.816  46.106  48.481  1.00  0.00     0.001 A 
HETATM   16  C   UNL     1      19.050  46.750  48.524  1.00  0.00     0.011 A 
BRANCH  12  17
HETATM   17  O   UNL     1      19.797  47.228  44.985  1.00  0.00    -0.351 OA
BRANCH  17  18
HETATM   18  C   UNL     1      19.652  46.441  43.804  1.00  0.00     0.171 C 
HETATM   19  C   UNL     1      20.988  45.905  43.317  1.00  0.00     0.034 C 
ENDBRANCH  17  18
ENDBRANCH  12  17
ENDBRANCH   1  11
BRANCH   6  20
HETATM   20  S   UNL     1      24.204  45.883  49.403  1.00  0.00    -0.102 SA
BRANCH  20  21
HETATM   21  C   UNL     1      24.886  46.447  50.979  1.00  0.00     0.184 C 
BRANCH  21  22
HETATM   22  C   UNL     1      26.117  45.654  51.379  1.00  0.00     0.231 C 
HETATM   23  N   UNL     1      26.184  45.377  52.732  1.00  0.00    -0.327 N 
HETATM   24  H   UNL     1      25.432  45.744  53.305  1.00  0.00     0.169 HD
HETATM   25  O   UNL     1      26.940  45.346  50.516  1.00  0.00    -0.272 OA
BRANCH  23  26
HETATM   26  C   UNL     1      27.254  44.780  53.433  1.00  0.00     0.034 A 
HETATM   27  C   UNL     1      27.781  43.524  53.131  1.00  0.00     0.030 A 
HETATM   28  C   UNL     1      28.914  43.048  53.805  1.00  0.00     0.009 A 
HETATM   29  C   UNL     1      29.530  43.815  54.796  1.00  0.00    -0.062 A 
HETATM   30  C   UNL     1      30.765  43.330  55.495  1.00  0.00     0.048 C 
HETATM   31  C   UNL     1      28.977  45.057  55.128  1.00  0.00     0.009 A 
HETATM   32  C   UNL     1      27.847  45.532  54.454  1.00  0.00     0.030 A 
ENDBRANCH  23  26
ENDBRANCH  21  22
ENDBRANCH  20  21
ENDBRANCH   6  20
BRANCH   2  33
HETATM   33  C   UNL     1      19.946  50.048  47.986  1.00  0.00     0.255 C 
HETATM   34  N   UNL     1      19.061  50.267  49.022  1.00  0.00    -0.323 N 
HETATM   35  H   UNL     1      19.295  49.879  49.926  1.00  0.00     0.169 HD
HETATM   36  O   UNL     1      19.904  50.536  46.865  1.00  0.00    -0.268 OA
BRANCH  34  37
HETATM   37  C   UNL     1      17.874  51.020  48.970  1.00  0.00     0.035 A 
HETATM   38  C   UNL     1      17.706  52.225  49.654  1.00  0.00     0.029 A 
HETATM   39  C   UNL     1      16.521  52.952  49.516  1.00  0.00     0.002 A 
HETATM   40  C   UNL     1      15.487  52.465  48.718  1.00  0.00     0.000 A 
HETATM   41  C   UNL     1      15.643  51.256  48.043  1.00  0.00     0.002 A 
HETATM   42  C   UNL     1      16.840  50.547  48.153  1.00  0.00     0.029 A 
ENDBRANCH  34  37
ENDBRANCH   2  33
TORSDOF 9
ENDMDL
MODEL 6
REMARK VINA RESULT:      -8.1      3.019     10.185
REMARK  9 active torsions:
REMARK  status: ('A' for Active; 'I' for Inactive)
REMARK    1  A    between atoms: C_2  and  O_3 
REMARK    2  A    between atoms: O_3  and  C_4 
REMARK    3  A    between atoms: C_5  and  C_6 
REMARK    4  A    between atoms: C_7  and  C_8 
REMARK       I    between atoms: C_8  and  N_9 
REMARK    5  A    between atoms: N_9  and  C_10 
REMARK    6  A    between atoms: C_20  and  S_21 
REMARK    7  A    between atoms: S_21  and  C_22 
REMARK    8  A    between atoms: C_22  and  C_23 
REMARK       I    between atoms: C_23  and  N_24 
REMARK    9  A    between atoms: N_24  and  C_25 
ROOT
HETATM    1  C   UNL     1      25.970  44.560  53.248  1.00  0.00     0.107 A 
HETATM    2  C   UNL     1      26.646  45.732  53.959  1.00  0.00     0.046 A 
HETATM    3  C   UNL     1      26.452  47.003  53.538  1.00  0.00     0.019 A 
HETATM    4  C   UNL     1      26.919  48.244  54.256  1.00  0.00     0.069 C 
HETATM    5  N   UNL     1      25.723  47.240  52.385  1.00  0.00    -0.353 N 
HETATM    6  C   UNL     1      25.120  46.274  51.596  1.00  0.00     0.087 A 
HETATM    7  C   UNL     1      25.172  44.979  52.010  1.00  0.00     0.055 A 
HETATM    8  C   UNL     1      24.402  43.889  51.279  1.00  0.00     0.019 C 
HETATM    9  N   UNL     1      23.765  42.986  50.674  1.00  0.00    -0.096 N 
HETATM   10  H   UNL     1      25.827  48.173  51.992  1.00  0.00     0.166 HD
ENDROOT
BRANCH   1  11
HETATM   11  C   UNL     1      26.937  43.400  52.964  1.00  0.00    -0.011 A 
HETATM   12  C   UNL     1      27.790  43.361  51.845  1.00  0.00     0.076 A 
HETATM   13  C   UNL     1      28.664  42.280  51.675  1.00  0.00     0.037 A 
HETATM   14  C   UNL     1      28.689  41.232  52.596  1.00  0.00     0.003 A 
HETATM   15  C   UNL     1      27.850  41.257  53.700  1.00  0.00     0.001 A 
HETATM   16  C   UNL     1      26.982  42.332  53.885  1.00  0.00     0.011 A 
BRANCH  12  17
HETATM   17  O   UNL     1      27.727  44.431  50.995  1.00  0.00    -0.351 OA
BRANCH  17  18
HETATM   18  C   UNL     1      27.314  44.206  49.648  1.00  0.00     0.171 C 
HETATM   19  C   UNL     1      26.961  42.747  49.405  1.00  0.00     0.034 C 
ENDBRANCH  17  18
ENDBRANCH  12  17
ENDBRANCH   1  11
BRANCH   6  20
HETATM   20  S   UNL     1      24.262  46.655  50.097  1.00  0.00    -0.102 SA
BRANCH  20  21
HETATM   21  C   UNL     1      25.063  48.137  49.442  1.00  0.00     0.184 C 
BRANCH  21  22
HETATM   22  C   UNL     1      24.063  49.088  48.810  1.00  0.00     0.231 C 
HETATM   23  N   UNL     1      22.859  49.159  49.486  1.00  0.00    -0.327 N 
HETATM   24  H   UNL     1      22.764  48.562  50.302  1.00  0.00     0.169 HD
HETATM   25  O   UNL     1      24.372  49.686  47.779  1.00  0.00    -0.272 OA
BRANCH  23  26
HETATM   26  C   UNL     1      21.689  49.841  49.087  1.00  0.00     0.034 A 
HETATM   27  C   UNL     1      21.125  50.902  49.795  1.00  0.00     0.030 A 
HETATM   28  C   UNL     1      20.025  51.598  49.277  1.00  0.00     0.009 A 
HETATM   29  C   UNL     1      19.467  51.238  48.048  1.00  0.00    -0.062 A 
HETATM   30  C   UNL     1      18.314  52.001  47.467  1.00  0.00     0.048 C 
HETATM   31  C   UNL     1      20.007  50.147  47.358  1.00  0.00     0.009 A 
HETATM   32  C   UNL     1      21.106  49.454  47.875  1.00  0.00     0.030 A 
ENDBRANCH  23  26
ENDBRANCH  21  22
ENDBRANCH  20  21
ENDBRANCH   6  20
BRANCH   2  33
HETATM   33  C   UNL     1      27.458  45.367  55.157  1.00  0.00     0.255 C 
HETATM   34  N   UNL     1      28.811  45.290  54.898  1.00  0.00    -0.323 N 
HETATM   35  H   UNL     1      29.130  45.608  53.992  1.00  0.00     0.169 HD
HETATM   36  O   UNL     1      26.900  45.153  56.225  1.00  0.00    -0.268 OA
BRANCH  34  37
HETATM   37  C   UNL     1      29.815  44.854  55.781  1.00  0.00     0.035 A 
HETATM   38  C   UNL     1      30.140  45.531  56.957  1.00  0.00     0.029 A 
HETATM   39  C   UNL     1      31.110  45.013  57.819  1.00  0.00     0.002 A 
HETATM   40  C   UNL     1      31.782  43.835  57.496  1.00  0.00     0.000 A 
HETATM   41  C   UNL     1      31.471  43.163  56.316  1.00  0.00     0.002 A 
HETATM   42  C   UNL     1      30.477  43.660  55.472  1.00  0.00     0.029 A 
ENDBRANCH  34  37
ENDBRANCH   2  33
TORSDOF 9
ENDMDL
MODEL 7
REMARK VINA RESULT:      -8.0      4.271      8.779
REMARK  9 active torsions:
REMARK  status: ('A' for Active; 'I' for Inactive)
REMARK    1  A    between atoms: C_2  and  O_3 
REMARK    2  A    between atoms: O_3  and  C_4 
REMARK    3  A    between atoms: C_5  and  C_6 
REMARK    4  A    between atoms: C_7  and  C_8 
REMARK       I    between atoms: C_8  and  N_9 
REMARK    5  A    between atoms: N_9  and  C_10 
REMARK    6  A    between atoms: C_20  and  S_21 
REMARK    7  A    between atoms: S_21  and  C_22 
REMARK    8  A    between atoms: C_22  and  C_23 
REMARK       I    between atoms: C_23  and  N_24 
REMARK    9  A    between atoms: N_24  and  C_25 
ROOT
HETATM    1  C   UNL     1      26.548  43.982  50.797  1.00  0.00     0.107 A 
HETATM    2  C   UNL     1      27.341  42.815  51.386  1.00  0.00     0.046 A 
HETATM    3  C   UNL     1      26.989  41.536  51.123  1.00  0.00     0.019 A 
HETATM    4  C   UNL     1      27.787  40.313  51.499  1.00  0.00     0.069 C 
HETATM    5  N   UNL     1      25.835  41.276  50.404  1.00  0.00    -0.353 N 
HETATM    6  C   UNL     1      24.979  42.228  49.876  1.00  0.00     0.087 A 
HETATM    7  C   UNL     1      25.318  43.540  50.000  1.00  0.00     0.055 A 
HETATM    8  C   UNL     1      24.509  44.629  49.313  1.00  0.00     0.019 C 
HETATM    9  N   UNL     1      23.838  45.532  48.744  1.00  0.00    -0.096 N 
HETATM   10  H   UNL     1      25.498  40.317  50.459  1.00  0.00     0.166 HD
ENDROOT
BRANCH   1  11
HETATM   11  C   UNL     1      26.221  45.063  51.839  1.00  0.00    -0.011 A 
HETATM   12  C   UNL     1      26.373  46.441  51.597  1.00  0.00     0.076 A 
HETATM   13  C   UNL     1      26.024  47.364  52.591  1.00  0.00     0.037 A 
HETATM   14  C   UNL     1      25.541  46.931  53.827  1.00  0.00     0.003 A 
HETATM   15  C   UNL     1      25.392  45.575  54.079  1.00  0.00     0.001 A 
HETATM   16  C   UNL     1      25.727  44.649  53.094  1.00  0.00     0.011 A 
BRANCH  12  17
HETATM   17  O   UNL     1      26.832  46.794  50.358  1.00  0.00    -0.351 OA
BRANCH  17  18
HETATM   18  C   UNL     1      26.386  48.027  49.795  1.00  0.00     0.171 C 
HETATM   19  C   UNL     1      27.549  48.875  49.307  1.00  0.00     0.034 C 
ENDBRANCH  17  18
ENDBRANCH  12  17
ENDBRANCH   1  11
BRANCH   6  20
HETATM   20  S   UNL     1      23.484  41.813  49.026  1.00  0.00    -0.102 SA
BRANCH  20  21
HETATM   21  C   UNL     1      23.944  41.653  47.286  1.00  0.00     0.184 C 
BRANCH  21  22
HETATM   22  C   UNL     1      24.679  40.354  47.011  1.00  0.00     0.231 C 
HETATM   23  N   UNL     1      26.056  40.485  47.000  1.00  0.00    -0.327 N 
HETATM   24  H   UNL     1      26.420  41.421  47.150  1.00  0.00     0.169 HD
HETATM   25  O   UNL     1      24.030  39.327  46.808  1.00  0.00    -0.272 OA
BRANCH  23  26
HETATM   26  C   UNL     1      27.009  39.506  46.649  1.00  0.00     0.034 A 
HETATM   27  C   UNL     1      27.680  38.704  47.571  1.00  0.00     0.030 A 
HETATM   28  C   UNL     1      28.532  37.679  47.137  1.00  0.00     0.009 A 
HETATM   29  C   UNL     1      28.732  37.448  45.774  1.00  0.00    -0.062 A 
HETATM   30  C   UNL     1      29.611  36.329  45.299  1.00  0.00     0.048 C 
HETATM   31  C   UNL     1      28.091  38.279  44.849  1.00  0.00     0.009 A 
HETATM   32  C   UNL     1      27.240  39.300  45.283  1.00  0.00     0.030 A 
ENDBRANCH  23  26
ENDBRANCH  21  22
ENDBRANCH  20  21
ENDBRANCH   6  20
BRANCH   2  33
HETATM   33  C   UNL     1      28.535  43.200  52.195  1.00  0.00     0.255 C 
HETATM   34  N   UNL     1      28.300  43.187  53.556  1.00  0.00    -0.323 N 
HETATM   35  H   UNL     1      27.420  42.802  53.873  1.00  0.00     0.169 HD
HETATM   36  O   UNL     1      29.577  43.504  51.631  1.00  0.00    -0.268 OA
BRANCH  34  37
HETATM   37  C   UNL     1      29.180  43.615  54.567  1.00  0.00     0.035 A 
HETATM   38  C   UNL     1      30.217  42.822  55.058  1.00  0.00     0.029 A 
HETATM   39  C   UNL     1      31.091  43.328  56.023  1.00  0.00     0.002 A 
HETATM   40  C   UNL     1      30.913  44.617  56.526  1.00  0.00     0.000 A 
HETATM   41  C   UNL     1      29.871  45.408  56.049  1.00  0.00     0.002 A 
HETATM   42  C   UNL     1      29.019  44.916  55.058  1.00  0.00     0.029 A 
ENDBRANCH  34  37
ENDBRANCH   2  33
TORSDOF 9
ENDMDL
MODEL 8
REMARK VINA RESULT:      -7.9      3.226      5.167
REMARK  9 active torsions:
REMARK  status: ('A' for Active; 'I' for Inactive)
REMARK    1  A    between atoms: C_2  and  O_3 
REMARK    2  A    between atoms: O_3  and  C_4 
REMARK    3  A    between atoms: C_5  and  C_6 
REMARK    4  A    between atoms: C_7  and  C_8 
REMARK       I    between atoms: C_8  and  N_9 
REMARK    5  A    between atoms: N_9  and  C_10 
REMARK    6  A    between atoms: C_20  and  S_21 
REMARK    7  A    between atoms: S_21  and  C_22 
REMARK    8  A    between atoms: C_22  and  C_23 
REMARK       I    between atoms: C_23  and  N_24 
REMARK    9  A    between atoms: N_24  and  C_25 
ROOT
HETATM    1  C   UNL     1      19.286  49.376  47.375  1.00  0.00     0.107 A 
HETATM    2  C   UNL     1      19.501  50.320  48.557  1.00  0.00     0.046 A 
HETATM    3  C   UNL     1      20.395  50.023  49.528  1.00  0.00     0.019 A 
HETATM    4  C   UNL     1      20.818  50.947  50.642  1.00  0.00     0.069 C 
HETATM    5  N   UNL     1      21.044  48.801  49.511  1.00  0.00    -0.353 N 
HETATM    6  C   UNL     1      20.891  47.816  48.548  1.00  0.00     0.087 A 
HETATM    7  C   UNL     1      20.094  48.080  47.478  1.00  0.00     0.055 A 
HETATM    8  C   UNL     1      20.002  47.111  46.309  1.00  0.00     0.019 C 
HETATM    9  N   UNL     1      19.925  46.308  45.341  1.00  0.00    -0.096 N 
HETATM   10  H   UNL     1      21.499  48.540  50.384  1.00  0.00     0.166 HD
ENDROOT
BRANCH   1  11
HETATM   11  C   UNL     1      17.799  49.125  47.079  1.00  0.00    -0.011 A 
HETATM   12  C   UNL     1      17.140  49.634  45.944  1.00  0.00     0.076 A 
HETATM   13  C   UNL     1      15.788  49.334  45.733  1.00  0.00     0.037 A 
HETATM   14  C   UNL     1      15.083  48.547  46.644  1.00  0.00     0.003 A 
HETATM   15  C   UNL     1      15.720  48.044  47.768  1.00  0.00     0.001 A 
HETATM   16  C   UNL     1      17.066  48.328  47.984  1.00  0.00     0.011 A 
BRANCH  12  17
HETATM   17  O   UNL     1      17.897  50.380  45.084  1.00  0.00    -0.351 OA
BRANCH  17  18
HETATM   18  C   UNL     1      17.238  51.326  44.243  1.00  0.00     0.171 C 
HETATM   19  C   UNL     1      17.190  52.706  44.880  1.00  0.00     0.034 C 
ENDBRANCH  17  18
ENDBRANCH  12  17
ENDBRANCH   1  11
BRANCH   6  20
HETATM   20  S   UNL     1      21.708  46.250  48.636  1.00  0.00    -0.102 SA
BRANCH  20  21
HETATM   21  C   UNL     1      23.470  46.610  48.460  1.00  0.00     0.184 C 
BRANCH  21  22
HETATM   22  C   UNL     1      24.307  45.847  49.470  1.00  0.00     0.231 C 
HETATM   23  N   UNL     1      24.274  46.388  50.742  1.00  0.00    -0.327 N 
HETATM   24  H   UNL     1      23.724  47.233  50.858  1.00  0.00     0.169 HD
HETATM   25  O   UNL     1      24.943  44.859  49.100  1.00  0.00    -0.272 OA
BRANCH  23  26
HETATM   26  C   UNL     1      25.039  45.997  51.862  1.00  0.00     0.034 A 
HETATM   27  C   UNL     1      25.082  44.696  52.362  1.00  0.00     0.030 A 
HETATM   28  C   UNL     1      25.950  44.365  53.411  1.00  0.00     0.009 A 
HETATM   29  C   UNL     1      26.781  45.332  53.981  1.00  0.00    -0.062 A 
HETATM   30  C   UNL     1      27.741  44.979  55.078  1.00  0.00     0.048 C 
HETATM   31  C   UNL     1      26.708  46.646  53.508  1.00  0.00     0.009 A 
HETATM   32  C   UNL     1      25.843  46.976  52.460  1.00  0.00     0.030 A 
ENDBRANCH  23  26
ENDBRANCH  21  22
ENDBRANCH  20  21
ENDBRANCH   6  20
BRANCH   2  33
HETATM   33  C   UNL     1      18.711  51.587  48.513  1.00  0.00     0.255 C 
HETATM   34  N   UNL     1      17.467  51.475  49.100  1.00  0.00    -0.323 N 
HETATM   35  H   UNL     1      17.265  50.623  49.607  1.00  0.00     0.169 HD
HETATM   36  O   UNL     1      19.184  52.577  47.973  1.00  0.00    -0.268 OA
BRANCH  34  37
HETATM   37  C   UNL     1      16.450  52.447  49.110  1.00  0.00     0.035 A 
HETATM   38  C   UNL     1      15.522  52.588  48.078  1.00  0.00     0.029 A 
HETATM   39  C   UNL     1      14.501  53.537  48.176  1.00  0.00     0.002 A 
HETATM   40  C   UNL     1      14.421  54.370  49.291  1.00  0.00     0.000 A 
HETATM   41  C   UNL     1      15.352  54.243  50.318  1.00  0.00     0.002 A 
HETATM   42  C   UNL     1      16.351  53.271  50.238  1.00  0.00     0.029 A 
ENDBRANCH  34  37
ENDBRANCH   2  33
TORSDOF 9
ENDMDL
MODEL 9
REMARK VINA RESULT:      -7.7      3.362      9.512
REMARK  9 active torsions:
REMARK  status: ('A' for Active; 'I' for Inactive)
REMARK    1  A    between atoms: C_2  and  O_3 
REMARK    2  A    between atoms: O_3  and  C_4 
REMARK    3  A    between atoms: C_5  and  C_6 
REMARK    4  A    between atoms: C_7  and  C_8 
REMARK       I    between atoms: C_8  and  N_9 
REMARK    5  A    between atoms: N_9  and  C_10 
REMARK    6  A    between atoms: C_20  and  S_21 
REMARK    7  A    between atoms: S_21  and  C_22 
REMARK    8  A    between atoms: C_22  and  C_23 
REMARK       I    between atoms: C_23  and  N_24 
REMARK    9  A    between atoms: N_24  and  C_25 
ROOT
HETATM    1  C   UNL     1      26.836  43.861  50.840  1.00  0.00     0.107 A 
HETATM    2  C   UNL     1      27.706  42.750  51.426  1.00  0.00     0.046 A 
HETATM    3  C   UNL     1      27.494  41.456  51.095  1.00  0.00     0.019 A 
HETATM    4  C   UNL     1      28.388  40.299  51.467  1.00  0.00     0.069 C 
HETATM    5  N   UNL     1      26.410  41.119  50.304  1.00  0.00    -0.353 N 
HETATM    6  C   UNL     1      25.493  42.008  49.767  1.00  0.00     0.087 A 
HETATM    7  C   UNL     1      25.696  43.339  49.959  1.00  0.00     0.055 A 
HETATM    8  C   UNL     1      24.822  44.376  49.271  1.00  0.00     0.019 C 
HETATM    9  N   UNL     1      24.096  45.235  48.701  1.00  0.00    -0.096 N 
HETATM   10  H   UNL     1      26.165  40.131  50.303  1.00  0.00     0.166 HD
ENDROOT
BRANCH   1  11
HETATM   11  C   UNL     1      26.352  44.860  51.903  1.00  0.00    -0.011 A 
HETATM   12  C   UNL     1      26.428  46.256  51.743  1.00  0.00     0.076 A 
HETATM   13  C   UNL     1      25.938  47.099  52.749  1.00  0.00     0.037 A 
HETATM   14  C   UNL     1      25.388  46.568  53.917  1.00  0.00     0.003 A 
HETATM   15  C   UNL     1      25.312  45.193  54.088  1.00  0.00     0.001 A 
HETATM   16  C   UNL     1      25.788  44.346  53.090  1.00  0.00     0.011 A 
BRANCH  12  17
HETATM   17  O   UNL     1      26.960  46.706  50.566  1.00  0.00    -0.351 OA
BRANCH  17  18
HETATM   18  C   UNL     1      26.372  47.850  49.948  1.00  0.00     0.171 C 
HETATM   19  C   UNL     1      27.405  48.680  49.204  1.00  0.00     0.034 C 
ENDBRANCH  17  18
ENDBRANCH  12  17
ENDBRANCH   1  11
BRANCH   6  20
HETATM   20  S   UNL     1      24.091  41.490  48.821  1.00  0.00    -0.102 SA
BRANCH  20  21
HETATM   21  C   UNL     1      24.643  41.481  47.100  1.00  0.00     0.184 C 
BRANCH  21  22
HETATM   22  C   UNL     1      23.594  42.055  46.165  1.00  0.00     0.231 C 
HETATM   23  N   UNL     1      23.887  43.329  45.716  1.00  0.00    -0.327 N 
HETATM   24  H   UNL     1      24.743  43.746  46.068  1.00  0.00     0.169 HD
HETATM   25  O   UNL     1      22.593  41.387  45.902  1.00  0.00    -0.272 OA
BRANCH  23  26
HETATM   26  C   UNL     1      23.062  44.181  44.950  1.00  0.00     0.034 A 
HETATM   27  C   UNL     1      23.088  44.248  43.557  1.00  0.00     0.030 A 
HETATM   28  C   UNL     1      22.162  45.040  42.865  1.00  0.00     0.009 A 
HETATM   29  C   UNL     1      21.201  45.782  43.556  1.00  0.00    -0.062 A 
HETATM   30  C   UNL     1      20.181  46.601  42.823  1.00  0.00     0.048 C 
HETATM   31  C   UNL     1      21.201  45.747  44.954  1.00  0.00     0.009 A 
HETATM   32  C   UNL     1      22.125  44.955  45.644  1.00  0.00     0.030 A 
ENDBRANCH  23  26
ENDBRANCH  21  22
ENDBRANCH  20  21
ENDBRANCH   6  20
BRANCH   2  33
HETATM   33  C   UNL     1      28.815  43.211  52.314  1.00  0.00     0.255 C 
HETATM   34  N   UNL     1      28.474  43.222  53.651  1.00  0.00    -0.323 N 
HETATM   35  H   UNL     1      27.590  42.804  53.911  1.00  0.00     0.169 HD
HETATM   36  O   UNL     1      29.883  43.549  51.823  1.00  0.00    -0.268 OA
BRANCH  34  37
HETATM   37  C   UNL     1      29.251  43.716  54.715  1.00  0.00     0.035 A 
HETATM   38  C   UNL     1      30.363  43.042  55.222  1.00  0.00     0.029 A 
HETATM   39  C   UNL     1      31.125  43.615  56.243  1.00  0.00     0.002 A 
HETATM   40  C   UNL     1      30.764  44.848  56.783  1.00  0.00     0.000 A 
HETATM   41  C   UNL     1      29.647  45.519  56.290  1.00  0.00     0.002 A 
HETATM   42  C   UNL     1      28.906  44.964  55.246  1.00  0.00     0.029 A 
ENDBRANCH  34  37
ENDBRANCH   2  33
TORSDOF 9
ENDMDL
MODEL 10
REMARK VINA RESULT:      -7.6      3.705      6.839
REMARK  9 active torsions:
REMARK  status: ('A' for Active; 'I' for Inactive)
REMARK    1  A    between atoms: C_2  and  O_3 
REMARK    2  A    between atoms: O_3  and  C_4 
REMARK    3  A    between atoms: C_5  and  C_6 
REMARK    4  A    between atoms: C_7  and  C_8 
REMARK       I    between atoms: C_8  and  N_9 
REMARK    5  A    between atoms: N_9  and  C_10 
REMARK    6  A    between atoms: C_20  and  S_21 
REMARK    7  A    between atoms: S_21  and  C_22 
REMARK    8  A    between atoms: C_22  and  C_23 
REMARK       I    between atoms: C_23  and  N_24 
REMARK    9  A    between atoms: N_24  and  C_25 
ROOT
HETATM    1  C   UNL     1      17.365  49.185  47.894  1.00  0.00     0.107 A 
HETATM    2  C   UNL     1      17.432  49.221  46.367  1.00  0.00     0.046 A 
HETATM    3  C   UNL     1      18.394  48.544  45.700  1.00  0.00     0.019 A 
HETATM    4  C   UNL     1      18.459  48.362  44.204  1.00  0.00     0.069 C 
HETATM    5  N   UNL     1      19.396  47.902  46.405  1.00  0.00    -0.353 N 
HETATM    6  C   UNL     1      19.509  47.851  47.785  1.00  0.00     0.087 A 
HETATM    7  C   UNL     1      18.521  48.411  48.534  1.00  0.00     0.055 A 
HETATM    8  C   UNL     1      18.500  48.259  50.047  1.00  0.00     0.019 C 
HETATM    9  N   UNL     1      18.481  48.132  51.301  1.00  0.00    -0.096 N 
HETATM   10  H   UNL     1      20.210  47.635  45.855  1.00  0.00     0.166 HD
ENDROOT
BRANCH   1  11
HETATM   11  C   UNL     1      17.172  50.579  48.512  1.00  0.00    -0.011 A 
HETATM   12  C   UNL     1      18.193  51.546  48.571  1.00  0.00     0.076 A 
HETATM   13  C   UNL     1      17.926  52.805  49.125  1.00  0.00     0.037 A 
HETATM   14  C   UNL     1      16.661  53.105  49.634  1.00  0.00     0.003 A 
HETATM   15  C   UNL     1      15.649  52.158  49.586  1.00  0.00     0.001 A 
HETATM   16  C   UNL     1      15.900  50.907  49.028  1.00  0.00     0.011 A 
BRANCH  12  17
HETATM   17  O   UNL     1      19.400  51.191  48.036  1.00  0.00    -0.351 OA
BRANCH  17  18
HETATM   18  C   UNL     1      20.588  51.682  48.654  1.00  0.00     0.171 C 
HETATM   19  C   UNL     1      20.898  50.941  49.945  1.00  0.00     0.034 C 
ENDBRANCH  17  18
ENDBRANCH  12  17
ENDBRANCH   1  11
BRANCH   6  20
HETATM   20  S   UNL     1      20.861  47.065  48.611  1.00  0.00    -0.102 SA
BRANCH  20  21
HETATM   21  C   UNL     1      22.324  48.036  48.181  1.00  0.00     0.184 C 
BRANCH  21  22
HETATM   22  C   UNL     1      23.401  47.939  49.246  1.00  0.00     0.231 C 
HETATM   23  N   UNL     1      23.656  46.646  49.663  1.00  0.00    -0.327 N 
HETATM   24  H   UNL     1      23.091  45.916  49.240  1.00  0.00     0.169 HD
HETATM   25  O   UNL     1      23.934  48.970  49.658  1.00  0.00    -0.272 OA
BRANCH  23  26
HETATM   26  C   UNL     1      24.495  46.234  50.721  1.00  0.00     0.034 A 
HETATM   27  C   UNL     1      25.316  47.097  51.446  1.00  0.00     0.030 A 
HETATM   28  C   UNL     1      26.039  46.630  52.552  1.00  0.00     0.009 A 
HETATM   29  C   UNL     1      25.958  45.291  52.944  1.00  0.00    -0.062 A 
HETATM   30  C   UNL     1      26.696  44.790  54.149  1.00  0.00     0.048 C 
HETATM   31  C   UNL     1      25.167  44.417  52.191  1.00  0.00     0.009 A 
HETATM   32  C   UNL     1      24.445  44.884  51.088  1.00  0.00     0.030 A 
ENDBRANCH  23  26
ENDBRANCH  21  22
ENDBRANCH  20  21
ENDBRANCH   6  20
BRANCH   2  33
HETATM   33  C   UNL     1      16.339  49.988  45.700  1.00  0.00     0.255 C 
HETATM   34  N   UNL     1      16.706  51.272  45.353  1.00  0.00    -0.323 N 
HETATM   35  H   UNL     1      17.682  51.521  45.453  1.00  0.00     0.169 HD
HETATM   36  O   UNL     1      15.245  49.465  45.533  1.00  0.00    -0.268 OA
BRANCH  34  37
HETATM   37  C   UNL     1      15.872  52.275  44.826  1.00  0.00     0.035 A 
HETATM   38  C   UNL     1      15.625  52.419  43.460  1.00  0.00     0.029 A 
HETATM   39  C   UNL     1      14.741  53.401  43.006  1.00  0.00     0.002 A 
HETATM   40  C   UNL     1      14.123  54.263  43.911  1.00  0.00     0.000 A 
HETATM   41  C   UNL     1      14.376  54.132  45.274  1.00  0.00     0.002 A 
HETATM   42  C   UNL     1      15.231  53.129  45.732  1.00  0.00     0.029 A 
ENDBRANCH  34  37
ENDBRANCH   2  33
TORSDOF 9
ENDMDL
