MODEL 1
REMARK VINA RESULT:      -9.3      0.000      0.000
REMARK  6 active torsions:
REMARK  status: ('A' for Active; 'I' for Inactive)
REMARK    1  A    between atoms: C_2  and  O_3 
REMARK    2  A    between atoms: C_2  and  C_4 
REMARK    3  A    between atoms: C_6  and  N_7 
REMARK       I    between atoms: N_7  and  C_8 
REMARK    4  A    between atoms: C_8  and  C_9 
REMARK    5  A    between atoms: C_12  and  C_13 
REMARK    6  A    between atoms: C_18  and  C_19 
ROOT
HETATM    1  C   UNL     1      25.365  45.341  51.311  1.00  0.00     0.096 C 
HETATM    2  C   UNL     1      26.250  44.722  52.176  1.00  0.00     0.138 C 
HETATM    3  N   UNL     1      26.199  43.380  51.872  1.00  0.00    -0.240 N 
HETATM    4  C   UNL     1      26.933  42.349  52.583  1.00  0.00     0.221 C 
HETATM    5  C   UNL     1      28.076  42.974  53.403  1.00  0.00     0.068 C 
HETATM    6  C   UNL     1      27.584  44.217  54.152  1.00  0.00     0.143 C 
HETATM    7  N   UNL     1      27.051  45.187  53.176  1.00  0.00    -0.363 N 
HETATM    8  N   UNL     1      25.233  43.072  50.993  1.00  0.00    -0.181 NA
HETATM    9  C   UNL     1      24.752  44.263  50.629  1.00  0.00     0.160 C 
HETATM   10  H   UNL     1      26.759  46.046  53.650  1.00  0.00     0.162 HD
ENDROOT
BRANCH   1  11
HETATM   11  C   UNL     1      25.063  46.754  51.145  1.00  0.00     0.261 C 
HETATM   12  N   UNL     1      24.418  47.039  49.958  1.00  0.00    -0.323 N 
HETATM   13  H   UNL     1      24.130  46.232  49.416  1.00  0.00     0.169 HD
HETATM   14  O   UNL     1      25.353  47.558  52.023  1.00  0.00    -0.267 OA
BRANCH  12  15
HETATM   15  C   UNL     1      24.059  48.302  49.448  1.00  0.00     0.035 A 
HETATM   16  C   UNL     1      22.825  48.914  49.680  1.00  0.00     0.039 A 
HETATM   17  C   UNL     1      22.533  50.189  49.159  1.00  0.00    -0.028 A 
HETATM   18  C   UNL     1      23.511  50.848  48.403  1.00  0.00     0.010 A 
HETATM   19  C   UNL     1      24.744  50.245  48.163  1.00  0.00     0.003 A 
HETATM   20  C   UNL     1      25.017  48.979  48.683  1.00  0.00     0.029 A 
BRANCH  17  21
HETATM   21  C   UNL     1      21.192  50.825  49.460  1.00  0.00     0.147 C 
HETATM   22  C   UNL     1      20.400  51.086  48.183  1.00  0.00     0.044 C 
BRANCH  21  23
HETATM   23  O   UNL     1      20.420  49.985  50.318  1.00  0.00    -0.391 OA
HETATM   24  H   UNL     1      19.504  50.021  49.997  1.00  0.00     0.210 HD
ENDBRANCH  21  23
ENDBRANCH  17  21
ENDBRANCH  12  15
ENDBRANCH   1  11
BRANCH   4  25
HETATM   25  C   UNL     1      27.494  41.305  51.643  1.00  0.00     0.409 C 
HETATM   26  F   UNL     1      28.013  41.849  50.520  1.00  0.00    -0.169 F 
HETATM   27  F   UNL     1      28.515  40.645  52.258  1.00  0.00    -0.169 F 
HETATM   28  F   UNL     1      26.602  40.360  51.286  1.00  0.00    -0.169 F 
ENDBRANCH   4  25
BRANCH   6  29
HETATM   29  C   UNL     1      28.689  44.781  54.987  1.00  0.00     0.075 A 
HETATM   30  O   UNL     1      29.748  43.955  55.229  1.00  0.00    -0.325 OA
HETATM   31  C   UNL     1      30.631  44.655  55.986  1.00  0.00     0.142 A 
HETATM   32  C   UNL     1      30.156  45.921  56.234  1.00  0.00     0.027 A 
HETATM   33  C   UNL     1      28.899  46.004  55.589  1.00  0.00     0.037 A 
ENDBRANCH   6  29
TORSDOF 6
ENDMDL
MODEL 2
REMARK VINA RESULT:      -9.0      5.214      8.293
REMARK  6 active torsions:
REMARK  status: ('A' for Active; 'I' for Inactive)
REMARK    1  A    between atoms: C_2  and  O_3 
REMARK    2  A    between atoms: C_2  and  C_4 
REMARK    3  A    between atoms: C_6  and  N_7 
REMARK       I    between atoms: N_7  and  C_8 
REMARK    4  A    between atoms: C_8  and  C_9 
REMARK    5  A    between atoms: C_12  and  C_13 
REMARK    6  A    between atoms: C_18  and  C_19 
ROOT
HETATM    1  C   UNL     1      27.802  43.244  52.109  1.00  0.00     0.096 C 
HETATM    2  C   UNL     1      28.163  44.038  53.183  1.00  0.00     0.138 C 
HETATM    3  N   UNL     1      27.339  45.140  53.130  1.00  0.00    -0.240 N 
HETATM    4  C   UNL     1      27.415  46.266  54.044  1.00  0.00     0.221 C 
HETATM    5  C   UNL     1      28.211  45.880  55.304  1.00  0.00     0.068 C 
HETATM    6  C   UNL     1      29.484  45.116  54.924  1.00  0.00     0.143 C 
HETATM    7  N   UNL     1      29.111  43.914  54.155  1.00  0.00    -0.363 N 
HETATM    8  N   UNL     1      26.593  45.192  52.017  1.00  0.00    -0.181 NA
HETATM    9  C   UNL     1      26.849  44.028  51.415  1.00  0.00     0.160 C 
HETATM   10  H   UNL     1      29.943  43.362  53.930  1.00  0.00     0.162 HD
ENDROOT
BRANCH   1  11
HETATM   11  C   UNL     1      28.297  41.934  51.714  1.00  0.00     0.261 C 
HETATM   12  N   UNL     1      27.983  41.601  50.412  1.00  0.00    -0.323 N 
HETATM   13  H   UNL     1      27.562  42.343  49.863  1.00  0.00     0.169 HD
HETATM   14  O   UNL     1      28.948  41.254  52.498  1.00  0.00    -0.267 OA
BRANCH  12  15
HETATM   15  C   UNL     1      28.233  40.387  49.743  1.00  0.00     0.035 A 
HETATM   16  C   UNL     1      28.593  39.201  50.388  1.00  0.00     0.039 A 
HETATM   17  C   UNL     1      28.810  38.013  49.664  1.00  0.00    -0.028 A 
HETATM   18  C   UNL     1      28.648  38.033  48.273  1.00  0.00     0.010 A 
HETATM   19  C   UNL     1      28.293  39.212  47.619  1.00  0.00     0.003 A 
HETATM   20  C   UNL     1      28.086  40.382  48.350  1.00  0.00     0.029 A 
BRANCH  17  21
HETATM   21  C   UNL     1      29.171  36.746  50.409  1.00  0.00     0.147 C 
HETATM   22  C   UNL     1      29.972  37.050  51.669  1.00  0.00     0.044 C 
BRANCH  21  23
HETATM   23  O   UNL     1      27.994  36.025  50.772  1.00  0.00    -0.391 OA
HETATM   24  H   UNL     1      27.349  36.160  50.060  1.00  0.00     0.210 HD
ENDBRANCH  21  23
ENDBRANCH  17  21
ENDBRANCH  12  15
ENDBRANCH   1  11
BRANCH   4  25
HETATM   25  C   UNL     1      26.044  46.765  54.443  1.00  0.00     0.409 C 
HETATM   26  F   UNL     1      26.085  47.567  55.531  1.00  0.00    -0.169 F 
HETATM   27  F   UNL     1      25.524  47.515  53.431  1.00  0.00    -0.169 F 
HETATM   28  F   UNL     1      25.153  45.780  54.673  1.00  0.00    -0.169 F 
ENDBRANCH   4  25
BRANCH   6  29
HETATM   29  C   UNL     1      30.274  44.797  56.153  1.00  0.00     0.075 A 
HETATM   30  O   UNL     1      30.054  45.593  57.239  1.00  0.00    -0.325 OA
HETATM   31  C   UNL     1      30.852  45.133  58.236  1.00  0.00     0.142 A 
HETATM   32  C   UNL     1      31.583  44.049  57.807  1.00  0.00     0.027 A 
HETATM   33  C   UNL     1      31.210  43.831  56.460  1.00  0.00     0.037 A 
ENDBRANCH   6  29
TORSDOF 6
ENDMDL
MODEL 3
REMARK VINA RESULT:      -9.0      4.616      7.495
REMARK  6 active torsions:
REMARK  status: ('A' for Active; 'I' for Inactive)
REMARK    1  A    between atoms: C_2  and  O_3 
REMARK    2  A    between atoms: C_2  and  C_4 
REMARK    3  A    between atoms: C_6  and  N_7 
REMARK       I    between atoms: N_7  and  C_8 
REMARK    4  A    between atoms: C_8  and  C_9 
REMARK    5  A    between atoms: C_12  and  C_13 
REMARK    6  A    between atoms: C_18  and  C_19 
ROOT
HETATM    1  C   UNL     1      26.158  45.240  52.539  1.00  0.00     0.096 C 
HETATM    2  C   UNL     1      27.063  45.578  53.529  1.00  0.00     0.138 C 
HETATM    3  N   UNL     1      26.779  46.881  53.872  1.00  0.00    -0.240 N 
HETATM    4  C   UNL     1      27.531  47.657  54.841  1.00  0.00     0.221 C 
HETATM    5  C   UNL     1      28.380  46.730  55.728  1.00  0.00     0.068 C 
HETATM    6  C   UNL     1      29.091  45.673  54.877  1.00  0.00     0.143 C 
HETATM    7  N   UNL     1      28.082  44.899  54.129  1.00  0.00    -0.363 N 
HETATM    8  N   UNL     1      25.872  47.455  53.067  1.00  0.00    -0.181 NA
HETATM    9  C   UNL     1      25.473  46.451  52.282  1.00  0.00     0.160 C 
HETATM   10  H   UNL     1      28.532  44.155  53.588  1.00  0.00     0.162 HD
ENDROOT
BRANCH   1  11
HETATM   11  C   UNL     1      25.959  43.971  51.855  1.00  0.00     0.261 C 
HETATM   12  N   UNL     1      27.073  43.545  51.159  1.00  0.00    -0.323 N 
HETATM   13  H   UNL     1      27.913  44.094  51.306  1.00  0.00     0.169 HD
HETATM   14  O   UNL     1      24.894  43.374  51.951  1.00  0.00    -0.267 OA
BRANCH  12  15
HETATM   15  C   UNL     1      27.196  42.414  50.328  1.00  0.00     0.035 A 
HETATM   16  C   UNL     1      27.893  41.258  50.685  1.00  0.00     0.039 A 
HETATM   17  C   UNL     1      27.963  40.151  49.817  1.00  0.00    -0.028 A 
HETATM   18  C   UNL     1      27.308  40.222  48.581  1.00  0.00     0.010 A 
HETATM   19  C   UNL     1      26.613  41.373  48.214  1.00  0.00     0.003 A 
HETATM   20  C   UNL     1      26.556  42.463  49.084  1.00  0.00     0.029 A 
BRANCH  17  21
HETATM   21  C   UNL     1      28.706  38.908  50.258  1.00  0.00     0.147 C 
HETATM   22  C   UNL     1      29.675  38.429  49.184  1.00  0.00     0.044 C 
BRANCH  21  23
HETATM   23  O   UNL     1      29.436  39.159  51.458  1.00  0.00    -0.391 OA
HETATM   24  H   UNL     1      29.527  38.308  51.916  1.00  0.00     0.210 HD
ENDBRANCH  21  23
ENDBRANCH  17  21
ENDBRANCH  12  15
ENDBRANCH   1  11
BRANCH   4  25
HETATM   25  C   UNL     1      26.628  48.505  55.710  1.00  0.00     0.409 C 
HETATM   26  F   UNL     1      26.676  48.140  57.011  1.00  0.00    -0.169 F 
HETATM   27  F   UNL     1      27.040  49.803  55.658  1.00  0.00    -0.169 F 
HETATM   28  F   UNL     1      25.339  48.507  55.315  1.00  0.00    -0.169 F 
ENDBRANCH   4  25
BRANCH   6  29
HETATM   29  C   UNL     1      29.954  44.814  55.745  1.00  0.00     0.075 A 
HETATM   30  O   UNL     1      30.237  45.299  56.989  1.00  0.00    -0.325 OA
HETATM   31  C   UNL     1      31.015  44.375  57.608  1.00  0.00     0.142 A 
HETATM   32  C   UNL     1      31.236  43.299  56.780  1.00  0.00     0.027 A 
HETATM   33  C   UNL     1      30.551  43.582  55.574  1.00  0.00     0.037 A 
ENDBRANCH   6  29
TORSDOF 6
ENDMDL
MODEL 4
REMARK VINA RESULT:      -8.6      2.592      8.565
REMARK  6 active torsions:
REMARK  status: ('A' for Active; 'I' for Inactive)
REMARK    1  A    between atoms: C_2  and  O_3 
REMARK    2  A    between atoms: C_2  and  C_4 
REMARK    3  A    between atoms: C_6  and  N_7 
REMARK       I    between atoms: N_7  and  C_8 
REMARK    4  A    between atoms: C_8  and  C_9 
REMARK    5  A    between atoms: C_12  and  C_13 
REMARK    6  A    between atoms: C_18  and  C_19 
ROOT
HETATM    1  C   UNL     1      25.346  45.557  51.533  1.00  0.00     0.096 C 
HETATM    2  C   UNL     1      24.576  46.169  50.560  1.00  0.00     0.138 C 
HETATM    3  N   UNL     1      23.973  45.148  49.860  1.00  0.00    -0.240 N 
HETATM    4  C   UNL     1      23.115  45.341  48.705  1.00  0.00     0.221 C 
HETATM    5  C   UNL     1      22.627  46.799  48.637  1.00  0.00     0.068 C 
HETATM    6  C   UNL     1      23.785  47.767  48.900  1.00  0.00     0.143 C 
HETATM    7  N   UNL     1      24.367  47.473  50.223  1.00  0.00    -0.363 N 
HETATM    8  N   UNL     1      24.423  43.932  50.202  1.00  0.00    -0.181 NA
HETATM    9  C   UNL     1      25.230  44.178  51.238  1.00  0.00     0.160 C 
HETATM   10  H   UNL     1      25.113  48.139  50.441  1.00  0.00     0.162 HD
ENDROOT
BRANCH   1  11
HETATM   11  C   UNL     1      26.148  46.150  52.592  1.00  0.00     0.261 C 
HETATM   12  N   UNL     1      26.936  45.234  53.260  1.00  0.00    -0.323 N 
HETATM   13  H   UNL     1      26.952  44.302  52.859  1.00  0.00     0.169 HD
HETATM   14  O   UNL     1      26.106  47.356  52.802  1.00  0.00    -0.267 OA
BRANCH  12  15
HETATM   15  C   UNL     1      27.761  45.452  54.381  1.00  0.00     0.035 A 
HETATM   16  C   UNL     1      28.934  44.737  54.636  1.00  0.00     0.039 A 
HETATM   17  C   UNL     1      29.728  45.017  55.764  1.00  0.00    -0.028 A 
HETATM   18  C   UNL     1      29.327  46.041  56.632  1.00  0.00     0.010 A 
HETATM   19  C   UNL     1      28.157  46.757  56.388  1.00  0.00     0.003 A 
HETATM   20  C   UNL     1      27.379  46.465  55.268  1.00  0.00     0.029 A 
BRANCH  17  21
HETATM   21  C   UNL     1      31.005  44.236  55.985  1.00  0.00     0.147 C 
HETATM   22  C   UNL     1      31.269  44.007  57.469  1.00  0.00     0.044 C 
BRANCH  21  23
HETATM   23  O   UNL     1      30.939  42.970  55.328  1.00  0.00    -0.391 OA
HETATM   24  H   UNL     1      30.776  43.149  54.388  1.00  0.00     0.210 HD
ENDBRANCH  21  23
ENDBRANCH  17  21
ENDBRANCH  12  15
ENDBRANCH   1  11
BRANCH   4  25
HETATM   25  C   UNL     1      21.925  44.407  48.721  1.00  0.00     0.409 C 
HETATM   26  F   UNL     1      20.888  44.883  47.996  1.00  0.00    -0.169 F 
HETATM   27  F   UNL     1      22.275  43.217  48.158  1.00  0.00    -0.169 F 
HETATM   28  F   UNL     1      21.480  44.116  49.960  1.00  0.00    -0.169 F 
ENDBRANCH   4  25
BRANCH   6  29
HETATM   29  C   UNL     1      23.308  49.179  48.776  1.00  0.00     0.075 A 
HETATM   30  O   UNL     1      22.239  49.528  49.549  1.00  0.00    -0.325 OA
HETATM   31  C   UNL     1      21.977  50.836  49.296  1.00  0.00     0.142 A 
HETATM   32  C   UNL     1      22.865  51.335  48.371  1.00  0.00     0.027 A 
HETATM   33  C   UNL     1      23.726  50.264  48.034  1.00  0.00     0.037 A 
ENDBRANCH   6  29
TORSDOF 6
ENDMDL
MODEL 5
REMARK VINA RESULT:      -8.6      3.696      8.654
REMARK  6 active torsions:
REMARK  status: ('A' for Active; 'I' for Inactive)
REMARK    1  A    between atoms: C_2  and  O_3 
REMARK    2  A    between atoms: C_2  and  C_4 
REMARK    3  A    between atoms: C_6  and  N_7 
REMARK       I    between atoms: N_7  and  C_8 
REMARK    4  A    between atoms: C_8  and  C_9 
REMARK    5  A    between atoms: C_12  and  C_13 
REMARK    6  A    between atoms: C_18  and  C_19 
ROOT
HETATM    1  C   UNL     1      28.238  43.668  53.310  1.00  0.00     0.096 C 
HETATM    2  C   UNL     1      27.328  44.688  53.099  1.00  0.00     0.138 C 
HETATM    3  N   UNL     1      27.336  45.445  54.249  1.00  0.00    -0.240 N 
HETATM    4  C   UNL     1      26.479  46.593  54.482  1.00  0.00     0.221 C 
HETATM    5  C   UNL     1      25.895  47.105  53.153  1.00  0.00     0.068 C 
HETATM    6  C   UNL     1      25.393  45.936  52.300  1.00  0.00     0.143 C 
HETATM    7  N   UNL     1      26.511  45.005  52.055  1.00  0.00    -0.363 N 
HETATM    8  N   UNL     1      28.057  44.897  55.239  1.00  0.00    -0.181 NA
HETATM    9  C   UNL     1      28.629  43.839  54.660  1.00  0.00     0.160 C 
HETATM   10  H   UNL     1      26.210  44.238  51.446  1.00  0.00     0.162 HD
ENDROOT
BRANCH   1  11
HETATM   11  C   UNL     1      28.677  42.613  52.409  1.00  0.00     0.261 C 
HETATM   12  N   UNL     1      27.757  42.319  51.423  1.00  0.00    -0.323 N 
HETATM   13  H   UNL     1      26.960  42.944  51.372  1.00  0.00     0.169 HD
HETATM   14  O   UNL     1      29.779  42.097  52.549  1.00  0.00    -0.267 OA
BRANCH  12  15
HETATM   15  C   UNL     1      27.826  41.305  50.447  1.00  0.00     0.035 A 
HETATM   16  C   UNL     1      28.393  40.048  50.669  1.00  0.00     0.039 A 
HETATM   17  C   UNL     1      28.413  39.068  49.658  1.00  0.00    -0.028 A 
HETATM   18  C   UNL     1      27.842  39.370  48.415  1.00  0.00     0.010 A 
HETATM   19  C   UNL     1      27.277  40.623  48.183  1.00  0.00     0.003 A 
HETATM   20  C   UNL     1      27.268  41.584  49.194  1.00  0.00     0.029 A 
BRANCH  17  21
HETATM   21  C   UNL     1      29.014  37.710  49.952  1.00  0.00     0.147 C 
HETATM   22  C   UNL     1      30.043  37.787  51.074  1.00  0.00     0.044 C 
BRANCH  21  23
HETATM   23  O   UNL     1      27.996  36.781  50.324  1.00  0.00    -0.391 OA
HETATM   24  H   UNL     1      27.758  36.288  49.522  1.00  0.00     0.210 HD
ENDBRANCH  21  23
ENDBRANCH  17  21
ENDBRANCH  12  15
ENDBRANCH   1  11
BRANCH   4  25
HETATM   25  C   UNL     1      27.214  47.716  55.181  1.00  0.00     0.409 C 
HETATM   26  F   UNL     1      28.352  48.063  54.539  1.00  0.00    -0.169 F 
HETATM   27  F   UNL     1      26.428  48.829  55.199  1.00  0.00    -0.169 F 
HETATM   28  F   UNL     1      27.514  47.451  56.468  1.00  0.00    -0.169 F 
ENDBRANCH   4  25
BRANCH   6  29
HETATM   29  C   UNL     1      24.780  46.451  51.037  1.00  0.00     0.075 A 
HETATM   30  O   UNL     1      24.792  47.805  50.866  1.00  0.00    -0.325 OA
HETATM   31  C   UNL     1      24.204  48.059  49.669  1.00  0.00     0.142 A 
HETATM   32  C   UNL     1      23.814  46.886  49.065  1.00  0.00     0.027 A 
HETATM   33  C   UNL     1      24.186  45.845  49.950  1.00  0.00     0.037 A 
ENDBRANCH   6  29
TORSDOF 6
ENDMDL
MODEL 6
REMARK VINA RESULT:      -8.6      2.995      8.590
REMARK  6 active torsions:
REMARK  status: ('A' for Active; 'I' for Inactive)
REMARK    1  A    between atoms: C_2  and  O_3 
REMARK    2  A    between atoms: C_2  and  C_4 
REMARK    3  A    between atoms: C_6  and  N_7 
REMARK       I    between atoms: N_7  and  C_8 
REMARK    4  A    between atoms: C_8  and  C_9 
REMARK    5  A    between atoms: C_12  and  C_13 
REMARK    6  A    between atoms: C_18  and  C_19 
ROOT
HETATM    1  C   UNL     1      25.065  46.013  50.219  1.00  0.00     0.096 C 
HETATM    2  C   UNL     1      23.934  46.564  49.645  1.00  0.00     0.138 C 
HETATM    3  N   UNL     1      23.486  45.637  48.730  1.00  0.00    -0.240 N 
HETATM    4  C   UNL     1      22.345  45.835  47.854  1.00  0.00     0.221 C 
HETATM    5  C   UNL     1      21.466  46.988  48.370  1.00  0.00     0.068 C 
HETATM    6  C   UNL     1      22.332  48.183  48.780  1.00  0.00     0.143 C 
HETATM    7  N   UNL     1      23.288  47.752  49.817  1.00  0.00    -0.363 N 
HETATM    8  N   UNL     1      24.331  44.611  48.557  1.00  0.00    -0.181 NA
HETATM    9  C   UNL     1      25.271  44.821  49.483  1.00  0.00     0.160 C 
HETATM   10  H   UNL     1      23.847  48.546  50.141  1.00  0.00     0.162 HD
ENDROOT
BRANCH   1  11
HETATM   11  C   UNL     1      25.909  46.525  51.288  1.00  0.00     0.261 C 
HETATM   12  N   UNL     1      26.311  45.552  52.181  1.00  0.00    -0.323 N 
HETATM   13  H   UNL     1      26.077  44.601  51.920  1.00  0.00     0.169 HD
HETATM   14  O   UNL     1      26.219  47.710  51.320  1.00  0.00    -0.267 OA
BRANCH  12  15
HETATM   15  C   UNL     1      27.056  45.716  53.365  1.00  0.00     0.035 A 
HETATM   16  C   UNL     1      28.029  44.815  53.806  1.00  0.00     0.039 A 
HETATM   17  C   UNL     1      28.755  45.046  54.989  1.00  0.00    -0.028 A 
HETATM   18  C   UNL     1      28.494  46.210  55.723  1.00  0.00     0.010 A 
HETATM   19  C   UNL     1      27.524  47.113  55.295  1.00  0.00     0.003 A 
HETATM   20  C   UNL     1      26.809  46.868  54.122  1.00  0.00     0.029 A 
BRANCH  17  21
HETATM   21  C   UNL     1      29.819  44.055  55.413  1.00  0.00     0.147 C 
HETATM   22  C   UNL     1      30.251  43.172  54.249  1.00  0.00     0.044 C 
BRANCH  21  23
HETATM   23  O   UNL     1      30.963  44.737  55.924  1.00  0.00    -0.391 OA
HETATM   24  H   UNL     1      31.659  44.070  56.043  1.00  0.00     0.210 HD
ENDBRANCH  21  23
ENDBRANCH  17  21
ENDBRANCH  12  15
ENDBRANCH   1  11
BRANCH   4  25
HETATM   25  C   UNL     1      21.511  44.580  47.720  1.00  0.00     0.409 C 
HETATM   26  F   UNL     1      20.198  44.853  47.541  1.00  0.00    -0.169 F 
HETATM   27  F   UNL     1      21.913  43.884  46.620  1.00  0.00    -0.169 F 
HETATM   28  F   UNL     1      21.632  43.733  48.761  1.00  0.00    -0.169 F 
ENDBRANCH   4  25
BRANCH   6  29
HETATM   29  C   UNL     1      21.462  49.314  49.227  1.00  0.00     0.075 A 
HETATM   30  O   UNL     1      20.212  48.983  49.662  1.00  0.00    -0.325 OA
HETATM   31  C   UNL     1      19.599  50.139  50.026  1.00  0.00     0.142 A 
HETATM   32  C   UNL     1      20.439  51.211  49.833  1.00  0.00     0.027 A 
HETATM   33  C   UNL     1      21.644  50.679  49.316  1.00  0.00     0.037 A 
ENDBRANCH   6  29
TORSDOF 6
ENDMDL
MODEL 7
REMARK VINA RESULT:      -8.4      3.829      8.214
REMARK  6 active torsions:
REMARK  status: ('A' for Active; 'I' for Inactive)
REMARK    1  A    between atoms: C_2  and  O_3 
REMARK    2  A    between atoms: C_2  and  C_4 
REMARK    3  A    between atoms: C_6  and  N_7 
REMARK       I    between atoms: N_7  and  C_8 
REMARK    4  A    between atoms: C_8  and  C_9 
REMARK    5  A    between atoms: C_12  and  C_13 
REMARK    6  A    between atoms: C_18  and  C_19 
ROOT
HETATM    1  C   UNL     1      26.899  43.138  52.514  1.00  0.00     0.096 C 
HETATM    2  C   UNL     1      26.656  44.498  52.454  1.00  0.00     0.138 C 
HETATM    3  N   UNL     1      26.988  44.995  53.694  1.00  0.00    -0.240 N 
HETATM    4  C   UNL     1      26.831  46.383  54.090  1.00  0.00     0.221 C 
HETATM    5  C   UNL     1      26.670  47.280  52.850  1.00  0.00     0.068 C 
HETATM    6  C   UNL     1      25.687  46.652  51.856  1.00  0.00     0.143 C 
HETATM    7  N   UNL     1      26.178  45.315  51.473  1.00  0.00    -0.363 N 
HETATM    8  N   UNL     1      27.268  44.039  54.592  1.00  0.00    -0.181 NA
HETATM    9  C   UNL     1      27.246  42.916  53.868  1.00  0.00     0.160 C 
HETATM   10  H   UNL     1      25.561  44.895  50.773  1.00  0.00     0.162 HD
ENDROOT
BRANCH   1  11
HETATM   11  C   UNL     1      26.783  42.126  51.474  1.00  0.00     0.261 C 
HETATM   12  N   UNL     1      27.984  41.518  51.167  1.00  0.00    -0.323 N 
HETATM   13  H   UNL     1      28.759  41.757  51.775  1.00  0.00     0.169 HD
HETATM   14  O   UNL     1      25.693  41.866  50.979  1.00  0.00    -0.267 OA
BRANCH  12  15
HETATM   15  C   UNL     1      28.242  40.566  50.161  1.00  0.00     0.035 A 
HETATM   16  C   UNL     1      28.021  40.792  48.800  1.00  0.00     0.039 A 
HETATM   17  C   UNL     1      28.319  39.806  47.840  1.00  0.00    -0.028 A 
HETATM   18  C   UNL     1      28.856  38.586  48.271  1.00  0.00     0.010 A 
HETATM   19  C   UNL     1      29.077  38.351  49.626  1.00  0.00     0.003 A 
HETATM   20  C   UNL     1      28.772  39.336  50.566  1.00  0.00     0.029 A 
BRANCH  17  21
HETATM   21  C   UNL     1      28.089  40.105  46.373  1.00  0.00     0.147 C 
HETATM   22  C   UNL     1      26.930  39.289  45.814  1.00  0.00     0.044 C 
BRANCH  21  23
HETATM   23  O   UNL     1      27.812  41.492  46.182  1.00  0.00    -0.391 OA
HETATM   24  H   UNL     1      26.930  41.550  45.781  1.00  0.00     0.210 HD
ENDBRANCH  21  23
ENDBRANCH  17  21
ENDBRANCH  12  15
ENDBRANCH   1  11
BRANCH   4  25
HETATM   25  C   UNL     1      27.998  46.870  54.921  1.00  0.00     0.409 C 
HETATM   26  F   UNL     1      28.324  48.154  54.647  1.00  0.00    -0.169 F 
HETATM   27  F   UNL     1      27.662  46.831  56.240  1.00  0.00    -0.169 F 
HETATM   28  F   UNL     1      29.107  46.113  54.796  1.00  0.00    -0.169 F 
ENDBRANCH   4  25
BRANCH   6  29
HETATM   29  C   UNL     1      25.498  47.560  50.683  1.00  0.00     0.075 A 
HETATM   30  O   UNL     1      24.209  47.866  50.354  1.00  0.00    -0.325 OA
HETATM   31  C   UNL     1      24.261  48.698  49.282  1.00  0.00     0.142 A 
HETATM   32  C   UNL     1      25.566  48.934  48.917  1.00  0.00     0.027 A 
HETATM   33  C   UNL     1      26.367  48.198  49.822  1.00  0.00     0.037 A 
ENDBRANCH   6  29
TORSDOF 6
ENDMDL
MODEL 8
REMARK VINA RESULT:      -8.3      2.598      4.316
REMARK  6 active torsions:
REMARK  status: ('A' for Active; 'I' for Inactive)
REMARK    1  A    between atoms: C_2  and  O_3 
REMARK    2  A    between atoms: C_2  and  C_4 
REMARK    3  A    between atoms: C_6  and  N_7 
REMARK       I    between atoms: N_7  and  C_8 
REMARK    4  A    between atoms: C_8  and  C_9 
REMARK    5  A    between atoms: C_12  and  C_13 
REMARK    6  A    between atoms: C_18  and  C_19 
ROOT
HETATM    1  C   UNL     1      25.191  46.208  51.043  1.00  0.00     0.096 C 
HETATM    2  C   UNL     1      25.929  45.042  51.135  1.00  0.00     0.138 C 
HETATM    3  N   UNL     1      26.551  45.086  52.362  1.00  0.00    -0.240 N 
HETATM    4  C   UNL     1      27.478  44.079  52.849  1.00  0.00     0.221 C 
HETATM    5  C   UNL     1      27.337  42.782  52.033  1.00  0.00     0.068 C 
HETATM    6  C   UNL     1      27.264  43.094  50.534  1.00  0.00     0.143 C 
HETATM    7  N   UNL     1      26.121  43.993  50.285  1.00  0.00    -0.363 N 
HETATM    8  N   UNL     1      26.400  46.260  52.992  1.00  0.00    -0.181 NA
HETATM    9  C   UNL     1      25.549  46.927  52.208  1.00  0.00     0.160 C 
HETATM   10  H   UNL     1      26.024  44.178  49.284  1.00  0.00     0.162 HD
ENDROOT
BRANCH   1  11
HETATM   11  C   UNL     1      24.291  46.658  49.991  1.00  0.00     0.261 C 
HETATM   12  N   UNL     1      23.999  48.005  50.061  1.00  0.00    -0.323 N 
HETATM   13  H   UNL     1      24.532  48.530  50.746  1.00  0.00     0.169 HD
HETATM   14  O   UNL     1      23.890  45.874  49.140  1.00  0.00    -0.267 OA
BRANCH  12  15
HETATM   15  C   UNL     1      23.106  48.742  49.259  1.00  0.00     0.035 A 
HETATM   16  C   UNL     1      21.731  48.500  49.199  1.00  0.00     0.039 A 
HETATM   17  C   UNL     1      20.886  49.286  48.392  1.00  0.00    -0.028 A 
HETATM   18  C   UNL     1      21.447  50.332  47.649  1.00  0.00     0.010 A 
HETATM   19  C   UNL     1      22.818  50.580  47.699  1.00  0.00     0.003 A 
HETATM   20  C   UNL     1      23.642  49.789  48.501  1.00  0.00     0.029 A 
BRANCH  17  21
HETATM   21  C   UNL     1      19.399  49.005  48.380  1.00  0.00     0.147 C 
HETATM   22  C   UNL     1      18.903  48.570  49.754  1.00  0.00     0.044 C 
BRANCH  21  23
HETATM   23  O   UNL     1      18.672  50.163  47.973  1.00  0.00    -0.391 OA
HETATM   24  H   UNL     1      18.627  50.752  48.743  1.00  0.00     0.210 HD
ENDBRANCH  21  23
ENDBRANCH  17  21
ENDBRANCH  12  15
ENDBRANCH   1  11
BRANCH   4  25
HETATM   25  C   UNL     1      27.269  43.781  54.317  1.00  0.00     0.409 C 
HETATM   26  F   UNL     1      25.962  43.782  54.662  1.00  0.00    -0.169 F 
HETATM   27  F   UNL     1      27.740  42.533  54.597  1.00  0.00    -0.169 F 
HETATM   28  F   UNL     1      27.928  44.621  55.141  1.00  0.00    -0.169 F 
ENDBRANCH   4  25
BRANCH   6  29
HETATM   29  C   UNL     1      27.183  41.823  49.752  1.00  0.00     0.075 A 
HETATM   30  O   UNL     1      27.584  41.885  48.448  1.00  0.00    -0.325 OA
HETATM   31  C   UNL     1      27.442  40.639  47.929  1.00  0.00     0.142 A 
HETATM   32  C   UNL     1      26.956  39.773  48.881  1.00  0.00     0.027 A 
HETATM   33  C   UNL     1      26.788  40.537  50.060  1.00  0.00     0.037 A 
ENDBRANCH   6  29
TORSDOF 6
ENDMDL
MODEL 9
REMARK VINA RESULT:      -8.2      4.668      8.478
REMARK  6 active torsions:
REMARK  status: ('A' for Active; 'I' for Inactive)
REMARK    1  A    between atoms: C_2  and  O_3 
REMARK    2  A    between atoms: C_2  and  C_4 
REMARK    3  A    between atoms: C_6  and  N_7 
REMARK       I    between atoms: N_7  and  C_8 
REMARK    4  A    between atoms: C_8  and  C_9 
REMARK    5  A    between atoms: C_12  and  C_13 
REMARK    6  A    between atoms: C_18  and  C_19 
ROOT
HETATM    1  C   UNL     1      26.208  43.795  51.795  1.00  0.00     0.096 C 
HETATM    2  C   UNL     1      25.690  42.981  50.804  1.00  0.00     0.138 C 
HETATM    3  N   UNL     1      24.378  43.367  50.646  1.00  0.00    -0.240 N 
HETATM    4  C   UNL     1      23.439  42.731  49.740  1.00  0.00     0.221 C 
HETATM    5  C   UNL     1      24.190  41.888  48.694  1.00  0.00     0.068 C 
HETATM    6  C   UNL     1      25.290  41.057  49.363  1.00  0.00     0.143 C 
HETATM    7  N   UNL     1      26.218  41.964  50.065  1.00  0.00    -0.363 N 
HETATM    8  N   UNL     1      23.971  44.252  51.569  1.00  0.00    -0.181 NA
HETATM    9  C   UNL     1      25.088  44.535  52.244  1.00  0.00     0.160 C 
HETATM   10  H   UNL     1      26.989  41.434  50.480  1.00  0.00     0.162 HD
ENDROOT
BRANCH   1  11
HETATM   11  C   UNL     1      27.562  43.869  52.324  1.00  0.00     0.261 C 
HETATM   12  N   UNL     1      27.612  43.836  53.703  1.00  0.00    -0.323 N 
HETATM   13  H   UNL     1      26.730  43.644  54.165  1.00  0.00     0.169 HD
HETATM   14  O   UNL     1      28.522  43.924  51.565  1.00  0.00    -0.267 OA
BRANCH  12  15
HETATM   15  C   UNL     1      28.743  43.971  54.533  1.00  0.00     0.035 A 
HETATM   16  C   UNL     1      28.861  44.935  55.537  1.00  0.00     0.039 A 
HETATM   17  C   UNL     1      30.010  45.006  56.349  1.00  0.00    -0.028 A 
HETATM   18  C   UNL     1      31.040  44.080  56.140  1.00  0.00     0.010 A 
HETATM   19  C   UNL     1      30.932  43.117  55.139  1.00  0.00     0.003 A 
HETATM   20  C   UNL     1      29.790  43.062  54.341  1.00  0.00     0.029 A 
BRANCH  17  21
HETATM   21  C   UNL     1      30.082  46.050  57.443  1.00  0.00     0.147 C 
HETATM   22  C   UNL     1      28.709  46.323  58.044  1.00  0.00     0.044 C 
BRANCH  21  23
HETATM   23  O   UNL     1      30.965  45.628  58.481  1.00  0.00    -0.391 OA
HETATM   24  H   UNL     1      30.625  46.001  59.310  1.00  0.00     0.210 HD
ENDBRANCH  21  23
ENDBRANCH  17  21
ENDBRANCH  12  15
ENDBRANCH   1  11
BRANCH   4  25
HETATM   25  C   UNL     1      22.556  43.741  49.040  1.00  0.00     0.409 C 
HETATM   26  F   UNL     1      21.563  44.196  49.838  1.00  0.00    -0.169 F 
HETATM   27  F   UNL     1      23.299  44.828  48.692  1.00  0.00    -0.169 F 
HETATM   28  F   UNL     1      22.007  43.282  47.897  1.00  0.00    -0.169 F 
ENDBRANCH   4  25
BRANCH   6  29
HETATM   29  C   UNL     1      25.974  40.203  48.344  1.00  0.00     0.075 A 
HETATM   30  O   UNL     1      26.393  38.974  48.765  1.00  0.00    -0.325 OA
HETATM   31  C   UNL     1      26.971  38.365  47.698  1.00  0.00     0.142 A 
HETATM   32  C   UNL     1      26.929  39.184  46.594  1.00  0.00     0.027 A 
HETATM   33  C   UNL     1      26.284  40.374  47.010  1.00  0.00     0.037 A 
ENDBRANCH   6  29
TORSDOF 6
ENDMDL
MODEL 10
REMARK VINA RESULT:      -8.1      4.267      9.553
REMARK  6 active torsions:
REMARK  status: ('A' for Active; 'I' for Inactive)
REMARK    1  A    between atoms: C_2  and  O_3 
REMARK    2  A    between atoms: C_2  and  C_4 
REMARK    3  A    between atoms: C_6  and  N_7 
REMARK       I    between atoms: N_7  and  C_8 
REMARK    4  A    between atoms: C_8  and  C_9 
REMARK    5  A    between atoms: C_12  and  C_13 
REMARK    6  A    between atoms: C_18  and  C_19 
ROOT
HETATM    1  C   UNL     1      24.788  45.682  50.675  1.00  0.00     0.096 C 
HETATM    2  C   UNL     1      23.811  46.125  49.801  1.00  0.00     0.138 C 
HETATM    3  N   UNL     1      23.888  47.500  49.815  1.00  0.00    -0.240 N 
HETATM    4  C   UNL     1      22.999  48.378  49.078  1.00  0.00     0.221 C 
HETATM    5  C   UNL     1      22.268  47.596  47.971  1.00  0.00     0.068 C 
HETATM    6  C   UNL     1      21.750  46.259  48.510  1.00  0.00     0.143 C 
HETATM    7  N   UNL     1      22.886  45.480  49.037  1.00  0.00    -0.363 N 
HETATM    8  N   UNL     1      24.725  47.975  50.750  1.00  0.00    -0.181 NA
HETATM    9  C   UNL     1      25.294  46.874  51.247  1.00  0.00     0.160 C 
HETATM   10  H   UNL     1      22.569  44.561  49.360  1.00  0.00     0.162 HD
ENDROOT
BRANCH   1  11
HETATM   11  C   UNL     1      25.195  44.324  51.004  1.00  0.00     0.261 C 
HETATM   12  N   UNL     1      26.475  44.246  51.514  1.00  0.00    -0.323 N 
HETATM   13  H   UNL     1      26.920  45.136  51.709  1.00  0.00     0.169 HD
HETATM   14  O   UNL     1      24.420  43.389  50.846  1.00  0.00    -0.267 OA
BRANCH  12  15
HETATM   15  C   UNL     1      27.205  43.089  51.853  1.00  0.00     0.035 A 
HETATM   16  C   UNL     1      27.418  42.019  50.981  1.00  0.00     0.039 A 
HETATM   17  C   UNL     1      28.174  40.898  51.373  1.00  0.00    -0.028 A 
HETATM   18  C   UNL     1      28.725  40.874  52.661  1.00  0.00     0.010 A 
HETATM   19  C   UNL     1      28.515  41.935  53.540  1.00  0.00     0.003 A 
HETATM   20  C   UNL     1      27.759  43.037  53.138  1.00  0.00     0.029 A 
BRANCH  17  21
HETATM   21  C   UNL     1      28.403  39.774  50.385  1.00  0.00     0.147 C 
HETATM   22  C   UNL     1      28.530  40.302  48.961  1.00  0.00     0.044 C 
BRANCH  21  23
HETATM   23  O   UNL     1      29.586  39.049  50.716  1.00  0.00    -0.391 OA
HETATM   24  H   UNL     1      30.259  39.293  50.060  1.00  0.00     0.210 HD
ENDBRANCH  21  23
ENDBRANCH  17  21
ENDBRANCH  12  15
ENDBRANCH   1  11
BRANCH   4  25
HETATM   25  C   UNL     1      23.737  49.550  48.469  1.00  0.00     0.409 C 
HETATM   26  F   UNL     1      23.801  50.609  49.308  1.00  0.00    -0.169 F 
HETATM   27  F   UNL     1      25.024  49.188  48.207  1.00  0.00    -0.169 F 
HETATM   28  F   UNL     1      23.221  49.967  47.296  1.00  0.00    -0.169 F 
ENDBRANCH   4  25
BRANCH   6  29
HETATM   29  C   UNL     1      20.996  45.536  47.440  1.00  0.00     0.075 A 
HETATM   30  O   UNL     1      20.055  44.641  47.860  1.00  0.00    -0.325 OA
HETATM   31  C   UNL     1      19.488  44.110  46.746  1.00  0.00     0.142 A 
HETATM   32  C   UNL     1      20.051  44.652  45.614  1.00  0.00     0.027 A 
HETATM   33  C   UNL     1      21.026  45.574  46.061  1.00  0.00     0.037 A 
ENDBRANCH   6  29
TORSDOF 6
ENDMDL
