MODEL 1
REMARK VINA RESULT:      -8.8      0.000      0.000
REMARK  8 active torsions:
REMARK  status: ('A' for Active; 'I' for Inactive)
REMARK    1  A    between atoms: C_2  and  O_3 
REMARK    2  A    between atoms: O_3  and  C_4 
REMARK    3  A    between atoms: C_5  and  N_6 
REMARK       I    between atoms: N_6  and  C_7 
REMARK    4  A    between atoms: C_7  and  C_8 
REMARK    5  A    between atoms: N_11  and  C_12 
REMARK    6  A    between atoms: C_12  and  C_13 
REMARK       I    between atoms: C_13  and  N_14 
REMARK    7  A    between atoms: N_14  and  C_15 
REMARK    8  A    between atoms: C_23  and  N_24 
ROOT
HETATM    1  C   UNL     1      25.673  45.677  51.503  1.00  0.00     0.187 A 
HETATM    2  N   UNL     1      25.629  46.843  52.246  1.00  0.00    -0.150 NA
HETATM    3  N   UNL     1      26.175  47.820  51.542  1.00  0.00     0.007 NA
HETATM    4  N   UNL     1      26.566  47.297  50.369  1.00  0.00    -0.248 N 
HETATM    5  C   UNL     1      26.354  45.939  50.318  1.00  0.00     0.151 A 
ENDROOT
BRANCH   1   6
HETATM    6  C   UNL     1      25.155  44.433  52.062  1.00  0.00     0.280 C 
HETATM    7  N   UNL     1      25.855  43.690  52.988  1.00  0.00    -0.319 N 
HETATM    8  H   UNL     1      25.228  43.085  53.504  1.00  0.00     0.169 HD
HETATM    9  O   UNL     1      24.003  44.059  51.816  1.00  0.00    -0.265 OA
BRANCH   7  10
HETATM   10  C   UNL     1      27.228  43.542  53.259  1.00  0.00     0.068 A 
HETATM   11  C   UNL     1      27.934  44.191  54.291  1.00  0.00     0.095 A 
HETATM   12  C   UNL     1      29.291  43.891  54.475  1.00  0.00     0.039 A 
HETATM   13  C   UNL     1      29.953  43.004  53.624  1.00  0.00     0.003 A 
HETATM   14  C   UNL     1      29.273  42.421  52.562  1.00  0.00     0.002 A 
HETATM   15  C   UNL     1      27.921  42.698  52.376  1.00  0.00     0.032 A 
BRANCH  11  16
HETATM   16  O   UNL     1      27.265  45.150  55.006  1.00  0.00    -0.349 OA
BRANCH  16  17
HETATM   17  C   UNL     1      28.038  46.132  55.692  1.00  0.00     0.171 C 
HETATM   18  C   UNL     1      27.959  47.434  54.917  1.00  0.00     0.034 C 
ENDBRANCH  16  17
ENDBRANCH  11  16
ENDBRANCH   7  10
ENDBRANCH   1   6
BRANCH   5  19
HETATM   19  N   UNL     1      26.778  45.172  49.287  1.00  0.00    -0.382 N 
HETATM   20  H   UNL     1      26.427  45.228  48.327  1.00  0.00     0.157 HD
HETATM   21  H   UNL     1      27.426  44.399  49.427  1.00  0.00     0.157 HD
ENDBRANCH   5  19
BRANCH   4  22
HETATM   22  C   UNL     1      27.035  48.194  49.343  1.00  0.00     0.251 C 
BRANCH  22  23
HETATM   23  C   UNL     1      25.929  49.017  48.736  1.00  0.00     0.241 C 
HETATM   24  N   UNL     1      24.679  48.770  49.279  1.00  0.00    -0.326 N 
HETATM   25  H   UNL     1      24.650  48.291  50.174  1.00  0.00     0.169 HD
HETATM   26  O   UNL     1      26.179  49.821  47.839  1.00  0.00    -0.271 OA
BRANCH  24  27
HETATM   27  C   UNL     1      23.441  49.217  48.773  1.00  0.00     0.034 A 
HETATM   28  C   UNL     1      22.514  48.376  48.150  1.00  0.00     0.031 A 
HETATM   29  C   UNL     1      21.281  48.875  47.714  1.00  0.00     0.026 A 
HETATM   30  C   UNL     1      20.974  50.220  47.895  1.00  0.00     0.034 A 
HETATM   31 CL   UNL     1      19.457  50.830  47.365  1.00  0.00    -0.084 Cl
HETATM   32  C   UNL     1      21.888  51.069  48.513  1.00  0.00     0.026 A 
HETATM   33  C   UNL     1      23.116  50.567  48.956  1.00  0.00     0.031 A 
ENDBRANCH  24  27
ENDBRANCH  22  23
ENDBRANCH   4  22
TORSDOF 8
ENDMDL
MODEL 2
REMARK VINA RESULT:      -8.7      1.283      2.389
REMARK  8 active torsions:
REMARK  status: ('A' for Active; 'I' for Inactive)
REMARK    1  A    between atoms: C_2  and  O_3 
REMARK    2  A    between atoms: O_3  and  C_4 
REMARK    3  A    between atoms: C_5  and  N_6 
REMARK       I    between atoms: N_6  and  C_7 
REMARK    4  A    between atoms: C_7  and  C_8 
REMARK    5  A    between atoms: N_11  and  C_12 
REMARK    6  A    between atoms: C_12  and  C_13 
REMARK       I    between atoms: C_13  and  N_14 
REMARK    7  A    between atoms: N_14  and  C_15 
REMARK    8  A    between atoms: C_23  and  N_24 
ROOT
HETATM    1  C   UNL     1      25.619  45.629  51.451  1.00  0.00     0.187 A 
HETATM    2  N   UNL     1      25.551  46.771  52.227  1.00  0.00    -0.150 NA
HETATM    3  N   UNL     1      26.113  47.770  51.567  1.00  0.00     0.007 NA
HETATM    4  N   UNL     1      26.537  47.283  50.390  1.00  0.00    -0.248 N 
HETATM    5  C   UNL     1      26.331  45.928  50.293  1.00  0.00     0.151 A 
ENDROOT
BRANCH   1   6
HETATM    6  C   UNL     1      25.090  44.367  51.958  1.00  0.00     0.280 C 
HETATM    7  N   UNL     1      25.796  43.566  52.830  1.00  0.00    -0.319 N 
HETATM    8  H   UNL     1      25.169  42.947  53.329  1.00  0.00     0.169 HD
HETATM    9  O   UNL     1      23.927  44.025  51.720  1.00  0.00    -0.265 OA
BRANCH   7  10
HETATM   10  C   UNL     1      27.172  43.381  53.063  1.00  0.00     0.068 A 
HETATM   11  C   UNL     1      28.112  42.943  52.111  1.00  0.00     0.095 A 
HETATM   12  C   UNL     1      29.464  42.869  52.478  1.00  0.00     0.039 A 
HETATM   13  C   UNL     1      29.873  43.175  53.778  1.00  0.00     0.003 A 
HETATM   14  C   UNL     1      28.934  43.538  54.735  1.00  0.00     0.002 A 
HETATM   15  C   UNL     1      27.590  43.629  54.381  1.00  0.00     0.032 A 
BRANCH  11  16
HETATM   16  O   UNL     1      27.633  42.529  50.895  1.00  0.00    -0.349 OA
BRANCH  16  17
HETATM   17  C   UNL     1      27.702  41.137  50.589  1.00  0.00     0.171 C 
HETATM   18  C   UNL     1      26.313  40.544  50.731  1.00  0.00     0.034 C 
ENDBRANCH  16  17
ENDBRANCH  11  16
ENDBRANCH   7  10
ENDBRANCH   1   6
BRANCH   5  19
HETATM   19  N   UNL     1      26.785  45.193  49.252  1.00  0.00    -0.382 N 
HETATM   20  H   UNL     1      27.742  45.214  48.889  1.00  0.00     0.157 HD
HETATM   21  H   UNL     1      26.159  44.626  48.684  1.00  0.00     0.157 HD
ENDBRANCH   5  19
BRANCH   4  22
HETATM   22  C   UNL     1      27.030  48.212  49.405  1.00  0.00     0.251 C 
BRANCH  22  23
HETATM   23  C   UNL     1      25.933  49.019  48.761  1.00  0.00     0.241 C 
HETATM   24  N   UNL     1      24.679  48.803  49.308  1.00  0.00    -0.326 N 
HETATM   25  H   UNL     1      24.643  48.360  50.221  1.00  0.00     0.169 HD
HETATM   26  O   UNL     1      26.192  49.785  47.834  1.00  0.00    -0.271 OA
BRANCH  24  27
HETATM   27  C   UNL     1      23.447  49.239  48.780  1.00  0.00     0.034 A 
HETATM   28  C   UNL     1      22.537  48.389  48.144  1.00  0.00     0.031 A 
HETATM   29  C   UNL     1      21.308  48.878  47.685  1.00  0.00     0.026 A 
HETATM   30  C   UNL     1      20.987  50.220  47.857  1.00  0.00     0.034 A 
HETATM   31 CL   UNL     1      19.475  50.818  47.298  1.00  0.00    -0.084 Cl
HETATM   32  C   UNL     1      21.884  51.078  48.487  1.00  0.00     0.026 A 
HETATM   33  C   UNL     1      23.108  50.587  48.953  1.00  0.00     0.031 A 
ENDBRANCH  24  27
ENDBRANCH  22  23
ENDBRANCH   4  22
TORSDOF 8
ENDMDL
MODEL 3
REMARK VINA RESULT:      -8.5      1.598      1.964
REMARK  8 active torsions:
REMARK  status: ('A' for Active; 'I' for Inactive)
REMARK    1  A    between atoms: C_2  and  O_3 
REMARK    2  A    between atoms: O_3  and  C_4 
REMARK    3  A    between atoms: C_5  and  N_6 
REMARK       I    between atoms: N_6  and  C_7 
REMARK    4  A    between atoms: C_7  and  C_8 
REMARK    5  A    between atoms: N_11  and  C_12 
REMARK    6  A    between atoms: C_12  and  C_13 
REMARK       I    between atoms: C_13  and  N_14 
REMARK    7  A    between atoms: N_14  and  C_15 
REMARK    8  A    between atoms: C_23  and  N_24 
ROOT
HETATM    1  C   UNL     1      25.697  45.487  53.317  1.00  0.00     0.187 A 
HETATM    2  N   UNL     1      25.814  46.794  53.754  1.00  0.00    -0.150 NA
HETATM    3  N   UNL     1      25.998  47.580  52.708  1.00  0.00     0.007 NA
HETATM    4  N   UNL     1      26.002  46.799  51.616  1.00  0.00    -0.248 N 
HETATM    5  C   UNL     1      25.900  45.467  51.940  1.00  0.00     0.151 A 
ENDROOT
BRANCH   1   6
HETATM    6  C   UNL     1      25.511  44.407  54.280  1.00  0.00     0.280 C 
HETATM    7  N   UNL     1      26.567  43.700  54.812  1.00  0.00    -0.319 N 
HETATM    8  H   UNL     1      26.296  43.258  55.681  1.00  0.00     0.169 HD
HETATM    9  O   UNL     1      24.395  44.164  54.753  1.00  0.00    -0.265 OA
BRANCH   7  10
HETATM   10  C   UNL     1      27.859  43.404  54.338  1.00  0.00     0.068 A 
HETATM   11  C   UNL     1      29.050  44.026  54.760  1.00  0.00     0.095 A 
HETATM   12  C   UNL     1      30.272  43.575  54.238  1.00  0.00     0.039 A 
HETATM   13  C   UNL     1      30.313  42.561  53.279  1.00  0.00     0.003 A 
HETATM   14  C   UNL     1      29.132  41.999  52.810  1.00  0.00     0.002 A 
HETATM   15  C   UNL     1      27.912  42.427  53.330  1.00  0.00     0.032 A 
BRANCH  11  16
HETATM   16  O   UNL     1      28.936  45.103  55.600  1.00  0.00    -0.349 OA
BRANCH  16  17
HETATM   17  C   UNL     1      30.121  45.591  56.226  1.00  0.00     0.171 C 
HETATM   18  C   UNL     1      29.802  45.913  57.674  1.00  0.00     0.034 C 
ENDBRANCH  16  17
ENDBRANCH  11  16
ENDBRANCH   7  10
ENDBRANCH   1   6
BRANCH   5  19
HETATM   19  N   UNL     1      26.005  44.481  51.019  1.00  0.00    -0.382 N 
HETATM   20  H   UNL     1      26.864  44.224  50.525  1.00  0.00     0.157 HD
HETATM   21  H   UNL     1      25.187  43.980  50.677  1.00  0.00     0.157 HD
ENDBRANCH   5  19
BRANCH   4  22
HETATM   22  C   UNL     1      26.009  47.433  50.322  1.00  0.00     0.251 C 
BRANCH  22  23
HETATM   23  C   UNL     1      24.627  47.611  49.751  1.00  0.00     0.241 C 
HETATM   24  N   UNL     1      24.403  48.859  49.194  1.00  0.00    -0.326 N 
HETATM   25  H   UNL     1      25.220  49.422  48.977  1.00  0.00     0.169 HD
HETATM   26  O   UNL     1      23.812  46.690  49.806  1.00  0.00    -0.271 OA
BRANCH  24  27
HETATM   27  C   UNL     1      23.159  49.387  48.790  1.00  0.00     0.034 A 
HETATM   28  C   UNL     1      22.757  50.700  49.053  1.00  0.00     0.031 A 
HETATM   29  C   UNL     1      21.529  51.176  48.580  1.00  0.00     0.026 A 
HETATM   30  C   UNL     1      20.696  50.338  47.846  1.00  0.00     0.034 A 
HETATM   31 CL   UNL     1      19.190  50.926  47.260  1.00  0.00    -0.084 Cl
HETATM   32  C   UNL     1      21.083  49.028  47.577  1.00  0.00     0.026 A 
HETATM   33  C   UNL     1      22.315  48.556  48.043  1.00  0.00     0.031 A 
ENDBRANCH  24  27
ENDBRANCH  22  23
ENDBRANCH   4  22
TORSDOF 8
ENDMDL
MODEL 4
REMARK VINA RESULT:      -8.5      3.583      9.007
REMARK  8 active torsions:
REMARK  status: ('A' for Active; 'I' for Inactive)
REMARK    1  A    between atoms: C_2  and  O_3 
REMARK    2  A    between atoms: O_3  and  C_4 
REMARK    3  A    between atoms: C_5  and  N_6 
REMARK       I    between atoms: N_6  and  C_7 
REMARK    4  A    between atoms: C_7  and  C_8 
REMARK    5  A    between atoms: N_11  and  C_12 
REMARK    6  A    between atoms: C_12  and  C_13 
REMARK       I    between atoms: C_13  and  N_14 
REMARK    7  A    between atoms: N_14  and  C_15 
REMARK    8  A    between atoms: C_23  and  N_24 
ROOT
HETATM    1  C   UNL     1      25.505  47.379  50.223  1.00  0.00     0.187 A 
HETATM    2  N   UNL     1      25.426  47.792  51.540  1.00  0.00    -0.150 NA
HETATM    3  N   UNL     1      25.254  46.732  52.311  1.00  0.00     0.007 NA
HETATM    4  N   UNL     1      25.221  45.656  51.509  1.00  0.00    -0.248 N 
HETATM    5  C   UNL     1      25.289  46.005  50.181  1.00  0.00     0.151 A 
ENDROOT
BRANCH   1   6
HETATM    6  C   UNL     1      25.670  48.361  49.156  1.00  0.00     0.280 C 
HETATM    7  N   UNL     1      24.707  49.302  48.861  1.00  0.00    -0.319 N 
HETATM    8  H   UNL     1      25.116  50.083  48.363  1.00  0.00     0.169 HD
HETATM    9  O   UNL     1      26.743  48.467  48.552  1.00  0.00    -0.265 OA
BRANCH   7  10
HETATM   10  C   UNL     1      23.309  49.324  49.018  1.00  0.00     0.068 A 
HETATM   11  C   UNL     1      22.423  48.304  48.621  1.00  0.00     0.095 A 
HETATM   12  C   UNL     1      21.056  48.445  48.905  1.00  0.00     0.039 A 
HETATM   13  C   UNL     1      20.566  49.596  49.525  1.00  0.00     0.003 A 
HETATM   14  C   UNL     1      21.432  50.633  49.850  1.00  0.00     0.002 A 
HETATM   15  C   UNL     1      22.794  50.501  49.588  1.00  0.00     0.032 A 
BRANCH  11  16
HETATM   16  O   UNL     1      22.943  47.263  47.898  1.00  0.00    -0.349 OA
BRANCH  16  17
HETATM   17  C   UNL     1      22.192  46.052  47.835  1.00  0.00     0.171 C 
HETATM   18  C   UNL     1      21.802  45.803  46.391  1.00  0.00     0.034 C 
ENDBRANCH  16  17
ENDBRANCH  11  16
ENDBRANCH   7  10
ENDBRANCH   1   6
BRANCH   5  19
HETATM   19  N   UNL     1      25.151  45.104  49.181  1.00  0.00    -0.382 N 
HETATM   20  H   UNL     1      25.448  44.125  49.224  1.00  0.00     0.157 HD
HETATM   21  H   UNL     1      24.819  45.376  48.258  1.00  0.00     0.157 HD
ENDBRANCH   5  19
BRANCH   4  22
HETATM   22  C   UNL     1      25.219  44.350  52.118  1.00  0.00     0.251 C 
BRANCH  22  23
HETATM   23  C   UNL     1      26.079  44.280  53.353  1.00  0.00     0.241 C 
HETATM   24  N   UNL     1      27.399  44.644  53.143  1.00  0.00    -0.326 N 
HETATM   25  H   UNL     1      27.606  45.163  52.295  1.00  0.00     0.169 HD
HETATM   26  O   UNL     1      25.592  43.922  54.425  1.00  0.00    -0.271 OA
BRANCH  24  27
HETATM   27  C   UNL     1      28.471  44.469  54.042  1.00  0.00     0.034 A 
HETATM   28  C   UNL     1      28.771  45.370  55.069  1.00  0.00     0.031 A 
HETATM   29  C   UNL     1      29.821  45.110  55.958  1.00  0.00     0.026 A 
HETATM   30  C   UNL     1      30.577  43.951  55.820  1.00  0.00     0.034 A 
HETATM   31 CL   UNL     1      31.862  43.631  56.917  1.00  0.00    -0.084 Cl
HETATM   32  C   UNL     1      30.290  43.045  54.802  1.00  0.00     0.026 A 
HETATM   33  C   UNL     1      29.235  43.301  53.919  1.00  0.00     0.031 A 
ENDBRANCH  24  27
ENDBRANCH  22  23
ENDBRANCH   4  22
TORSDOF 8
ENDMDL
MODEL 5
REMARK VINA RESULT:      -8.1      2.220      3.501
REMARK  8 active torsions:
REMARK  status: ('A' for Active; 'I' for Inactive)
REMARK    1  A    between atoms: C_2  and  O_3 
REMARK    2  A    between atoms: O_3  and  C_4 
REMARK    3  A    between atoms: C_5  and  N_6 
REMARK       I    between atoms: N_6  and  C_7 
REMARK    4  A    between atoms: C_7  and  C_8 
REMARK    5  A    between atoms: N_11  and  C_12 
REMARK    6  A    between atoms: C_12  and  C_13 
REMARK       I    between atoms: C_13  and  N_14 
REMARK    7  A    between atoms: N_14  and  C_15 
REMARK    8  A    between atoms: C_23  and  N_24 
ROOT
HETATM    1  C   UNL     1      24.737  46.581  50.485  1.00  0.00     0.187 A 
HETATM    2  N   UNL     1      25.870  47.371  50.543  1.00  0.00    -0.150 NA
HETATM    3  N   UNL     1      25.684  48.444  49.794  1.00  0.00     0.007 NA
HETATM    4  N   UNL     1      24.455  48.350  49.260  1.00  0.00    -0.248 N 
HETATM    5  C   UNL     1      23.844  47.164  49.590  1.00  0.00     0.151 A 
ENDROOT
BRANCH   1   6
HETATM    6  C   UNL     1      24.688  45.315  51.208  1.00  0.00     0.280 C 
HETATM    7  N   UNL     1      25.084  45.198  52.523  1.00  0.00    -0.319 N 
HETATM    8  H   UNL     1      24.669  44.377  52.946  1.00  0.00     0.169 HD
HETATM    9  O   UNL     1      24.169  44.315  50.700  1.00  0.00    -0.265 OA
BRANCH   7  10
HETATM   10  C   UNL     1      26.002  45.913  53.315  1.00  0.00     0.068 A 
HETATM   11  C   UNL     1      27.301  45.485  53.651  1.00  0.00     0.095 A 
HETATM   12  C   UNL     1      28.124  46.340  54.399  1.00  0.00     0.039 A 
HETATM   13  C   UNL     1      27.654  47.576  54.850  1.00  0.00     0.003 A 
HETATM   14  C   UNL     1      26.348  47.964  54.579  1.00  0.00     0.002 A 
HETATM   15  C   UNL     1      25.525  47.131  53.825  1.00  0.00     0.032 A 
BRANCH  11  16
HETATM   16  O   UNL     1      27.657  44.210  53.296  1.00  0.00    -0.349 OA
BRANCH  16  17
HETATM   17  C   UNL     1      28.434  43.451  54.220  1.00  0.00     0.171 C 
HETATM   18  C   UNL     1      29.783  43.160  53.590  1.00  0.00     0.034 C 
ENDBRANCH  16  17
ENDBRANCH  11  16
ENDBRANCH   7  10
ENDBRANCH   1   6
BRANCH   5  19
HETATM   19  N   UNL     1      22.652  46.788  49.071  1.00  0.00    -0.382 N 
HETATM   20  H   UNL     1      22.401  46.830  48.080  1.00  0.00     0.157 HD
HETATM   21  H   UNL     1      21.870  46.522  49.666  1.00  0.00     0.157 HD
ENDBRANCH   5  19
BRANCH   4  22
HETATM   22  C   UNL     1      23.935  49.484  48.540  1.00  0.00     0.251 C 
BRANCH  22  23
HETATM   23  C   UNL     1      22.771  50.137  49.239  1.00  0.00     0.241 C 
HETATM   24  N   UNL     1      21.544  49.882  48.650  1.00  0.00    -0.326 N 
HETATM   25  H   UNL     1      21.495  49.101  48.003  1.00  0.00     0.169 HD
HETATM   26  O   UNL     1      22.961  50.826  50.241  1.00  0.00    -0.271 OA
BRANCH  24  27
HETATM   27  C   UNL     1      20.323  50.525  48.942  1.00  0.00     0.034 A 
HETATM   28  C   UNL     1      19.365  50.000  49.815  1.00  0.00     0.031 A 
HETATM   29  C   UNL     1      18.195  50.713  50.099  1.00  0.00     0.026 A 
HETATM   30  C   UNL     1      17.977  51.954  49.508  1.00  0.00     0.034 A 
HETATM   31 CL   UNL     1      16.543  52.832  49.863  1.00  0.00    -0.084 Cl
HETATM   32  C   UNL     1      18.922  52.488  48.636  1.00  0.00     0.026 A 
HETATM   33  C   UNL     1      20.095  51.778  48.359  1.00  0.00     0.031 A 
ENDBRANCH  24  27
ENDBRANCH  22  23
ENDBRANCH   4  22
TORSDOF 8
ENDMDL
MODEL 6
REMARK VINA RESULT:      -8.0      4.661      6.720
REMARK  8 active torsions:
REMARK  status: ('A' for Active; 'I' for Inactive)
REMARK    1  A    between atoms: C_2  and  O_3 
REMARK    2  A    between atoms: O_3  and  C_4 
REMARK    3  A    between atoms: C_5  and  N_6 
REMARK       I    between atoms: N_6  and  C_7 
REMARK    4  A    between atoms: C_7  and  C_8 
REMARK    5  A    between atoms: N_11  and  C_12 
REMARK    6  A    between atoms: C_12  and  C_13 
REMARK       I    between atoms: C_13  and  N_14 
REMARK    7  A    between atoms: N_14  and  C_15 
REMARK    8  A    between atoms: C_23  and  N_24 
ROOT
HETATM    1  C   UNL     1      25.551  45.470  52.748  1.00  0.00     0.187 A 
HETATM    2  N   UNL     1      24.768  44.353  52.974  1.00  0.00    -0.150 NA
HETATM    3  N   UNL     1      24.310  43.910  51.817  1.00  0.00     0.007 NA
HETATM    4  N   UNL     1      24.784  44.724  50.860  1.00  0.00    -0.248 N 
HETATM    5  C   UNL     1      25.501  45.771  51.390  1.00  0.00     0.151 A 
ENDROOT
BRANCH   1   6
HETATM    6  C   UNL     1      26.162  46.175  53.869  1.00  0.00     0.280 C 
HETATM    7  N   UNL     1      27.478  45.987  54.233  1.00  0.00    -0.319 N 
HETATM    8  H   UNL     1      27.814  46.776  54.771  1.00  0.00     0.169 HD
HETATM    9  O   UNL     1      25.552  47.070  54.465  1.00  0.00    -0.265 OA
BRANCH   7  10
HETATM   10  C   UNL     1      28.365  44.903  54.094  1.00  0.00     0.068 A 
HETATM   11  C   UNL     1      29.226  44.416  55.097  1.00  0.00     0.095 A 
HETATM   12  C   UNL     1      30.008  43.283  54.827  1.00  0.00     0.039 A 
HETATM   13  C   UNL     1      29.977  42.671  53.572  1.00  0.00     0.003 A 
HETATM   14  C   UNL     1      29.182  43.197  52.561  1.00  0.00     0.002 A 
HETATM   15  C   UNL     1      28.389  44.313  52.820  1.00  0.00     0.032 A 
BRANCH  11  16
HETATM   16  O   UNL     1      29.312  45.136  56.259  1.00  0.00    -0.349 OA
BRANCH  16  17
HETATM   17  C   UNL     1      30.611  45.489  56.733  1.00  0.00     0.171 C 
HETATM   18  C   UNL     1      30.523  45.755  58.224  1.00  0.00     0.034 C 
ENDBRANCH  16  17
ENDBRANCH  11  16
ENDBRANCH   7  10
ENDBRANCH   1   6
BRANCH   5  19
HETATM   19  N   UNL     1      25.974  46.788  50.633  1.00  0.00    -0.382 N 
HETATM   20  H   UNL     1      25.417  47.574  50.286  1.00  0.00     0.157 HD
HETATM   21  H   UNL     1      26.925  46.786  50.269  1.00  0.00     0.157 HD
ENDBRANCH   5  19
BRANCH   4  22
HETATM   22  C   UNL     1      24.575  44.355  49.483  1.00  0.00     0.251 C 
BRANCH  22  23
HETATM   23  C   UNL     1      25.095  42.979  49.161  1.00  0.00     0.241 C 
HETATM   24  N   UNL     1      26.301  42.674  49.770  1.00  0.00    -0.326 N 
HETATM   25  H   UNL     1      26.583  43.255  50.554  1.00  0.00     0.169 HD
HETATM   26  O   UNL     1      24.457  42.237  48.415  1.00  0.00    -0.271 OA
BRANCH  24  27
HETATM   27  C   UNL     1      27.128  41.567  49.488  1.00  0.00     0.034 A 
HETATM   28  C   UNL     1      27.625  41.282  48.212  1.00  0.00     0.031 A 
HETATM   29  C   UNL     1      28.482  40.195  48.010  1.00  0.00     0.026 A 
HETATM   30  C   UNL     1      28.841  39.384  49.082  1.00  0.00     0.034 A 
HETATM   31 CL   UNL     1      29.898  38.052  48.833  1.00  0.00    -0.084 Cl
HETATM   32  C   UNL     1      28.352  39.655  50.358  1.00  0.00     0.026 A 
HETATM   33  C   UNL     1      27.503  40.748  50.560  1.00  0.00     0.031 A 
ENDBRANCH  24  27
ENDBRANCH  22  23
ENDBRANCH   4  22
TORSDOF 8
ENDMDL
MODEL 7
REMARK VINA RESULT:      -8.0      3.685      9.059
REMARK  8 active torsions:
REMARK  status: ('A' for Active; 'I' for Inactive)
REMARK    1  A    between atoms: C_2  and  O_3 
REMARK    2  A    between atoms: O_3  and  C_4 
REMARK    3  A    between atoms: C_5  and  N_6 
REMARK       I    between atoms: N_6  and  C_7 
REMARK    4  A    between atoms: C_7  and  C_8 
REMARK    5  A    between atoms: N_11  and  C_12 
REMARK    6  A    between atoms: C_12  and  C_13 
REMARK       I    between atoms: C_13  and  N_14 
REMARK    7  A    between atoms: N_14  and  C_15 
REMARK    8  A    between atoms: C_23  and  N_24 
ROOT
HETATM    1  C   UNL     1      23.527  48.375  48.881  1.00  0.00     0.187 A 
HETATM    2  N   UNL     1      24.339  48.662  49.962  1.00  0.00    -0.150 NA
HETATM    3  N   UNL     1      24.701  47.529  50.539  1.00  0.00     0.007 NA
HETATM    4  N   UNL     1      24.132  46.529  49.846  1.00  0.00    -0.248 N 
HETATM    5  C   UNL     1      23.316  47.000  48.845  1.00  0.00     0.151 A 
ENDROOT
BRANCH   1   6
HETATM    6  C   UNL     1      22.965  49.457  48.080  1.00  0.00     0.280 C 
HETATM    7  N   UNL     1      21.708  49.973  48.310  1.00  0.00    -0.319 N 
HETATM    8  H   UNL     1      21.628  50.902  47.917  1.00  0.00     0.169 HD
HETATM    9  O   UNL     1      23.651  50.042  47.234  1.00  0.00    -0.265 OA
BRANCH   7  10
HETATM   10  C   UNL     1      20.535  49.428  48.867  1.00  0.00     0.068 A 
HETATM   11  C   UNL     1      19.787  48.366  48.323  1.00  0.00     0.095 A 
HETATM   12  C   UNL     1      18.673  47.890  49.030  1.00  0.00     0.039 A 
HETATM   13  C   UNL     1      18.275  48.486  50.229  1.00  0.00     0.003 A 
HETATM   14  C   UNL     1      18.972  49.580  50.727  1.00  0.00     0.002 A 
HETATM   15  C   UNL     1      20.089  50.054  50.042  1.00  0.00     0.032 A 
BRANCH  11  16
HETATM   16  O   UNL     1      20.146  47.912  47.081  1.00  0.00    -0.349 OA
BRANCH  16  17
HETATM   17  C   UNL     1      19.115  47.430  46.222  1.00  0.00     0.171 C 
HETATM   18  C   UNL     1      18.533  48.606  45.461  1.00  0.00     0.034 C 
ENDBRANCH  16  17
ENDBRANCH  11  16
ENDBRANCH   7  10
ENDBRANCH   1   6
BRANCH   5  19
HETATM   19  N   UNL     1      22.541  46.186  48.092  1.00  0.00    -0.382 N 
HETATM   20  H   UNL     1      22.314  45.214  48.317  1.00  0.00     0.157 HD
HETATM   21  H   UNL     1      22.203  46.469  47.174  1.00  0.00     0.157 HD
ENDBRANCH   5  19
BRANCH   4  22
HETATM   22  C   UNL     1      24.512  45.175  50.164  1.00  0.00     0.251 C 
BRANCH  22  23
HETATM   23  C   UNL     1      25.800  45.097  50.941  1.00  0.00     0.241 C 
HETATM   24  N   UNL     1      25.631  45.107  52.315  1.00  0.00    -0.326 N 
HETATM   25  H   UNL     1      24.703  44.898  52.669  1.00  0.00     0.169 HD
HETATM   26  O   UNL     1      26.876  45.032  50.347  1.00  0.00    -0.271 OA
BRANCH  24  27
HETATM   27  C   UNL     1      26.644  45.265  53.284  1.00  0.00     0.034 A 
HETATM   28  C   UNL     1      27.555  44.259  53.619  1.00  0.00     0.031 A 
HETATM   29  C   UNL     1      28.567  44.499  54.555  1.00  0.00     0.026 A 
HETATM   30  C   UNL     1      28.669  45.746  55.163  1.00  0.00     0.034 A 
HETATM   31 CL   UNL     1      29.917  46.041  56.308  1.00  0.00    -0.084 Cl
HETATM   32  C   UNL     1      27.768  46.757  54.840  1.00  0.00     0.026 A 
HETATM   33  C   UNL     1      26.762  46.519  53.898  1.00  0.00     0.031 A 
ENDBRANCH  24  27
ENDBRANCH  22  23
ENDBRANCH   4  22
TORSDOF 8
ENDMDL
MODEL 8
REMARK VINA RESULT:      -8.0     11.602     13.668
REMARK  8 active torsions:
REMARK  status: ('A' for Active; 'I' for Inactive)
REMARK    1  A    between atoms: C_2  and  O_3 
REMARK    2  A    between atoms: O_3  and  C_4 
REMARK    3  A    between atoms: C_5  and  N_6 
REMARK       I    between atoms: N_6  and  C_7 
REMARK    4  A    between atoms: C_7  and  C_8 
REMARK    5  A    between atoms: N_11  and  C_12 
REMARK    6  A    between atoms: C_12  and  C_13 
REMARK       I    between atoms: C_13  and  N_14 
REMARK    7  A    between atoms: N_14  and  C_15 
REMARK    8  A    between atoms: C_23  and  N_24 
ROOT
HETATM    1  C   UNL     1      28.011  50.577  39.310  1.00  0.00     0.187 A 
HETATM    2  N   UNL     1      28.276  51.021  38.027  1.00  0.00    -0.150 NA
HETATM    3  N   UNL     1      28.689  52.276  38.085  1.00  0.00     0.007 NA
HETATM    4  N   UNL     1      28.690  52.637  39.379  1.00  0.00    -0.248 N 
HETATM    5  C   UNL     1      28.195  51.642  40.188  1.00  0.00     0.151 A 
ENDROOT
BRANCH   1   6
HETATM    6  C   UNL     1      27.513  49.223  39.527  1.00  0.00     0.280 C 
HETATM    7  N   UNL     1      28.145  48.328  40.363  1.00  0.00    -0.319 N 
HETATM    8  H   UNL     1      27.503  47.603  40.657  1.00  0.00     0.169 HD
HETATM    9  O   UNL     1      26.426  48.865  39.062  1.00  0.00    -0.265 OA
BRANCH   7  10
HETATM   10  C   UNL     1      29.484  48.180  40.774  1.00  0.00     0.068 A 
HETATM   11  C   UNL     1      30.509  47.572  40.023  1.00  0.00     0.095 A 
HETATM   12  C   UNL     1      31.811  47.557  40.543  1.00  0.00     0.039 A 
HETATM   13  C   UNL     1      32.087  48.089  41.805  1.00  0.00     0.003 A 
HETATM   14  C   UNL     1      31.061  48.623  42.574  1.00  0.00     0.002 A 
HETATM   15  C   UNL     1      29.765  48.657  42.064  1.00  0.00     0.032 A 
BRANCH  11  16
HETATM   16  O   UNL     1      30.151  46.950  38.856  1.00  0.00    -0.349 OA
BRANCH  16  17
HETATM   17  C   UNL     1      29.699  45.599  38.930  1.00  0.00     0.171 C 
HETATM   18  C   UNL     1      28.404  45.483  38.148  1.00  0.00     0.034 C 
ENDBRANCH  16  17
ENDBRANCH  11  16
ENDBRANCH   7  10
ENDBRANCH   1   6
BRANCH   5  19
HETATM   19  N   UNL     1      27.984  51.815  41.513  1.00  0.00    -0.382 N 
HETATM   20  H   UNL     1      27.684  51.083  42.163  1.00  0.00     0.157 HD
HETATM   21  H   UNL     1      28.018  52.737  41.944  1.00  0.00     0.157 HD
ENDBRANCH   5  19
BRANCH   4  22
HETATM   22  C   UNL     1      29.269  53.908  39.733  1.00  0.00     0.251 C 
BRANCH  22  23
HETATM   23  C   UNL     1      30.661  53.779  40.294  1.00  0.00     0.241 C 
HETATM   24  N   UNL     1      31.223  52.523  40.128  1.00  0.00    -0.326 N 
HETATM   25  H   UNL     1      30.793  51.912  39.440  1.00  0.00     0.169 HD
HETATM   26  O   UNL     1      31.198  54.742  40.841  1.00  0.00    -0.271 OA
BRANCH  24  27
HETATM   27  C   UNL     1      32.403  52.045  40.733  1.00  0.00     0.034 A 
HETATM   28  C   UNL     1      32.531  51.829  42.109  1.00  0.00     0.031 A 
HETATM   29  C   UNL     1      33.715  51.305  42.639  1.00  0.00     0.026 A 
HETATM   30  C   UNL     1      34.779  51.000  41.796  1.00  0.00     0.034 A 
HETATM   31 CL   UNL     1      36.231  50.351  42.449  1.00  0.00    -0.084 Cl
HETATM   32  C   UNL     1      34.666  51.212  40.424  1.00  0.00     0.026 A 
HETATM   33  C   UNL     1      33.479  51.727  39.894  1.00  0.00     0.031 A 
ENDBRANCH  24  27
ENDBRANCH  22  23
ENDBRANCH   4  22
TORSDOF 8
ENDMDL
MODEL 9
REMARK VINA RESULT:      -7.8      3.998      8.895
REMARK  8 active torsions:
REMARK  status: ('A' for Active; 'I' for Inactive)
REMARK    1  A    between atoms: C_2  and  O_3 
REMARK    2  A    between atoms: O_3  and  C_4 
REMARK    3  A    between atoms: C_5  and  N_6 
REMARK       I    between atoms: N_6  and  C_7 
REMARK    4  A    between atoms: C_7  and  C_8 
REMARK    5  A    between atoms: N_11  and  C_12 
REMARK    6  A    between atoms: C_12  and  C_13 
REMARK       I    between atoms: C_13  and  N_14 
REMARK    7  A    between atoms: N_14  and  C_15 
REMARK    8  A    between atoms: C_23  and  N_24 
ROOT
HETATM    1  C   UNL     1      23.610  45.097  49.489  1.00  0.00     0.187 A 
HETATM    2  N   UNL     1      23.275  44.116  50.403  1.00  0.00    -0.150 NA
HETATM    3  N   UNL     1      23.950  44.323  51.521  1.00  0.00     0.007 NA
HETATM    4  N   UNL     1      24.708  45.415  51.333  1.00  0.00    -0.248 N 
HETATM    5  C   UNL     1      24.601  45.898  50.050  1.00  0.00     0.151 A 
ENDROOT
BRANCH   1   6
HETATM    6  C   UNL     1      23.021  45.087  48.155  1.00  0.00     0.280 C 
HETATM    7  N   UNL     1      22.169  46.077  47.714  1.00  0.00    -0.319 N 
HETATM    8  H   UNL     1      22.144  46.098  46.702  1.00  0.00     0.169 HD
HETATM    9  O   UNL     1      23.363  44.245  47.317  1.00  0.00    -0.265 OA
BRANCH   7  10
HETATM   10  C   UNL     1      21.287  46.949  48.379  1.00  0.00     0.068 A 
HETATM   11  C   UNL     1      21.603  48.243  48.835  1.00  0.00     0.095 A 
HETATM   12  C   UNL     1      20.595  49.020  49.425  1.00  0.00     0.039 A 
HETATM   13  C   UNL     1      19.308  48.508  49.607  1.00  0.00     0.003 A 
HETATM   14  C   UNL     1      19.018  47.205  49.222  1.00  0.00     0.002 A 
HETATM   15  C   UNL     1      20.006  46.428  48.621  1.00  0.00     0.032 A 
BRANCH  11  16
HETATM   16  O   UNL     1      22.913  48.639  48.751  1.00  0.00    -0.349 OA
BRANCH  16  17
HETATM   17  C   UNL     1      23.232  49.712  47.867  1.00  0.00     0.171 C 
HETATM   18  C   UNL     1      23.460  50.964  48.694  1.00  0.00     0.034 C 
ENDBRANCH  16  17
ENDBRANCH  11  16
ENDBRANCH   7  10
ENDBRANCH   1   6
BRANCH   5  19
HETATM   19  N   UNL     1      25.361  46.917  49.587  1.00  0.00    -0.382 N 
HETATM   20  H   UNL     1      25.125  47.513  48.790  1.00  0.00     0.157 HD
HETATM   21  H   UNL     1      26.293  47.098  49.955  1.00  0.00     0.157 HD
ENDBRANCH   5  19
BRANCH   4  22
HETATM   22  C   UNL     1      25.412  45.962  52.466  1.00  0.00     0.251 C 
BRANCH  22  23
HETATM   23  C   UNL     1      26.658  45.189  52.807  1.00  0.00     0.241 C 
HETATM   24  N   UNL     1      26.949  45.157  54.161  1.00  0.00    -0.326 N 
HETATM   25  H   UNL     1      26.200  45.402  54.801  1.00  0.00     0.169 HD
HETATM   26  O   UNL     1      27.318  44.656  51.916  1.00  0.00    -0.271 OA
BRANCH  24  27
HETATM   27  C   UNL     1      28.148  44.708  54.751  1.00  0.00     0.034 A 
HETATM   28  C   UNL     1      28.744  43.479  54.448  1.00  0.00     0.031 A 
HETATM   29  C   UNL     1      29.962  43.116  55.034  1.00  0.00     0.026 A 
HETATM   30  C   UNL     1      30.586  43.978  55.930  1.00  0.00     0.034 A 
HETATM   31 CL   UNL     1      32.085  43.532  56.644  1.00  0.00    -0.084 Cl
HETATM   32  C   UNL     1      30.004  45.204  56.242  1.00  0.00     0.026 A 
HETATM   33  C   UNL     1      28.791  45.570  55.649  1.00  0.00     0.031 A 
ENDBRANCH  24  27
ENDBRANCH  22  23
ENDBRANCH   4  22
TORSDOF 8
ENDMDL
MODEL 10
REMARK VINA RESULT:      -7.6      1.691      2.402
REMARK  8 active torsions:
REMARK  status: ('A' for Active; 'I' for Inactive)
REMARK    1  A    between atoms: C_2  and  O_3 
REMARK    2  A    between atoms: O_3  and  C_4 
REMARK    3  A    between atoms: C_5  and  N_6 
REMARK       I    between atoms: N_6  and  C_7 
REMARK    4  A    between atoms: C_7  and  C_8 
REMARK    5  A    between atoms: N_11  and  C_12 
REMARK    6  A    between atoms: C_12  and  C_13 
REMARK       I    between atoms: C_13  and  N_14 
REMARK    7  A    between atoms: N_14  and  C_15 
REMARK    8  A    between atoms: C_23  and  N_24 
ROOT
HETATM    1  C   UNL     1      26.609  43.736  50.747  1.00  0.00     0.187 A 
HETATM    2  N   UNL     1      27.149  43.906  49.485  1.00  0.00    -0.150 NA
HETATM    3  N   UNL     1      27.094  45.187  49.165  1.00  0.00     0.007 NA
HETATM    4  N   UNL     1      26.529  45.834  50.197  1.00  0.00    -0.248 N 
HETATM    5  C   UNL     1      26.127  44.967  51.185  1.00  0.00     0.151 A 
ENDROOT
BRANCH   1   6
HETATM    6  C   UNL     1      26.524  42.403  51.333  1.00  0.00     0.280 C 
HETATM    7  N   UNL     1      27.098  42.091  52.547  1.00  0.00    -0.319 N 
HETATM    8  H   UNL     1      26.659  41.270  52.946  1.00  0.00     0.169 HD
HETATM    9  O   UNL     1      25.821  41.527  50.818  1.00  0.00    -0.265 OA
BRANCH   7  10
HETATM   10  C   UNL     1      28.203  42.611  53.247  1.00  0.00     0.068 A 
HETATM   11  C   UNL     1      28.142  43.571  54.275  1.00  0.00     0.095 A 
HETATM   12  C   UNL     1      29.328  43.945  54.924  1.00  0.00     0.039 A 
HETATM   13  C   UNL     1      30.560  43.416  54.531  1.00  0.00     0.003 A 
HETATM   14  C   UNL     1      30.626  42.523  53.468  1.00  0.00     0.002 A 
HETATM   15  C   UNL     1      29.454  42.132  52.824  1.00  0.00     0.032 A 
BRANCH  11  16
HETATM   16  O   UNL     1      26.927  44.152  54.525  1.00  0.00    -0.349 OA
BRANCH  16  17
HETATM   17  C   UNL     1      25.961  43.396  55.253  1.00  0.00     0.171 C 
HETATM   18  C   UNL     1      24.622  44.101  55.151  1.00  0.00     0.034 C 
ENDBRANCH  16  17
ENDBRANCH  11  16
ENDBRANCH   7  10
ENDBRANCH   1   6
BRANCH   5  19
HETATM   19  N   UNL     1      25.424  45.369  52.269  1.00  0.00    -0.382 N 
HETATM   20  H   UNL     1      24.403  45.381  52.338  1.00  0.00     0.157 HD
HETATM   21  H   UNL     1      25.880  45.791  53.076  1.00  0.00     0.157 HD
ENDBRANCH   5  19
BRANCH   4  22
HETATM   22  C   UNL     1      26.514  47.275  50.175  1.00  0.00     0.251 C 
BRANCH  22  23
HETATM   23  C   UNL     1      25.120  47.845  50.215  1.00  0.00     0.241 C 
HETATM   24  N   UNL     1      24.686  48.358  49.004  1.00  0.00    -0.326 N 
HETATM   25  H   UNL     1      25.197  48.077  48.173  1.00  0.00     0.169 HD
HETATM   26  O   UNL     1      24.475  47.827  51.263  1.00  0.00    -0.271 OA
BRANCH  24  27
HETATM   27  C   UNL     1      23.535  49.143  48.790  1.00  0.00     0.034 A 
HETATM   28  C   UNL     1      23.547  50.541  48.770  1.00  0.00     0.031 A 
HETATM   29  C   UNL     1      22.376  51.259  48.502  1.00  0.00     0.026 A 
HETATM   30  C   UNL     1      21.186  50.581  48.259  1.00  0.00     0.034 A 
HETATM   31 CL   UNL     1      19.750  51.464  47.925  1.00  0.00    -0.084 Cl
HETATM   32  C   UNL     1      21.158  49.189  48.277  1.00  0.00     0.026 A 
HETATM   33  C   UNL     1      22.331  48.472  48.536  1.00  0.00     0.031 A 
ENDBRANCH  24  27
ENDBRANCH  22  23
ENDBRANCH   4  22
TORSDOF 8
ENDMDL
