MODEL 1
REMARK VINA RESULT:      -9.5      0.000      0.000
REMARK  7 active torsions:
REMARK  status: ('A' for Active; 'I' for Inactive)
REMARK    1  A    between atoms: N_3  and  N_4 
REMARK       I    between atoms: N_4  and  C_5 
REMARK    2  A    between atoms: C_5  and  C_6 
REMARK    3  A    between atoms: C_9  and  O_10 
REMARK    4  A    between atoms: O_10  and  C_11 
REMARK    5  A    between atoms: C_11  and  C_12 
REMARK       I    between atoms: C_12  and  N_13 
REMARK    6  A    between atoms: N_13  and  C_14 
REMARK    7  A    between atoms: C_15  and  O_16 
ROOT
HETATM    1  C   UNL     1      26.226  44.981  52.895  1.00  0.00     0.033 A 
HETATM    2  C   UNL     1      26.189  46.347  52.596  1.00  0.00     0.020 A 
HETATM    3  C   UNL     1      25.365  46.809  51.566  1.00  0.00     0.038 A 
HETATM    4  C   UNL     1      24.590  45.916  50.820  1.00  0.00     0.069 A 
HETATM    5  C   UNL     1      24.605  44.558  51.143  1.00  0.00     0.038 A 
HETATM    6  C   UNL     1      25.417  44.092  52.182  1.00  0.00     0.020 A 
ENDROOT
BRANCH   4   7
HETATM    7  O   UNL     1      23.851  46.487  49.818  1.00  0.00    -0.342 OA
BRANCH   7   8
HETATM    8  C   UNL     1      23.948  47.901  49.686  1.00  0.00     0.278 C 
BRANCH   8   9
HETATM    9  C   UNL     1      22.810  48.526  48.872  1.00  0.00     0.246 C 
HETATM   10  N   UNL     1      21.902  49.193  49.671  1.00  0.00    -0.323 N 
HETATM   11  H   UNL     1      22.016  49.119  50.679  1.00  0.00     0.169 HD
HETATM   12  O   UNL     1      22.756  48.395  47.653  1.00  0.00    -0.271 OA
BRANCH  10  13
HETATM   13  C   UNL     1      20.809  49.992  49.276  1.00  0.00     0.068 A 
HETATM   14  C   UNL     1      19.525  49.415  49.364  1.00  0.00     0.095 A 
HETATM   15  C   UNL     1      18.398  50.173  49.035  1.00  0.00     0.039 A 
HETATM   16  C   UNL     1      18.544  51.494  48.607  1.00  0.00     0.003 A 
HETATM   17  C   UNL     1      19.812  52.060  48.507  1.00  0.00     0.002 A 
HETATM   18  C   UNL     1      20.944  51.312  48.840  1.00  0.00     0.032 A 
BRANCH  14  19
HETATM   19  O   UNL     1      19.486  48.109  49.797  1.00  0.00    -0.354 OA
HETATM   20  C   UNL     1      19.212  47.125  48.804  1.00  0.00     0.210 C 
ENDBRANCH  14  19
ENDBRANCH  10  13
ENDBRANCH   8   9
ENDBRANCH   7   8
ENDBRANCH   4   7
BRANCH   1  21
HETATM   21  C   UNL     1      27.097  44.444  53.972  1.00  0.00     0.270 C 
HETATM   22  N   UNL     1      28.382  44.933  53.967  1.00  0.00    -0.259 N 
HETATM   23  H   UNL     1      28.766  45.468  53.205  1.00  0.00     0.191 HD
HETATM   24  O   UNL     1      26.653  43.606  54.746  1.00  0.00    -0.266 OA
BRANCH  22  25
HETATM   25  N   UNL     1      29.284  44.450  54.839  1.00  0.00    -0.263 N 
HETATM   26  C   UNL     1      29.595  45.076  56.014  1.00  0.00     0.030 A 
HETATM   27  C   UNL     1      28.834  46.233  56.550  1.00  0.00     0.070 C 
HETATM   28  C   UNL     1      30.685  44.407  56.538  1.00  0.00     0.028 A 
HETATM   29  C   UNL     1      31.041  43.380  55.626  1.00  0.00     0.028 A 
HETATM   30  C   UNL     1      30.164  43.442  54.558  1.00  0.00     0.030 A 
HETATM   31  C   UNL     1      30.086  42.595  53.340  1.00  0.00     0.070 C 
ENDBRANCH  22  25
ENDBRANCH   1  21
TORSDOF 7
ENDMDL
MODEL 2
REMARK VINA RESULT:      -8.8      1.378      2.115
REMARK  7 active torsions:
REMARK  status: ('A' for Active; 'I' for Inactive)
REMARK    1  A    between atoms: N_3  and  N_4 
REMARK       I    between atoms: N_4  and  C_5 
REMARK    2  A    between atoms: C_5  and  C_6 
REMARK    3  A    between atoms: C_9  and  O_10 
REMARK    4  A    between atoms: O_10  and  C_11 
REMARK    5  A    between atoms: C_11  and  C_12 
REMARK       I    between atoms: C_12  and  N_13 
REMARK    6  A    between atoms: N_13  and  C_14 
REMARK    7  A    between atoms: C_15  and  O_16 
ROOT
HETATM    1  C   UNL     1      26.758  44.891  52.889  1.00  0.00     0.033 A 
HETATM    2  C   UNL     1      25.849  45.953  52.829  1.00  0.00     0.020 A 
HETATM    3  C   UNL     1      25.239  46.273  51.612  1.00  0.00     0.038 A 
HETATM    4  C   UNL     1      25.542  45.555  50.453  1.00  0.00     0.069 A 
HETATM    5  C   UNL     1      26.425  44.475  50.524  1.00  0.00     0.038 A 
HETATM    6  C   UNL     1      27.028  44.141  51.741  1.00  0.00     0.020 A 
ENDROOT
BRANCH   4   7
HETATM    7  O   UNL     1      24.904  45.986  49.320  1.00  0.00    -0.342 OA
BRANCH   7   8
HETATM    8  C   UNL     1      23.528  45.640  49.197  1.00  0.00     0.278 C 
BRANCH   8   9
HETATM    9  C   UNL     1      22.678  46.720  48.518  1.00  0.00     0.246 C 
HETATM   10  N   UNL     1      22.314  47.724  49.393  1.00  0.00    -0.323 N 
HETATM   11  H   UNL     1      22.547  47.602  50.375  1.00  0.00     0.169 HD
HETATM   12  O   UNL     1      22.371  46.633  47.333  1.00  0.00    -0.271 OA
BRANCH  10  13
HETATM   13  C   UNL     1      21.652  48.937  49.108  1.00  0.00     0.068 A 
HETATM   14  C   UNL     1      22.446  50.099  49.028  1.00  0.00     0.095 A 
HETATM   15  C   UNL     1      21.857  51.323  48.699  1.00  0.00     0.039 A 
HETATM   16  C   UNL     1      20.483  51.397  48.463  1.00  0.00     0.003 A 
HETATM   17  C   UNL     1      19.696  50.251  48.554  1.00  0.00     0.002 A 
HETATM   18  C   UNL     1      20.278  49.023  48.877  1.00  0.00     0.032 A 
BRANCH  14  19
HETATM   19  O   UNL     1      23.789  49.923  49.277  1.00  0.00    -0.354 OA
HETATM   20  C   UNL     1      24.665  50.124  48.171  1.00  0.00     0.210 C 
ENDBRANCH  14  19
ENDBRANCH  10  13
ENDBRANCH   8   9
ENDBRANCH   7   8
ENDBRANCH   4   7
BRANCH   1  21
HETATM   21  C   UNL     1      27.441  44.523  54.156  1.00  0.00     0.270 C 
HETATM   22  N   UNL     1      28.660  45.127  54.347  1.00  0.00    -0.259 N 
HETATM   23  H   UNL     1      29.145  45.634  53.623  1.00  0.00     0.191 HD
HETATM   24  O   UNL     1      26.918  43.712  54.909  1.00  0.00    -0.266 OA
BRANCH  22  25
HETATM   25  N   UNL     1      29.409  44.799  55.415  1.00  0.00    -0.263 N 
HETATM   26  C   UNL     1      29.432  45.540  56.564  1.00  0.00     0.030 A 
HETATM   27  C   UNL     1      28.491  46.655  56.837  1.00  0.00     0.070 C 
HETATM   28  C   UNL     1      30.448  45.019  57.345  1.00  0.00     0.028 A 
HETATM   29  C   UNL     1      31.057  43.966  56.615  1.00  0.00     0.028 A 
HETATM   30  C   UNL     1      30.405  43.862  55.399  1.00  0.00     0.030 A 
HETATM   31  C   UNL     1      30.635  42.923  54.272  1.00  0.00     0.070 C 
ENDBRANCH  22  25
ENDBRANCH   1  21
TORSDOF 7
ENDMDL
MODEL 3
REMARK VINA RESULT:      -8.8      1.427      2.834
REMARK  7 active torsions:
REMARK  status: ('A' for Active; 'I' for Inactive)
REMARK    1  A    between atoms: N_3  and  N_4 
REMARK       I    between atoms: N_4  and  C_5 
REMARK    2  A    between atoms: C_5  and  C_6 
REMARK    3  A    between atoms: C_9  and  O_10 
REMARK    4  A    between atoms: O_10  and  C_11 
REMARK    5  A    between atoms: C_11  and  C_12 
REMARK       I    between atoms: C_12  and  N_13 
REMARK    6  A    between atoms: N_13  and  C_14 
REMARK    7  A    between atoms: C_15  and  O_16 
ROOT
HETATM    1  C   UNL     1      26.047  44.125  52.695  1.00  0.00     0.033 A 
HETATM    2  C   UNL     1      25.512  43.055  51.970  1.00  0.00     0.020 A 
HETATM    3  C   UNL     1      24.543  43.297  50.992  1.00  0.00     0.038 A 
HETATM    4  C   UNL     1      24.091  44.596  50.743  1.00  0.00     0.069 A 
HETATM    5  C   UNL     1      24.651  45.664  51.446  1.00  0.00     0.038 A 
HETATM    6  C   UNL     1      25.631  45.430  52.416  1.00  0.00     0.020 A 
ENDROOT
BRANCH   4   7
HETATM    7  O   UNL     1      23.118  44.698  49.785  1.00  0.00    -0.342 OA
BRANCH   7   8
HETATM    8  C   UNL     1      23.518  45.240  48.531  1.00  0.00     0.278 C 
BRANCH   8   9
HETATM    9  C   UNL     1      22.681  46.443  48.082  1.00  0.00     0.246 C 
HETATM   10  N   UNL     1      22.506  47.365  49.096  1.00  0.00    -0.323 N 
HETATM   11  H   UNL     1      22.845  47.117  50.022  1.00  0.00     0.169 HD
HETATM   12  O   UNL     1      22.228  46.511  46.943  1.00  0.00    -0.271 OA
BRANCH  10  13
HETATM   13  C   UNL     1      21.913  48.642  49.025  1.00  0.00     0.068 A 
HETATM   14  C   UNL     1      22.778  49.756  49.081  1.00  0.00     0.095 A 
HETATM   15  C   UNL     1      22.256  51.047  48.965  1.00  0.00     0.039 A 
HETATM   16  C   UNL     1      20.882  51.236  48.807  1.00  0.00     0.003 A 
HETATM   17  C   UNL     1      20.027  50.137  48.765  1.00  0.00     0.002 A 
HETATM   18  C   UNL     1      20.540  48.842  48.874  1.00  0.00     0.032 A 
BRANCH  14  19
HETATM   19  O   UNL     1      24.115  49.466  49.237  1.00  0.00    -0.354 OA
HETATM   20  C   UNL     1      24.981  49.924  48.203  1.00  0.00     0.210 C 
ENDBRANCH  14  19
ENDBRANCH  10  13
ENDBRANCH   8   9
ENDBRANCH   7   8
ENDBRANCH   4   7
BRANCH   1  21
HETATM   21  C   UNL     1      27.068  43.914  53.753  1.00  0.00     0.270 C 
HETATM   22  N   UNL     1      28.231  44.625  53.578  1.00  0.00    -0.259 N 
HETATM   23  H   UNL     1      28.459  45.110  52.723  1.00  0.00     0.191 HD
HETATM   24  O   UNL     1      26.841  43.126  54.662  1.00  0.00    -0.266 OA
BRANCH  22  25
HETATM   25  N   UNL     1      29.260  44.443  54.423  1.00  0.00    -0.263 N 
HETATM   26  C   UNL     1      30.120  43.383  54.334  1.00  0.00     0.030 A 
HETATM   27  C   UNL     1      30.140  42.442  53.186  1.00  0.00     0.070 C 
HETATM   28  C   UNL     1      30.907  43.420  55.471  1.00  0.00     0.028 A 
HETATM   29  C   UNL     1      30.471  44.514  56.262  1.00  0.00     0.028 A 
HETATM   30  C   UNL     1      29.422  45.125  55.597  1.00  0.00     0.030 A 
HETATM   31  C   UNL     1      28.617  46.314  55.978  1.00  0.00     0.070 C 
ENDBRANCH  22  25
ENDBRANCH   1  21
TORSDOF 7
ENDMDL
MODEL 4
REMARK VINA RESULT:      -8.7      1.489     10.355
REMARK  7 active torsions:
REMARK  status: ('A' for Active; 'I' for Inactive)
REMARK    1  A    between atoms: N_3  and  N_4 
REMARK       I    between atoms: N_4  and  C_5 
REMARK    2  A    between atoms: C_5  and  C_6 
REMARK    3  A    between atoms: C_9  and  O_10 
REMARK    4  A    between atoms: O_10  and  C_11 
REMARK    5  A    between atoms: C_11  and  C_12 
REMARK       I    between atoms: C_12  and  N_13 
REMARK    6  A    between atoms: N_13  and  C_14 
REMARK    7  A    between atoms: C_15  and  O_16 
ROOT
HETATM    1  C   UNL     1      23.328  46.416  49.356  1.00  0.00     0.033 A 
HETATM    2  C   UNL     1      24.452  46.707  50.136  1.00  0.00     0.020 A 
HETATM    3  C   UNL     1      25.157  45.667  50.749  1.00  0.00     0.038 A 
HETATM    4  C   UNL     1      24.741  44.341  50.603  1.00  0.00     0.069 A 
HETATM    5  C   UNL     1      23.638  44.052  49.797  1.00  0.00     0.038 A 
HETATM    6  C   UNL     1      22.936  45.087  49.170  1.00  0.00     0.020 A 
ENDROOT
BRANCH   4   7
HETATM    7  O   UNL     1      25.495  43.418  51.277  1.00  0.00    -0.342 OA
BRANCH   7   8
HETATM    8  C   UNL     1      26.870  43.738  51.464  1.00  0.00     0.278 C 
BRANCH   8   9
HETATM    9  C   UNL     1      27.355  43.562  52.908  1.00  0.00     0.246 C 
HETATM   10  N   UNL     1      28.632  44.056  53.093  1.00  0.00    -0.323 N 
HETATM   11  H   UNL     1      29.137  44.377  52.271  1.00  0.00     0.169 HD
HETATM   12  O   UNL     1      26.650  43.018  53.752  1.00  0.00    -0.271 OA
BRANCH  10  13
HETATM   13  C   UNL     1      29.352  44.189  54.298  1.00  0.00     0.068 A 
HETATM   14  C   UNL     1      29.011  45.273  55.134  1.00  0.00     0.095 A 
HETATM   15  C   UNL     1      29.653  45.430  56.366  1.00  0.00     0.039 A 
HETATM   16  C   UNL     1      30.640  44.525  56.761  1.00  0.00     0.003 A 
HETATM   17  C   UNL     1      30.987  43.463  55.930  1.00  0.00     0.002 A 
HETATM   18  C   UNL     1      30.345  43.294  54.700  1.00  0.00     0.032 A 
BRANCH  14  19
HETATM   19  O   UNL     1      28.026  46.108  54.657  1.00  0.00    -0.354 OA
HETATM   20  C   UNL     1      28.208  47.499  54.904  1.00  0.00     0.210 C 
ENDBRANCH  14  19
ENDBRANCH  10  13
ENDBRANCH   8   9
ENDBRANCH   7   8
ENDBRANCH   4   7
BRANCH   1  21
HETATM   21  C   UNL     1      22.540  47.489  48.698  1.00  0.00     0.270 C 
HETATM   22  N   UNL     1      22.097  48.477  49.545  1.00  0.00    -0.259 N 
HETATM   23  H   UNL     1      22.139  48.402  50.549  1.00  0.00     0.191 HD
HETATM   24  O   UNL     1      22.308  47.419  47.498  1.00  0.00    -0.266 OA
BRANCH  22  25
HETATM   25  N   UNL     1      21.298  49.451  49.076  1.00  0.00    -0.263 N 
HETATM   26  C   UNL     1      21.767  50.668  48.665  1.00  0.00     0.030 A 
HETATM   27  C   UNL     1      23.211  50.971  48.496  1.00  0.00     0.070 C 
HETATM   28  C   UNL     1      20.657  51.462  48.446  1.00  0.00     0.028 A 
HETATM   29  C   UNL     1      19.507  50.697  48.771  1.00  0.00     0.028 A 
HETATM   30  C   UNL     1      19.934  49.448  49.187  1.00  0.00     0.030 A 
HETATM   31  C   UNL     1      19.145  48.270  49.627  1.00  0.00     0.070 C 
ENDBRANCH  22  25
ENDBRANCH   1  21
TORSDOF 7
ENDMDL
MODEL 5
REMARK VINA RESULT:      -8.6      1.720      2.607
REMARK  7 active torsions:
REMARK  status: ('A' for Active; 'I' for Inactive)
REMARK    1  A    between atoms: N_3  and  N_4 
REMARK       I    between atoms: N_4  and  C_5 
REMARK    2  A    between atoms: C_5  and  C_6 
REMARK    3  A    between atoms: C_9  and  O_10 
REMARK    4  A    between atoms: O_10  and  C_11 
REMARK    5  A    between atoms: C_11  and  C_12 
REMARK       I    between atoms: C_12  and  N_13 
REMARK    6  A    between atoms: N_13  and  C_14 
REMARK    7  A    between atoms: C_15  and  O_16 
ROOT
HETATM    1  C   UNL     1      24.986  45.442  50.967  1.00  0.00     0.033 A 
HETATM    2  C   UNL     1      23.933  45.090  50.116  1.00  0.00     0.020 A 
HETATM    3  C   UNL     1      23.447  46.022  49.195  1.00  0.00     0.038 A 
HETATM    4  C   UNL     1      23.992  47.307  49.127  1.00  0.00     0.069 A 
HETATM    5  C   UNL     1      25.064  47.644  49.956  1.00  0.00     0.038 A 
HETATM    6  C   UNL     1      25.564  46.711  50.871  1.00  0.00     0.020 A 
ENDROOT
BRANCH   4   7
HETATM    7  O   UNL     1      23.408  48.137  48.207  1.00  0.00    -0.342 OA
BRANCH   7   8
HETATM    8  C   UNL     1      23.740  49.519  48.301  1.00  0.00     0.278 C 
BRANCH   8   9
HETATM    9  C   UNL     1      22.666  50.367  48.993  1.00  0.00     0.246 C 
HETATM   10  N   UNL     1      21.444  50.282  48.357  1.00  0.00    -0.323 N 
HETATM   11  H   UNL     1      21.403  49.773  47.478  1.00  0.00     0.169 HD
HETATM   12  O   UNL     1      22.932  51.040  49.984  1.00  0.00    -0.271 OA
BRANCH  10  13
HETATM   13  C   UNL     1      20.203  50.809  48.771  1.00  0.00     0.068 A 
HETATM   14  C   UNL     1      19.390  49.983  49.575  1.00  0.00     0.095 A 
HETATM   15  C   UNL     1      18.171  50.467  50.059  1.00  0.00     0.039 A 
HETATM   16  C   UNL     1      17.754  51.760  49.738  1.00  0.00     0.003 A 
HETATM   17  C   UNL     1      18.551  52.571  48.934  1.00  0.00     0.002 A 
HETATM   18  C   UNL     1      19.773  52.098  48.450  1.00  0.00     0.032 A 
BRANCH  14  19
HETATM   19  O   UNL     1      19.888  48.727  49.837  1.00  0.00    -0.354 OA
HETATM   20  C   UNL     1      19.140  47.632  49.316  1.00  0.00     0.210 C 
ENDBRANCH  14  19
ENDBRANCH  10  13
ENDBRANCH   8   9
ENDBRANCH   7   8
ENDBRANCH   4   7
BRANCH   1  21
HETATM   21  C   UNL     1      25.525  44.489  51.971  1.00  0.00     0.270 C 
HETATM   22  N   UNL     1      26.874  44.246  51.866  1.00  0.00    -0.259 N 
HETATM   23  H   UNL     1      27.427  44.538  51.075  1.00  0.00     0.191 HD
HETATM   24  O   UNL     1      24.765  43.968  52.778  1.00  0.00    -0.266 OA
BRANCH  22  25
HETATM   25  N   UNL     1      27.453  43.332  52.663  1.00  0.00    -0.263 N 
HETATM   26  C   UNL     1      28.192  43.664  53.765  1.00  0.00     0.030 A 
HETATM   27  C   UNL     1      28.263  45.041  54.316  1.00  0.00     0.070 C 
HETATM   28  C   UNL     1      28.783  42.495  54.207  1.00  0.00     0.028 A 
HETATM   29  C   UNL     1      28.406  41.456  53.317  1.00  0.00     0.028 A 
HETATM   30  C   UNL     1      27.592  42.009  52.344  1.00  0.00     0.030 A 
HETATM   31  C   UNL     1      26.919  41.365  51.187  1.00  0.00     0.070 C 
ENDBRANCH  22  25
ENDBRANCH   1  21
TORSDOF 7
ENDMDL
MODEL 6
REMARK VINA RESULT:      -8.5      1.614      9.914
REMARK  7 active torsions:
REMARK  status: ('A' for Active; 'I' for Inactive)
REMARK    1  A    between atoms: N_3  and  N_4 
REMARK       I    between atoms: N_4  and  C_5 
REMARK    2  A    between atoms: C_5  and  C_6 
REMARK    3  A    between atoms: C_9  and  O_10 
REMARK    4  A    between atoms: O_10  and  C_11 
REMARK    5  A    between atoms: C_11  and  C_12 
REMARK       I    between atoms: C_12  and  N_13 
REMARK    6  A    between atoms: N_13  and  C_14 
REMARK    7  A    between atoms: C_15  and  O_16 
ROOT
HETATM    1  C   UNL     1      23.185  46.778  48.889  1.00  0.00     0.033 A 
HETATM    2  C   UNL     1      24.382  47.054  49.559  1.00  0.00     0.020 A 
HETATM    3  C   UNL     1      25.223  46.002  49.934  1.00  0.00     0.038 A 
HETATM    4  C   UNL     1      24.872  44.677  49.660  1.00  0.00     0.069 A 
HETATM    5  C   UNL     1      23.693  44.409  48.962  1.00  0.00     0.038 A 
HETATM    6  C   UNL     1      22.854  45.458  48.572  1.00  0.00     0.020 A 
ENDROOT
BRANCH   4   7
HETATM    7  O   UNL     1      25.763  43.737  50.107  1.00  0.00    -0.342 OA
BRANCH   7   8
HETATM    8  C   UNL     1      25.407  43.043  51.298  1.00  0.00     0.278 C 
BRANCH   8   9
HETATM    9  C   UNL     1      25.636  43.855  52.578  1.00  0.00     0.246 C 
HETATM   10  N   UNL     1      26.977  44.073  52.825  1.00  0.00    -0.323 N 
HETATM   11  H   UNL     1      27.649  43.610  52.219  1.00  0.00     0.169 HD
HETATM   12  O   UNL     1      24.693  44.221  53.274  1.00  0.00    -0.271 OA
BRANCH  10  13
HETATM   13  C   UNL     1      27.563  44.880  53.822  1.00  0.00     0.068 A 
HETATM   14  C   UNL     1      28.660  44.338  54.524  1.00  0.00     0.095 A 
HETATM   15  C   UNL     1      29.316  45.107  55.490  1.00  0.00     0.039 A 
HETATM   16  C   UNL     1      28.879  46.403  55.768  1.00  0.00     0.003 A 
HETATM   17  C   UNL     1      27.788  46.934  55.084  1.00  0.00     0.002 A 
HETATM   18  C   UNL     1      27.129  46.175  54.114  1.00  0.00     0.032 A 
BRANCH  14  19
HETATM   19  O   UNL     1      29.016  43.054  54.177  1.00  0.00    -0.354 OA
HETATM   20  C   UNL     1      30.369  42.864  53.773  1.00  0.00     0.210 C 
ENDBRANCH  14  19
ENDBRANCH  10  13
ENDBRANCH   8   9
ENDBRANCH   7   8
ENDBRANCH   4   7
BRANCH   1  21
HETATM   21  C   UNL     1      22.255  47.862  48.483  1.00  0.00     0.270 C 
HETATM   22  N   UNL     1      21.807  48.650  49.517  1.00  0.00    -0.259 N 
HETATM   23  H   UNL     1      21.943  48.417  50.488  1.00  0.00     0.191 HD
HETATM   24  O   UNL     1      21.925  47.967  47.309  1.00  0.00    -0.266 OA
BRANCH  22  25
HETATM   25  N   UNL     1      20.890  49.604  49.281  1.00  0.00    -0.263 N 
HETATM   26  C   UNL     1      21.219  50.886  48.937  1.00  0.00     0.030 A 
HETATM   27  C   UNL     1      22.598  51.309  48.586  1.00  0.00     0.070 C 
HETATM   28  C   UNL     1      20.045  51.616  48.974  1.00  0.00     0.028 A 
HETATM   29  C   UNL     1      19.006  50.742  49.385  1.00  0.00     0.028 A 
HETATM   30  C   UNL     1      19.563  49.492  49.595  1.00  0.00     0.030 A 
HETATM   31  C   UNL     1      18.921  48.222  50.020  1.00  0.00     0.070 C 
ENDBRANCH  22  25
ENDBRANCH   1  21
TORSDOF 7
ENDMDL
MODEL 7
REMARK VINA RESULT:      -8.3      2.024      2.836
REMARK  7 active torsions:
REMARK  status: ('A' for Active; 'I' for Inactive)
REMARK    1  A    between atoms: N_3  and  N_4 
REMARK       I    between atoms: N_4  and  C_5 
REMARK    2  A    between atoms: C_5  and  C_6 
REMARK    3  A    between atoms: C_9  and  O_10 
REMARK    4  A    between atoms: O_10  and  C_11 
REMARK    5  A    between atoms: C_11  and  C_12 
REMARK       I    between atoms: C_12  and  N_13 
REMARK    6  A    between atoms: N_13  and  C_14 
REMARK    7  A    between atoms: C_15  and  O_16 
ROOT
HETATM    1  C   UNL     1      25.682  43.830  50.727  1.00  0.00     0.033 A 
HETATM    2  C   UNL     1      25.576  44.669  49.613  1.00  0.00     0.020 A 
HETATM    3  C   UNL     1      24.401  44.670  48.856  1.00  0.00     0.038 A 
HETATM    4  C   UNL     1      23.337  43.828  49.192  1.00  0.00     0.069 A 
HETATM    5  C   UNL     1      23.434  43.016  50.324  1.00  0.00     0.038 A 
HETATM    6  C   UNL     1      24.602  43.021  51.093  1.00  0.00     0.020 A 
ENDROOT
BRANCH   4   7
HETATM    7  O   UNL     1      22.255  43.898  48.355  1.00  0.00    -0.342 OA
BRANCH   7   8
HETATM    8  C   UNL     1      21.248  44.845  48.699  1.00  0.00     0.278 C 
BRANCH   8   9
HETATM    9  C   UNL     1      21.460  46.227  48.071  1.00  0.00     0.246 C 
HETATM   10  N   UNL     1      21.750  47.191  49.017  1.00  0.00    -0.323 N 
HETATM   11  H   UNL     1      21.695  46.923  49.996  1.00  0.00     0.169 HD
HETATM   12  O   UNL     1      21.349  46.397  46.860  1.00  0.00    -0.271 OA
BRANCH  10  13
HETATM   13  C   UNL     1      22.131  48.533  48.810  1.00  0.00     0.068 A 
HETATM   14  C   UNL     1      21.168  49.525  49.091  1.00  0.00     0.095 A 
HETATM   15  C   UNL     1      21.500  50.876  48.955  1.00  0.00     0.039 A 
HETATM   16  C   UNL     1      22.778  51.242  48.529  1.00  0.00     0.003 A 
HETATM   17  C   UNL     1      23.725  50.263  48.239  1.00  0.00     0.002 A 
HETATM   18  C   UNL     1      23.403  48.910  48.378  1.00  0.00     0.032 A 
BRANCH  14  19
HETATM   19  O   UNL     1      19.938  49.063  49.505  1.00  0.00    -0.354 OA
HETATM   20  C   UNL     1      19.305  49.807  50.543  1.00  0.00     0.210 C 
ENDBRANCH  14  19
ENDBRANCH  10  13
ENDBRANCH   8   9
ENDBRANCH   7   8
ENDBRANCH   4   7
BRANCH   1  21
HETATM   21  C   UNL     1      26.916  43.785  51.552  1.00  0.00     0.270 C 
HETATM   22  N   UNL     1      26.720  43.408  52.859  1.00  0.00    -0.259 N 
HETATM   23  H   UNL     1      25.808  43.339  53.282  1.00  0.00     0.191 HD
HETATM   24  O   UNL     1      27.987  44.108  51.053  1.00  0.00    -0.266 OA
BRANCH  22  25
HETATM   25  N   UNL     1      27.752  43.420  53.720  1.00  0.00    -0.263 N 
HETATM   26  C   UNL     1      28.169  44.551  54.368  1.00  0.00     0.030 A 
HETATM   27  C   UNL     1      27.410  45.827  54.353  1.00  0.00     0.070 C 
HETATM   28  C   UNL     1      29.355  44.226  54.999  1.00  0.00     0.028 A 
HETATM   29  C   UNL     1      29.657  42.876  54.684  1.00  0.00     0.028 A 
HETATM   30  C   UNL     1      28.651  42.399  53.861  1.00  0.00     0.030 A 
HETATM   31  C   UNL     1      28.473  41.055  53.255  1.00  0.00     0.070 C 
ENDBRANCH  22  25
ENDBRANCH   1  21
TORSDOF 7
ENDMDL
MODEL 8
REMARK VINA RESULT:      -8.2      2.049      2.539
REMARK  7 active torsions:
REMARK  status: ('A' for Active; 'I' for Inactive)
REMARK    1  A    between atoms: N_3  and  N_4 
REMARK       I    between atoms: N_4  and  C_5 
REMARK    2  A    between atoms: C_5  and  C_6 
REMARK    3  A    between atoms: C_9  and  O_10 
REMARK    4  A    between atoms: O_10  and  C_11 
REMARK    5  A    between atoms: C_11  and  C_12 
REMARK       I    between atoms: C_12  and  N_13 
REMARK    6  A    between atoms: N_13  and  C_14 
REMARK    7  A    between atoms: C_15  and  O_16 
ROOT
HETATM    1  C   UNL     1      26.562  44.508  52.445  1.00  0.00     0.033 A 
HETATM    2  C   UNL     1      25.572  45.492  52.538  1.00  0.00     0.020 A 
HETATM    3  C   UNL     1      24.866  45.872  51.393  1.00  0.00     0.038 A 
HETATM    4  C   UNL     1      25.150  45.292  50.154  1.00  0.00     0.069 A 
HETATM    5  C   UNL     1      26.117  44.287  50.072  1.00  0.00     0.038 A 
HETATM    6  C   UNL     1      26.818  43.892  51.217  1.00  0.00     0.020 A 
ENDROOT
BRANCH   4   7
HETATM    7  O   UNL     1      24.413  45.772  49.105  1.00  0.00    -0.342 OA
BRANCH   7   8
HETATM    8  C   UNL     1      23.270  45.010  48.733  1.00  0.00     0.278 C 
BRANCH   8   9
HETATM    9  C   UNL     1      22.100  45.858  48.221  1.00  0.00     0.246 C 
HETATM   10  N   UNL     1      20.928  45.595  48.901  1.00  0.00    -0.323 N 
HETATM   11  H   UNL     1      20.932  44.830  49.570  1.00  0.00     0.169 HD
HETATM   12  O   UNL     1      22.249  46.649  47.294  1.00  0.00    -0.271 OA
BRANCH  10  13
HETATM   13  C   UNL     1      19.690  46.264  48.802  1.00  0.00     0.068 A 
HETATM   14  C   UNL     1      18.629  45.565  48.188  1.00  0.00     0.095 A 
HETATM   15  C   UNL     1      17.364  46.154  48.105  1.00  0.00     0.039 A 
HETATM   16  C   UNL     1      17.154  47.436  48.617  1.00  0.00     0.003 A 
HETATM   17  C   UNL     1      18.204  48.131  49.212  1.00  0.00     0.002 A 
HETATM   18  C   UNL     1      19.471  47.548  49.305  1.00  0.00     0.032 A 
BRANCH  14  19
HETATM   19  O   UNL     1      18.936  44.309  47.716  1.00  0.00    -0.354 OA
HETATM   20  C   UNL     1      18.908  44.144  46.301  1.00  0.00     0.210 C 
ENDBRANCH  14  19
ENDBRANCH  10  13
ENDBRANCH   8   9
ENDBRANCH   7   8
ENDBRANCH   4   7
BRANCH   1  21
HETATM   21  C   UNL     1      27.348  44.082  53.632  1.00  0.00     0.270 C 
HETATM   22  N   UNL     1      28.534  44.754  53.806  1.00  0.00    -0.259 N 
HETATM   23  H   UNL     1      28.935  45.356  53.105  1.00  0.00     0.191 HD
HETATM   24  O   UNL     1      26.930  43.172  54.337  1.00  0.00    -0.266 OA
BRANCH  22  25
HETATM   25  N   UNL     1      29.369  44.390  54.794  1.00  0.00    -0.263 N 
HETATM   26  C   UNL     1      29.527  45.116  55.943  1.00  0.00     0.030 A 
HETATM   27  C   UNL     1      28.654  46.258  56.314  1.00  0.00     0.070 C 
HETATM   28  C   UNL     1      30.595  44.554  56.618  1.00  0.00     0.028 A 
HETATM   29  C   UNL     1      31.096  43.490  55.825  1.00  0.00     0.028 A 
HETATM   30  C   UNL     1      30.328  43.422  54.675  1.00  0.00     0.030 A 
HETATM   31  C   UNL     1      30.418  42.488  53.524  1.00  0.00     0.070 C 
ENDBRANCH  22  25
ENDBRANCH   1  21
TORSDOF 7
ENDMDL
MODEL 9
REMARK VINA RESULT:      -8.1      2.039     10.069
REMARK  7 active torsions:
REMARK  status: ('A' for Active; 'I' for Inactive)
REMARK    1  A    between atoms: N_3  and  N_4 
REMARK       I    between atoms: N_4  and  C_5 
REMARK    2  A    between atoms: C_5  and  C_6 
REMARK    3  A    between atoms: C_9  and  O_10 
REMARK    4  A    between atoms: O_10  and  C_11 
REMARK    5  A    between atoms: C_11  and  C_12 
REMARK       I    between atoms: C_12  and  N_13 
REMARK    6  A    between atoms: N_13  and  C_14 
REMARK    7  A    between atoms: C_15  and  O_16 
ROOT
HETATM    1  C   UNL     1      22.597  46.678  48.524  1.00  0.00     0.033 A 
HETATM    2  C   UNL     1      23.734  46.680  49.338  1.00  0.00     0.020 A 
HETATM    3  C   UNL     1      24.506  45.520  49.450  1.00  0.00     0.038 A 
HETATM    4  C   UNL     1      24.143  44.354  48.771  1.00  0.00     0.069 A 
HETATM    5  C   UNL     1      23.025  44.366  47.934  1.00  0.00     0.038 A 
HETATM    6  C   UNL     1      22.256  45.528  47.807  1.00  0.00     0.020 A 
ENDROOT
BRANCH   4   7
HETATM    7  O   UNL     1      24.961  43.277  48.988  1.00  0.00    -0.342 OA
BRANCH   7   8
HETATM    8  C   UNL     1      24.689  42.500  50.150  1.00  0.00     0.278 C 
BRANCH   8   9
HETATM    9  C   UNL     1      25.941  42.132  50.955  1.00  0.00     0.246 C 
HETATM   10  N   UNL     1      26.561  43.243  51.491  1.00  0.00    -0.323 N 
HETATM   11  H   UNL     1      26.203  44.158  51.226  1.00  0.00     0.169 HD
HETATM   12  O   UNL     1      26.309  40.966  51.056  1.00  0.00    -0.271 OA
BRANCH  10  13
HETATM   13  C   UNL     1      27.649  43.291  52.387  1.00  0.00     0.068 A 
HETATM   14  C   UNL     1      27.430  43.922  53.630  1.00  0.00     0.095 A 
HETATM   15  C   UNL     1      28.453  43.957  54.582  1.00  0.00     0.039 A 
HETATM   16  C   UNL     1      29.693  43.382  54.298  1.00  0.00     0.003 A 
HETATM   17  C   UNL     1      29.913  42.770  53.066  1.00  0.00     0.002 A 
HETATM   18  C   UNL     1      28.895  42.725  52.111  1.00  0.00     0.032 A 
BRANCH  14  19
HETATM   19  O   UNL     1      26.175  44.458  53.815  1.00  0.00    -0.354 OA
HETATM   20  C   UNL     1      26.127  45.834  54.182  1.00  0.00     0.210 C 
ENDBRANCH  14  19
ENDBRANCH  10  13
ENDBRANCH   8   9
ENDBRANCH   7   8
ENDBRANCH   4   7
BRANCH   1  21
HETATM   21  C   UNL     1      21.739  47.883  48.385  1.00  0.00     0.270 C 
HETATM   22  N   UNL     1      21.581  48.611  49.540  1.00  0.00    -0.259 N 
HETATM   23  H   UNL     1      21.864  48.275  50.447  1.00  0.00     0.191 HD
HETATM   24  O   UNL     1      21.215  48.130  47.306  1.00  0.00    -0.266 OA
BRANCH  22  25
HETATM   25  N   UNL     1      20.753  49.670  49.555  1.00  0.00    -0.263 N 
HETATM   26  C   UNL     1      19.427  49.575  49.876  1.00  0.00     0.030 A 
HETATM   27  C   UNL     1      18.808  48.347  50.438  1.00  0.00     0.070 C 
HETATM   28  C   UNL     1      18.865  50.806  49.591  1.00  0.00     0.028 A 
HETATM   29  C   UNL     1      19.886  51.633  49.056  1.00  0.00     0.028 A 
HETATM   30  C   UNL     1      21.055  50.892  49.021  1.00  0.00     0.030 A 
HETATM   31  C   UNL     1      22.414  51.279  48.565  1.00  0.00     0.070 C 
ENDBRANCH  22  25
ENDBRANCH   1  21
TORSDOF 7
ENDMDL
MODEL 10
REMARK VINA RESULT:      -7.9      1.682      2.293
REMARK  7 active torsions:
REMARK  status: ('A' for Active; 'I' for Inactive)
REMARK    1  A    between atoms: N_3  and  N_4 
REMARK       I    between atoms: N_4  and  C_5 
REMARK    2  A    between atoms: C_5  and  C_6 
REMARK    3  A    between atoms: C_9  and  O_10 
REMARK    4  A    between atoms: O_10  and  C_11 
REMARK    5  A    between atoms: C_11  and  C_12 
REMARK       I    between atoms: C_12  and  N_13 
REMARK    6  A    between atoms: N_13  and  C_14 
REMARK    7  A    between atoms: C_15  and  O_16 
ROOT
HETATM    1  C   UNL     1      26.058  44.684  52.742  1.00  0.00     0.033 A 
HETATM    2  C   UNL     1      25.844  46.028  52.419  1.00  0.00     0.020 A 
HETATM    3  C   UNL     1      25.001  46.358  51.354  1.00  0.00     0.038 A 
HETATM    4  C   UNL     1      24.384  45.358  50.597  1.00  0.00     0.069 A 
HETATM    5  C   UNL     1      24.576  44.019  50.943  1.00  0.00     0.038 A 
HETATM    6  C   UNL     1      25.406  43.683  52.017  1.00  0.00     0.020 A 
ENDROOT
BRANCH   4   7
HETATM    7  O   UNL     1      23.610  45.809  49.561  1.00  0.00    -0.342 OA
BRANCH   7   8
HETATM    8  C   UNL     1      22.756  44.850  48.946  1.00  0.00     0.278 C 
BRANCH   8   9
HETATM    9  C   UNL     1      21.385  45.408  48.547  1.00  0.00     0.246 C 
HETATM   10  N   UNL     1      21.481  46.654  47.958  1.00  0.00    -0.323 N 
HETATM   11  H   UNL     1      22.395  47.099  47.941  1.00  0.00     0.169 HD
HETATM   12  O   UNL     1      20.355  44.781  48.773  1.00  0.00    -0.271 OA
BRANCH  10  13
HETATM   13  C   UNL     1      20.461  47.415  47.350  1.00  0.00     0.068 A 
HETATM   14  C   UNL     1      20.087  48.616  47.989  1.00  0.00     0.095 A 
HETATM   15  C   UNL     1      19.118  49.439  47.409  1.00  0.00     0.039 A 
HETATM   16  C   UNL     1      18.512  49.068  46.208  1.00  0.00     0.003 A 
HETATM   17  C   UNL     1      18.871  47.876  45.583  1.00  0.00     0.002 A 
HETATM   18  C   UNL     1      19.843  47.049  46.152  1.00  0.00     0.032 A 
BRANCH  14  19
HETATM   19  O   UNL     1      20.743  48.894  49.167  1.00  0.00    -0.354 OA
HETATM   20  C   UNL     1      20.523  50.190  49.717  1.00  0.00     0.210 C 
ENDBRANCH  14  19
ENDBRANCH  10  13
ENDBRANCH   8   9
ENDBRANCH   7   8
ENDBRANCH   4   7
BRANCH   1  21
HETATM   21  C   UNL     1      26.956  44.286  53.857  1.00  0.00     0.270 C 
HETATM   22  N   UNL     1      28.245  44.750  53.748  1.00  0.00    -0.259 N 
HETATM   23  H   UNL     1      28.612  45.169  52.908  1.00  0.00     0.191 HD
HETATM   24  O   UNL     1      26.526  43.570  54.751  1.00  0.00    -0.266 OA
BRANCH  22  25
HETATM   25  N   UNL     1      29.168  44.377  54.652  1.00  0.00    -0.263 N 
HETATM   26  C   UNL     1      29.478  45.125  55.754  1.00  0.00     0.030 A 
HETATM   27  C   UNL     1      28.696  46.312  56.181  1.00  0.00     0.070 C 
HETATM   28  C   UNL     1      30.589  44.536  56.328  1.00  0.00     0.028 A 
HETATM   29  C   UNL     1      30.959  43.431  55.518  1.00  0.00     0.028 A 
HETATM   30  C   UNL     1      30.069  43.365  54.460  1.00  0.00     0.030 A 
HETATM   31  C   UNL     1      29.997  42.399  53.335  1.00  0.00     0.070 C 
ENDBRANCH  22  25
ENDBRANCH   1  21
TORSDOF 7
ENDMDL
