MODEL 1
REMARK VINA RESULT:      -9.5      0.000      0.000
REMARK  2 active torsions:
REMARK  status: ('A' for Active; 'I' for Inactive)
REMARK    1  A    between atoms: C_15  and  C_16 
REMARK    2  A    between atoms: C_19  and  O_20 
ROOT
HETATM    1  C   UNL     1      22.277  50.291  47.598  1.00  0.00     0.048 C 
HETATM    2  C   UNL     1      22.553  48.920  48.142  1.00  0.00    -0.061 A 
HETATM    3  C   UNL     1      23.605  48.708  49.054  1.00  0.00     0.021 A 
HETATM    4  C   UNL     1      23.825  47.419  49.585  1.00  0.00    -0.000 A 
HETATM    5  C   UNL     1      22.984  46.377  49.174  1.00  0.00     0.043 A 
HETATM    6  N   UNL     1      23.400  45.232  49.817  1.00  0.00    -0.353 N 
HETATM    7  H   UNL     1      22.992  44.312  49.703  1.00  0.00     0.166 HD
HETATM    8  C   UNL     1      24.410  45.538  50.675  1.00  0.00     0.066 A 
HETATM    9  C   UNL     1      24.755  46.863  50.509  1.00  0.00    -0.017 A 
HETATM   10  C   UNL     1      25.912  47.470  51.255  1.00  0.00     0.043 C 
HETATM   11  C   UNL     1      26.783  46.378  51.971  1.00  0.00     0.018 C 
HETATM   12  C   UNL     1      25.875  45.359  52.688  1.00  0.00     0.065 C 
HETATM   13  C   UNL     1      25.110  44.687  51.572  1.00  0.00     0.082 C 
HETATM   14  N   UNL     1      25.279  43.416  51.407  1.00  0.00    -0.203 NA
HETATM   15  C   UNL     1      26.356  44.085  53.395  1.00  0.00     0.121 C 
HETATM   16  N   UNL     1      26.167  43.034  52.367  1.00  0.00    -0.207 NA
HETATM   17  C   UNL     1      21.937  46.562  48.265  1.00  0.00     0.031 A 
HETATM   18  C   UNL     1      21.734  47.852  47.764  1.00  0.00     0.009 A 
HETATM   19  H   UNL     1      27.064  42.801  51.934  1.00  0.00     0.149 HD
ENDROOT
BRANCH  15  20
HETATM   20  C   UNL     1      27.648  43.976  54.172  1.00  0.00    -0.038 A 
HETATM   21  C   UNL     1      28.069  45.069  54.954  1.00  0.00     0.011 A 
HETATM   22  C   UNL     1      29.311  45.077  55.594  1.00  0.00     0.037 A 
HETATM   23  C   UNL     1      30.179  43.999  55.464  1.00  0.00     0.068 A 
HETATM   24  C   UNL     1      29.790  42.912  54.686  1.00  0.00     0.037 A 
HETATM   25  C   UNL     1      28.545  42.909  54.032  1.00  0.00     0.011 A 
BRANCH  23  26
HETATM   26  O   UNL     1      31.369  44.146  56.121  1.00  0.00    -0.356 OA
HETATM   27  C   UNL     1      31.637  43.239  57.183  1.00  0.00     0.210 C 
ENDBRANCH  23  26
ENDBRANCH  15  20
TORSDOF 2
ENDMDL
MODEL 2
REMARK VINA RESULT:      -9.5      3.108      8.731
REMARK  2 active torsions:
REMARK  status: ('A' for Active; 'I' for Inactive)
REMARK    1  A    between atoms: C_15  and  C_16 
REMARK    2  A    between atoms: C_19  and  O_20 
ROOT
HETATM    1  C   UNL     1      30.649  45.868  58.148  1.00  0.00     0.048 C 
HETATM    2  C   UNL     1      30.129  45.245  56.886  1.00  0.00    -0.061 A 
HETATM    3  C   UNL     1      29.062  45.834  56.181  1.00  0.00     0.021 A 
HETATM    4  C   UNL     1      28.612  45.255  54.976  1.00  0.00    -0.000 A 
HETATM    5  C   UNL     1      29.244  44.091  54.519  1.00  0.00     0.043 A 
HETATM    6  N   UNL     1      28.628  43.720  53.344  1.00  0.00    -0.353 N 
HETATM    7  H   UNL     1      28.859  42.904  52.790  1.00  0.00     0.166 HD
HETATM    8  C   UNL     1      27.697  44.654  53.008  1.00  0.00     0.066 A 
HETATM    9  C   UNL     1      27.601  45.580  54.026  1.00  0.00    -0.017 A 
HETATM   10  C   UNL     1      26.581  46.684  53.986  1.00  0.00     0.043 C 
HETATM   11  C   UNL     1      25.527  46.465  52.843  1.00  0.00     0.018 C 
HETATM   12  C   UNL     1      26.237  46.046  51.539  1.00  0.00     0.065 C 
HETATM   13  C   UNL     1      26.858  44.708  51.863  1.00  0.00     0.082 C 
HETATM   14  N   UNL     1      26.457  43.680  51.190  1.00  0.00    -0.203 NA
HETATM   15  C   UNL     1      25.534  45.631  50.240  1.00  0.00     0.121 C 
HETATM   16  N   UNL     1      25.520  44.151  50.320  1.00  0.00    -0.207 NA
HETATM   17  C   UNL     1      30.301  43.485  55.205  1.00  0.00     0.031 A 
HETATM   18  C   UNL     1      30.735  44.087  56.390  1.00  0.00     0.009 A 
HETATM   19  H   UNL     1      24.593  43.824  50.602  1.00  0.00     0.149 HD
ENDROOT
BRANCH  15  20
HETATM   20  C   UNL     1      24.248  46.243  49.731  1.00  0.00    -0.038 A 
HETATM   21  C   UNL     1      23.314  45.419  49.075  1.00  0.00     0.011 A 
HETATM   22  C   UNL     1      22.168  45.945  48.473  1.00  0.00     0.037 A 
HETATM   23  C   UNL     1      21.924  47.314  48.496  1.00  0.00     0.068 A 
HETATM   24  C   UNL     1      22.841  48.150  49.129  1.00  0.00     0.037 A 
HETATM   25  C   UNL     1      23.999  47.621  49.723  1.00  0.00     0.011 A 
BRANCH  23  26
HETATM   26  O   UNL     1      20.782  47.698  47.851  1.00  0.00    -0.356 OA
HETATM   27  C   UNL     1      19.710  48.166  48.658  1.00  0.00     0.210 C 
ENDBRANCH  23  26
ENDBRANCH  15  20
TORSDOF 2
ENDMDL
MODEL 3
REMARK VINA RESULT:      -9.5      3.575      8.694
REMARK  2 active torsions:
REMARK  status: ('A' for Active; 'I' for Inactive)
REMARK    1  A    between atoms: C_15  and  C_16 
REMARK    2  A    between atoms: C_19  and  O_20 
ROOT
HETATM    1  C   UNL     1      32.056  43.098  57.042  1.00  0.00     0.048 C 
HETATM    2  C   UNL     1      30.966  43.944  56.452  1.00  0.00    -0.061 A 
HETATM    3  C   UNL     1      30.189  43.469  55.379  1.00  0.00     0.021 A 
HETATM    4  C   UNL     1      29.143  44.263  54.863  1.00  0.00    -0.000 A 
HETATM    5  C   UNL     1      28.916  45.520  55.437  1.00  0.00     0.043 A 
HETATM    6  N   UNL     1      27.862  46.098  54.764  1.00  0.00    -0.353 N 
HETATM    7  H   UNL     1      27.482  47.019  54.946  1.00  0.00     0.166 HD
HETATM    8  C   UNL     1      27.372  45.216  53.852  1.00  0.00     0.066 A 
HETATM    9  C   UNL     1      28.180  44.098  53.827  1.00  0.00    -0.017 A 
HETATM   10  C   UNL     1      27.946  42.985  52.843  1.00  0.00     0.043 C 
HETATM   11  C   UNL     1      26.905  43.390  51.739  1.00  0.00     0.018 C 
HETATM   12  C   UNL     1      25.694  44.095  52.383  1.00  0.00     0.065 C 
HETATM   13  C   UNL     1      26.266  45.363  52.971  1.00  0.00     0.082 C 
HETATM   14  N   UNL     1      25.832  46.489  52.509  1.00  0.00    -0.203 NA
HETATM   15  C   UNL     1      24.531  44.737  51.616  1.00  0.00     0.121 C 
HETATM   16  N   UNL     1      24.914  46.168  51.556  1.00  0.00    -0.207 NA
HETATM   17  C   UNL     1      29.678  46.016  56.499  1.00  0.00     0.031 A 
HETATM   18  C   UNL     1      30.700  45.203  57.000  1.00  0.00     0.009 A 
HETATM   19  H   UNL     1      25.286  46.393  50.630  1.00  0.00     0.149 HD
ENDROOT
BRANCH  15  20
HETATM   20  C   UNL     1      23.947  44.191  50.333  1.00  0.00    -0.038 A 
HETATM   21  C   UNL     1      23.453  42.872  50.316  1.00  0.00     0.011 A 
HETATM   22  C   UNL     1      23.017  42.268  49.134  1.00  0.00     0.037 A 
HETATM   23  C   UNL     1      23.073  42.957  47.927  1.00  0.00     0.068 A 
HETATM   24  C   UNL     1      23.569  44.258  47.918  1.00  0.00     0.037 A 
HETATM   25  C   UNL     1      24.019  44.861  49.105  1.00  0.00     0.011 A 
BRANCH  23  26
HETATM   26  O   UNL     1      22.638  42.244  46.846  1.00  0.00    -0.356 OA
HETATM   27  C   UNL     1      22.271  40.888  47.070  1.00  0.00     0.210 C 
ENDBRANCH  23  26
ENDBRANCH  15  20
TORSDOF 2
ENDMDL
MODEL 4
REMARK VINA RESULT:      -9.2      3.733      8.772
REMARK  2 active torsions:
REMARK  status: ('A' for Active; 'I' for Inactive)
REMARK    1  A    between atoms: C_15  and  C_16 
REMARK    2  A    between atoms: C_19  and  O_20 
ROOT
HETATM    1  C   UNL     1      30.643  46.300  58.199  1.00  0.00     0.048 C 
HETATM    2  C   UNL     1      30.372  45.284  57.128  1.00  0.00    -0.061 A 
HETATM    3  C   UNL     1      29.283  45.441  56.250  1.00  0.00     0.021 A 
HETATM    4  C   UNL     1      29.067  44.496  55.224  1.00  0.00    -0.000 A 
HETATM    5  C   UNL     1      29.949  43.413  55.119  1.00  0.00     0.043 A 
HETATM    6  N   UNL     1      29.529  42.638  54.060  1.00  0.00    -0.353 N 
HETATM    7  H   UNL     1      29.962  41.776  53.753  1.00  0.00     0.166 HD
HETATM    8  C   UNL     1      28.472  43.241  53.452  1.00  0.00     0.066 A 
HETATM    9  C   UNL     1      28.106  44.353  54.183  1.00  0.00    -0.017 A 
HETATM   10  C   UNL     1      26.901  45.173  53.810  1.00  0.00     0.043 C 
HETATM   11  C   UNL     1      26.021  44.458  52.724  1.00  0.00     0.018 C 
HETATM   12  C   UNL     1      26.917  43.882  51.608  1.00  0.00     0.065 C 
HETATM   13  C   UNL     1      27.748  42.829  52.300  1.00  0.00     0.082 C 
HETATM   14  N   UNL     1      27.616  41.605  51.908  1.00  0.00    -0.203 NA
HETATM   15  C   UNL     1      26.430  43.016  50.439  1.00  0.00     0.121 C 
HETATM   16  N   UNL     1      26.693  41.635  50.908  1.00  0.00    -0.207 NA
HETATM   17  C   UNL     1      31.034  43.234  55.983  1.00  0.00     0.031 A 
HETATM   18  C   UNL     1      31.233  44.192  56.982  1.00  0.00     0.009 A 
HETATM   19  H   UNL     1      25.823  41.202  51.229  1.00  0.00     0.149 HD
ENDROOT
BRANCH  15  20
HETATM   20  C   UNL     1      25.105  43.198  49.734  1.00  0.00    -0.038 A 
HETATM   21  C   UNL     1      24.314  42.063  49.466  1.00  0.00     0.011 A 
HETATM   22  C   UNL     1      23.143  42.149  48.709  1.00  0.00     0.037 A 
HETATM   23  C   UNL     1      22.728  43.369  48.185  1.00  0.00     0.068 A 
HETATM   24  C   UNL     1      23.501  44.502  48.428  1.00  0.00     0.037 A 
HETATM   25  C   UNL     1      24.686  44.413  49.178  1.00  0.00     0.011 A 
BRANCH  23  26
HETATM   26  O   UNL     1      21.580  43.309  47.447  1.00  0.00    -0.356 OA
HETATM   27  C   UNL     1      20.975  44.545  47.090  1.00  0.00     0.210 C 
ENDBRANCH  23  26
ENDBRANCH  15  20
TORSDOF 2
ENDMDL
MODEL 5
REMARK VINA RESULT:      -8.9      3.282      8.669
REMARK  2 active torsions:
REMARK  status: ('A' for Active; 'I' for Inactive)
REMARK    1  A    between atoms: C_15  and  C_16 
REMARK    2  A    between atoms: C_19  and  O_20 
ROOT
HETATM    1  C   UNL     1      30.488  44.636  56.574  1.00  0.00     0.048 C 
HETATM    2  C   UNL     1      29.953  44.170  55.251  1.00  0.00    -0.061 A 
HETATM    3  C   UNL     1      28.755  44.699  54.735  1.00  0.00     0.021 A 
HETATM    4  C   UNL     1      28.288  44.278  53.472  1.00  0.00    -0.000 A 
HETATM    5  C   UNL     1      29.037  43.326  52.768  1.00  0.00     0.043 A 
HETATM    6  N   UNL     1      28.380  43.076  51.583  1.00  0.00    -0.353 N 
HETATM    7  H   UNL     1      28.676  42.416  50.874  1.00  0.00     0.166 HD
HETATM    8  C   UNL     1      27.299  43.896  51.486  1.00  0.00     0.066 A 
HETATM    9  C   UNL     1      27.162  44.602  52.662  1.00  0.00    -0.017 A 
HETATM   10  C   UNL     1      25.994  45.523  52.891  1.00  0.00     0.043 C 
HETATM   11  C   UNL     1      24.887  45.346  51.793  1.00  0.00     0.018 C 
HETATM   12  C   UNL     1      25.532  45.280  50.393  1.00  0.00     0.065 C 
HETATM   13  C   UNL     1      26.363  44.019  50.423  1.00  0.00     0.082 C 
HETATM   14  N   UNL     1      26.056  43.076  49.595  1.00  0.00    -0.203 NA
HETATM   15  C   UNL     1      24.784  44.994  49.085  1.00  0.00     0.121 C 
HETATM   16  N   UNL     1      24.989  43.540  48.887  1.00  0.00    -0.207 NA
HETATM   17  C   UNL     1      30.226  42.782  53.263  1.00  0.00     0.031 A 
HETATM   18  C   UNL     1      30.673  43.227  54.512  1.00  0.00     0.009 A 
HETATM   19  H   UNL     1      24.146  43.027  49.157  1.00  0.00     0.149 HD
ENDROOT
BRANCH  15  20
HETATM   20  C   UNL     1      23.384  45.477  48.777  1.00  0.00    -0.038 A 
HETATM   21  C   UNL     1      23.120  46.861  48.799  1.00  0.00     0.011 A 
HETATM   22  C   UNL     1      21.825  47.361  48.647  1.00  0.00     0.037 A 
HETATM   23  C   UNL     1      20.748  46.496  48.481  1.00  0.00     0.068 A 
HETATM   24  C   UNL     1      20.984  45.124  48.469  1.00  0.00     0.037 A 
HETATM   25  C   UNL     1      22.286  44.620  48.634  1.00  0.00     0.011 A 
BRANCH  23  26
HETATM   26  O   UNL     1      19.535  47.115  48.368  1.00  0.00    -0.356 OA
HETATM   27  C   UNL     1      19.495  48.513  48.624  1.00  0.00     0.210 C 
ENDBRANCH  23  26
ENDBRANCH  15  20
TORSDOF 2
ENDMDL
MODEL 6
REMARK VINA RESULT:      -8.8      4.740      6.964
REMARK  2 active torsions:
REMARK  status: ('A' for Active; 'I' for Inactive)
REMARK    1  A    between atoms: C_15  and  C_16 
REMARK    2  A    between atoms: C_19  and  O_20 
ROOT
HETATM    1  C   UNL     1      27.218  38.636  45.590  1.00  0.00     0.048 C 
HETATM    2  C   UNL     1      27.692  38.841  47.000  1.00  0.00    -0.061 A 
HETATM    3  C   UNL     1      27.426  40.045  47.678  1.00  0.00     0.021 A 
HETATM    4  C   UNL     1      27.845  40.204  49.016  1.00  0.00    -0.000 A 
HETATM    5  C   UNL     1      28.530  39.148  49.630  1.00  0.00     0.043 A 
HETATM    6  N   UNL     1      28.835  39.544  50.914  1.00  0.00    -0.353 N 
HETATM    7  H   UNL     1      29.346  38.993  51.594  1.00  0.00     0.166 HD
HETATM    8  C   UNL     1      28.294  40.769  51.149  1.00  0.00     0.066 A 
HETATM    9  C   UNL     1      27.738  41.247  49.981  1.00  0.00    -0.017 A 
HETATM   10  C   UNL     1      27.146  42.628  49.903  1.00  0.00     0.043 C 
HETATM   11  C   UNL     1      27.495  43.485  51.171  1.00  0.00     0.018 C 
HETATM   12  C   UNL     1      27.293  42.649  52.451  1.00  0.00     0.065 C 
HETATM   13  C   UNL     1      28.315  41.542  52.341  1.00  0.00     0.082 C 
HETATM   14  N   UNL     1      29.235  41.482  53.246  1.00  0.00    -0.203 NA
HETATM   15  C   UNL     1      27.644  43.105  53.873  1.00  0.00     0.121 C 
HETATM   16  N   UNL     1      28.986  42.517  54.096  1.00  0.00    -0.207 NA
HETATM   17  C   UNL     1      28.810  37.945  48.975  1.00  0.00     0.031 A 
HETATM   18  C   UNL     1      28.372  37.809  47.654  1.00  0.00     0.009 A 
HETATM   19  H   UNL     1      29.707  43.235  53.985  1.00  0.00     0.149 HD
ENDROOT
BRANCH  15  20
HETATM   20  C   UNL     1      27.489  44.521  54.379  1.00  0.00    -0.038 A 
HETATM   21  C   UNL     1      26.301  45.222  54.092  1.00  0.00     0.011 A 
HETATM   22  C   UNL     1      26.148  46.571  54.423  1.00  0.00     0.037 A 
HETATM   23  C   UNL     1      27.181  47.268  55.040  1.00  0.00     0.068 A 
HETATM   24  C   UNL     1      28.369  46.599  55.323  1.00  0.00     0.037 A 
HETATM   25  C   UNL     1      28.527  45.245  54.979  1.00  0.00     0.011 A 
BRANCH  23  26
HETATM   26  O   UNL     1      26.909  48.584  55.287  1.00  0.00    -0.356 OA
HETATM   27  C   UNL     1      26.095  48.876  56.416  1.00  0.00     0.210 C 
ENDBRANCH  23  26
ENDBRANCH  15  20
TORSDOF 2
ENDMDL
MODEL 7
REMARK VINA RESULT:      -8.6      4.095      8.818
REMARK  2 active torsions:
REMARK  status: ('A' for Active; 'I' for Inactive)
REMARK    1  A    between atoms: C_15  and  C_16 
REMARK    2  A    between atoms: C_19  and  O_20 
ROOT
HETATM    1  C   UNL     1      30.189  46.052  57.309  1.00  0.00     0.048 C 
HETATM    2  C   UNL     1      29.986  45.044  56.215  1.00  0.00    -0.061 A 
HETATM    3  C   UNL     1      28.860  45.115  55.373  1.00  0.00     0.021 A 
HETATM    4  C   UNL     1      28.706  44.182  54.326  1.00  0.00    -0.000 A 
HETATM    5  C   UNL     1      29.687  43.196  54.163  1.00  0.00     0.043 A 
HETATM    6  N   UNL     1      29.312  42.412  53.094  1.00  0.00    -0.353 N 
HETATM    7  H   UNL     1      29.819  41.606  52.749  1.00  0.00     0.166 HD
HETATM    8  C   UNL     1      28.183  42.923  52.535  1.00  0.00     0.066 A 
HETATM    9  C   UNL     1      27.732  43.972  53.308  1.00  0.00    -0.017 A 
HETATM   10  C   UNL     1      26.441  44.678  52.995  1.00  0.00     0.043 C 
HETATM   11  C   UNL     1      25.602  43.909  51.913  1.00  0.00     0.018 C 
HETATM   12  C   UNL     1      26.515  43.456  50.755  1.00  0.00     0.065 C 
HETATM   13  C   UNL     1      27.468  42.472  51.392  1.00  0.00     0.082 C 
HETATM   14  N   UNL     1      27.445  41.252  50.967  1.00  0.00    -0.203 NA
HETATM   15  C   UNL     1      26.080  42.578  49.575  1.00  0.00     0.121 C 
HETATM   16  N   UNL     1      26.492  41.217  49.994  1.00  0.00    -0.207 NA
HETATM   17  C   UNL     1      30.811  43.102  54.990  1.00  0.00     0.031 A 
HETATM   18  C   UNL     1      30.945  44.047  56.012  1.00  0.00     0.009 A 
HETATM   19  H   UNL     1      25.680  40.692  50.327  1.00  0.00     0.149 HD
ENDROOT
BRANCH  15  20
HETATM   20  C   UNL     1      24.722  42.645  48.914  1.00  0.00    -0.038 A 
HETATM   21  C   UNL     1      24.074  41.445  48.564  1.00  0.00     0.011 A 
HETATM   22  C   UNL     1      22.879  41.443  47.840  1.00  0.00     0.037 A 
HETATM   23  C   UNL     1      22.298  42.638  47.431  1.00  0.00     0.068 A 
HETATM   24  C   UNL     1      22.928  43.837  47.756  1.00  0.00     0.037 A 
HETATM   25  C   UNL     1      24.137  43.839  48.473  1.00  0.00     0.011 A 
BRANCH  23  26
HETATM   26  O   UNL     1      21.145  42.493  46.712  1.00  0.00    -0.356 OA
HETATM   27  C   UNL     1      21.028  41.328  45.906  1.00  0.00     0.210 C 
ENDBRANCH  23  26
ENDBRANCH  15  20
TORSDOF 2
ENDMDL
MODEL 8
REMARK VINA RESULT:      -8.5      4.826      6.334
REMARK  2 active torsions:
REMARK  status: ('A' for Active; 'I' for Inactive)
REMARK    1  A    between atoms: C_15  and  C_16 
REMARK    2  A    between atoms: C_19  and  O_20 
ROOT
HETATM    1  C   UNL     1      27.109  36.624  47.153  1.00  0.00     0.048 C 
HETATM    2  C   UNL     1      26.797  37.944  47.796  1.00  0.00    -0.061 A 
HETATM    3  C   UNL     1      27.499  38.370  48.939  1.00  0.00     0.021 A 
HETATM    4  C   UNL     1      27.218  39.631  49.506  1.00  0.00    -0.000 A 
HETATM    5  C   UNL     1      26.230  40.425  48.910  1.00  0.00     0.043 A 
HETATM    6  N   UNL     1      26.137  41.589  49.642  1.00  0.00    -0.353 N 
HETATM    7  H   UNL     1      25.493  42.349  49.459  1.00  0.00     0.166 HD
HETATM    8  C   UNL     1      27.086  41.585  50.616  1.00  0.00     0.066 A 
HETATM    9  C   UNL     1      27.727  40.364  50.616  1.00  0.00    -0.017 A 
HETATM   10  C   UNL     1      28.765  40.025  51.651  1.00  0.00     0.043 C 
HETATM   11  C   UNL     1      28.794  41.077  52.816  1.00  0.00     0.018 C 
HETATM   12  C   UNL     1      28.740  42.508  52.243  1.00  0.00     0.065 C 
HETATM   13  C   UNL     1      27.389  42.592  51.573  1.00  0.00     0.082 C 
HETATM   14  N   UNL     1      26.545  43.458  52.028  1.00  0.00    -0.203 NA
HETATM   15  C   UNL     1      28.631  43.792  53.074  1.00  0.00     0.121 C 
HETATM   16  N   UNL     1      27.178  44.085  53.058  1.00  0.00    -0.207 NA
HETATM   17  C   UNL     1      25.516  40.021  47.778  1.00  0.00     0.031 A 
HETATM   18  C   UNL     1      25.823  38.772  47.229  1.00  0.00     0.009 A 
HETATM   19  H   UNL     1      26.754  43.804  53.946  1.00  0.00     0.149 HD
ENDROOT
BRANCH  15  20
HETATM   20  C   UNL     1      29.298  44.002  54.414  1.00  0.00    -0.038 A 
HETATM   21  C   UNL     1      28.964  45.142  55.171  1.00  0.00     0.011 A 
HETATM   22  C   UNL     1      29.634  45.457  56.356  1.00  0.00     0.037 A 
HETATM   23  C   UNL     1      30.669  44.651  56.817  1.00  0.00     0.068 A 
HETATM   24  C   UNL     1      31.025  43.525  56.079  1.00  0.00     0.037 A 
HETATM   25  C   UNL     1      30.358  43.215  54.881  1.00  0.00     0.011 A 
BRANCH  23  26
HETATM   26  O   UNL     1      31.254  45.085  57.974  1.00  0.00    -0.356 OA
HETATM   27  C   UNL     1      30.721  46.262  58.566  1.00  0.00     0.210 C 
ENDBRANCH  23  26
ENDBRANCH  15  20
TORSDOF 2
ENDMDL
MODEL 9
REMARK VINA RESULT:      -8.4      5.384      8.076
REMARK  2 active torsions:
REMARK  status: ('A' for Active; 'I' for Inactive)
REMARK    1  A    between atoms: C_15  and  C_16 
REMARK    2  A    between atoms: C_19  and  O_20 
ROOT
HETATM    1  C   UNL     1      26.610  48.078  55.201  1.00  0.00     0.048 C 
HETATM    2  C   UNL     1      27.315  46.785  54.908  1.00  0.00    -0.061 A 
HETATM    3  C   UNL     1      26.836  45.917  53.909  1.00  0.00     0.021 A 
HETATM    4  C   UNL     1      27.533  44.725  53.622  1.00  0.00    -0.000 A 
HETATM    5  C   UNL     1      28.690  44.436  54.356  1.00  0.00     0.043 A 
HETATM    6  N   UNL     1      29.179  43.231  53.901  1.00  0.00    -0.353 N 
HETATM    7  H   UNL     1      30.000  42.757  54.258  1.00  0.00     0.166 HD
HETATM    8  C   UNL     1      28.421  42.802  52.857  1.00  0.00     0.066 A 
HETATM    9  C   UNL     1      27.349  43.656  52.698  1.00  0.00    -0.017 A 
HETATM   10  C   UNL     1      26.276  43.385  51.679  1.00  0.00     0.043 C 
HETATM   11  C   UNL     1      26.396  41.941  51.074  1.00  0.00     0.018 C 
HETATM   12  C   UNL     1      27.866  41.632  50.723  1.00  0.00     0.065 C 
HETATM   13  C   UNL     1      28.580  41.641  52.054  1.00  0.00     0.082 C 
HETATM   14  N   UNL     1      29.139  40.542  52.443  1.00  0.00    -0.203 NA
HETATM   15  C   UNL     1      28.393  40.281  50.222  1.00  0.00     0.121 C 
HETATM   16  N   UNL     1      28.897  39.635  51.457  1.00  0.00    -0.207 NA
HETATM   17  C   UNL     1      29.182  45.280  55.357  1.00  0.00     0.031 A 
HETATM   18  C   UNL     1      28.478  46.461  55.613  1.00  0.00     0.009 A 
HETATM   19  H   UNL     1      28.225  38.938  51.787  1.00  0.00     0.149 HD
ENDROOT
BRANCH  15  20
HETATM   20  C   UNL     1      27.634  39.358  49.296  1.00  0.00    -0.038 A 
HETATM   21  C   UNL     1      27.516  37.997  49.638  1.00  0.00     0.011 A 
HETATM   22  C   UNL     1      26.937  37.071  48.766  1.00  0.00     0.037 A 
HETATM   23  C   UNL     1      26.468  37.471  47.519  1.00  0.00     0.068 A 
HETATM   24  C   UNL     1      26.586  38.810  47.156  1.00  0.00     0.037 A 
HETATM   25  C   UNL     1      27.180  39.739  48.027  1.00  0.00     0.011 A 
BRANCH  23  26
HETATM   26  O   UNL     1      25.948  36.463  46.758  1.00  0.00    -0.356 OA
HETATM   27  C   UNL     1      26.194  35.131  47.191  1.00  0.00     0.210 C 
ENDBRANCH  23  26
ENDBRANCH  15  20
TORSDOF 2
ENDMDL
MODEL 10
REMARK VINA RESULT:      -8.4      3.549      4.519
REMARK  2 active torsions:
REMARK  status: ('A' for Active; 'I' for Inactive)
REMARK    1  A    between atoms: C_15  and  C_16 
REMARK    2  A    between atoms: C_19  and  O_20 
ROOT
HETATM    1  C   UNL     1      24.491  39.676  46.084  1.00  0.00     0.048 C 
HETATM    2  C   UNL     1      24.270  40.562  47.275  1.00  0.00    -0.061 A 
HETATM    3  C   UNL     1      25.328  40.856  48.157  1.00  0.00     0.021 A 
HETATM    4  C   UNL     1      25.111  41.722  49.249  1.00  0.00    -0.000 A 
HETATM    5  C   UNL     1      23.830  42.261  49.429  1.00  0.00     0.043 A 
HETATM    6  N   UNL     1      23.870  43.057  50.552  1.00  0.00    -0.353 N 
HETATM    7  H   UNL     1      23.086  43.566  50.941  1.00  0.00     0.166 HD
HETATM    8  C   UNL     1      25.144  43.103  51.027  1.00  0.00     0.066 A 
HETATM    9  C   UNL     1      25.928  42.233  50.298  1.00  0.00    -0.017 A 
HETATM   10  C   UNL     1      27.369  41.992  50.654  1.00  0.00     0.043 C 
HETATM   11  C   UNL     1      27.736  42.606  52.052  1.00  0.00     0.018 C 
HETATM   12  C   UNL     1      27.157  44.030  52.176  1.00  0.00     0.065 C 
HETATM   13  C   UNL     1      25.660  43.831  52.133  1.00  0.00     0.082 C 
HETATM   14  N   UNL     1      24.977  44.180  53.173  1.00  0.00    -0.203 NA
HETATM   15  C   UNL     1      27.206  44.900  53.438  1.00  0.00     0.121 C 
HETATM   16  N   UNL     1      25.885  44.663  54.066  1.00  0.00    -0.207 NA
HETATM   17  C   UNL     1      22.764  41.979  48.570  1.00  0.00     0.031 A 
HETATM   18  C   UNL     1      23.009  41.128  47.488  1.00  0.00     0.009 A 
HETATM   19  H   UNL     1      25.980  44.010  54.848  1.00  0.00     0.149 HD
ENDROOT
BRANCH  15  20
HETATM   20  C   UNL     1      28.365  44.933  54.410  1.00  0.00    -0.038 A 
HETATM   21  C   UNL     1      29.231  43.824  54.475  1.00  0.00     0.011 A 
HETATM   22  C   UNL     1      30.242  43.740  55.436  1.00  0.00     0.037 A 
HETATM   23  C   UNL     1      30.413  44.755  56.371  1.00  0.00     0.068 A 
HETATM   24  C   UNL     1      29.561  45.856  56.333  1.00  0.00     0.037 A 
HETATM   25  C   UNL     1      28.536  45.934  55.374  1.00  0.00     0.011 A 
BRANCH  23  26
HETATM   26  O   UNL     1      31.422  44.537  57.267  1.00  0.00    -0.356 OA
HETATM   27  C   UNL     1      32.018  43.246  57.269  1.00  0.00     0.210 C 
ENDBRANCH  23  26
ENDBRANCH  15  20
TORSDOF 2
ENDMDL
