MODEL 1
REMARK VINA RESULT:      -9.8      0.000      0.000
REMARK  7 active torsions:
REMARK  status: ('A' for Active; 'I' for Inactive)
REMARK       I    between atoms: C_2  and  N_3 
REMARK    1  A    between atoms: N_3  and  C_4 
REMARK    2  A    between atoms: C_7  and  N_8 
REMARK       I    between atoms: N_8  and  C_9 
REMARK    3  A    between atoms: C_9  and  C_10 
REMARK       I    between atoms: C_10  and  N_11 
REMARK    4  A    between atoms: N_11  and  C_12 
REMARK    5  A    between atoms: C_12  and  C_13 
REMARK    6  A    between atoms: C_13  and  O_14 
REMARK    7  A    between atoms: C_13  and  C_15 
ROOT
HETATM    1  C   UNL     1      26.800  42.777  51.792  1.00  0.00     0.309 C 
HETATM    2  N   UNL     1      27.177  42.547  53.094  1.00  0.00    -0.350 N 
HETATM    3  O   UNL     1      27.315  42.284  50.797  1.00  0.00    -0.262 OA
HETATM    4  H   UNL     1      26.678  43.061  53.818  1.00  0.00     0.163 HD
ENDROOT
BRANCH   1   5
HETATM    5  C   UNL     1      25.642  43.786  51.643  1.00  0.00     0.313 C 
HETATM    6  N   UNL     1      25.656  44.406  50.413  1.00  0.00    -0.319 N 
HETATM    7  H   UNL     1      26.388  44.080  49.787  1.00  0.00     0.169 HD
HETATM    8  O   UNL     1      24.879  43.938  52.587  1.00  0.00    -0.262 OA
BRANCH   6   9
HETATM    9  C   UNL     1      24.832  45.453  49.969  1.00  0.00     0.035 A 
HETATM   10  C   UNL     1      23.773  45.283  49.079  1.00  0.00     0.032 A 
HETATM   11  C   UNL     1      22.959  46.368  48.722  1.00  0.00     0.032 A 
HETATM   12  C   UNL     1      23.196  47.639  49.243  1.00  0.00     0.034 A 
HETATM   13  C   UNL     1      24.275  47.813  50.116  1.00  0.00     0.032 A 
HETATM   14  C   UNL     1      25.082  46.730  50.480  1.00  0.00     0.032 A 
BRANCH  12  15
HETATM   15  N   UNL     1      22.409  48.773  48.955  1.00  0.00    -0.328 N 
HETATM   16  C   UNL     1      22.677  49.773  48.039  1.00  0.00     0.218 C 
HETATM   17  C   UNL     1      21.581  50.808  47.981  1.00  0.00     0.117 C 
HETATM   18  O   UNL     1      23.649  49.853  47.296  1.00  0.00    -0.274 OA
HETATM   19  H   UNL     1      21.532  48.841  49.457  1.00  0.00     0.169 HD
ENDBRANCH  12  15
ENDBRANCH   6   9
ENDBRANCH   1   5
BRANCH   2  20
HETATM   20  C   UNL     1      28.343  41.747  53.436  1.00  0.00     0.159 C 
BRANCH  20  21
HETATM   21  C   UNL     1      29.627  42.599  53.512  1.00  0.00     0.171 C 
BRANCH  21  22
HETATM   22  O   UNL     1      29.966  43.039  52.188  1.00  0.00    -0.389 OA
HETATM   23  H   UNL     1      29.916  44.009  52.209  1.00  0.00     0.210 HD
ENDBRANCH  21  22
BRANCH  21  24
HETATM   24  C   UNL     1      29.463  43.765  54.438  1.00  0.00     0.000 A 
HETATM   25  C   UNL     1      30.160  43.974  55.673  1.00  0.00     0.001 A 
HETATM   26  C   UNL     1      29.719  45.188  56.212  1.00  0.00     0.044 A 
HETATM   27  C   UNL     1      31.134  43.233  56.377  1.00  0.00     0.014 A 
HETATM   28  C   UNL     1      30.226  45.687  57.425  1.00  0.00     0.030 A 
HETATM   29  N   UNL     1      28.780  45.693  55.339  1.00  0.00    -0.360 N 
HETATM   30  C   UNL     1      31.192  44.935  58.098  1.00  0.00     0.002 A 
HETATM   31  C   UNL     1      31.641  43.724  57.584  1.00  0.00     0.001 A 
HETATM   32  C   UNL     1      28.054  46.937  55.476  1.00  0.00     0.155 C 
HETATM   33  C   UNL     1      28.618  44.846  54.275  1.00  0.00     0.101 A 
ENDBRANCH  21  24
ENDBRANCH  20  21
ENDBRANCH   2  20
TORSDOF 7
ENDMDL
MODEL 2
REMARK VINA RESULT:      -9.4      3.198      6.011
REMARK  7 active torsions:
REMARK  status: ('A' for Active; 'I' for Inactive)
REMARK       I    between atoms: C_2  and  N_3 
REMARK    1  A    between atoms: N_3  and  C_4 
REMARK    2  A    between atoms: C_7  and  N_8 
REMARK       I    between atoms: N_8  and  C_9 
REMARK    3  A    between atoms: C_9  and  C_10 
REMARK       I    between atoms: C_10  and  N_11 
REMARK    4  A    between atoms: N_11  and  C_12 
REMARK    5  A    between atoms: C_12  and  C_13 
REMARK    6  A    between atoms: C_13  and  O_14 
REMARK    7  A    between atoms: C_13  and  C_15 
ROOT
HETATM    1  C   UNL     1      23.728  48.131  49.517  1.00  0.00     0.309 C 
HETATM    2  N   UNL     1      23.833  46.798  49.841  1.00  0.00    -0.350 N 
HETATM    3  O   UNL     1      24.626  48.959  49.579  1.00  0.00    -0.262 OA
HETATM    4  H   UNL     1      22.986  46.238  49.777  1.00  0.00     0.163 HD
ENDROOT
BRANCH   1   5
HETATM    5  C   UNL     1      22.310  48.559  49.081  1.00  0.00     0.313 C 
HETATM    6  N   UNL     1      21.968  49.793  49.588  1.00  0.00    -0.319 N 
HETATM    7  H   UNL     1      22.703  50.244  50.128  1.00  0.00     0.169 HD
HETATM    8  O   UNL     1      21.663  47.795  48.381  1.00  0.00    -0.262 OA
BRANCH   6   9
HETATM    9  C   UNL     1      20.729  50.447  49.496  1.00  0.00     0.035 A 
HETATM   10  C   UNL     1      19.606  50.090  50.239  1.00  0.00     0.032 A 
HETATM   11  C   UNL     1      18.416  50.825  50.133  1.00  0.00     0.032 A 
HETATM   12  C   UNL     1      18.329  51.921  49.276  1.00  0.00     0.034 A 
HETATM   13  C   UNL     1      19.450  52.263  48.511  1.00  0.00     0.032 A 
HETATM   14  C   UNL     1      20.640  51.536  48.624  1.00  0.00     0.032 A 
BRANCH  12  15
HETATM   15  N   UNL     1      17.180  52.726  49.133  1.00  0.00    -0.328 N 
HETATM   16  C   UNL     1      15.930  52.335  48.689  1.00  0.00     0.218 C 
HETATM   17  C   UNL     1      14.934  53.469  48.705  1.00  0.00     0.117 C 
HETATM   18  O   UNL     1      15.585  51.210  48.347  1.00  0.00    -0.274 OA
HETATM   19  H   UNL     1      17.278  53.692  49.419  1.00  0.00     0.169 HD
ENDBRANCH  12  15
ENDBRANCH   6   9
ENDBRANCH   1   5
BRANCH   2  20
HETATM   20  C   UNL     1      25.044  46.233  50.417  1.00  0.00     0.159 C 
BRANCH  20  21
HETATM   21  C   UNL     1      24.765  45.504  51.748  1.00  0.00     0.171 C 
BRANCH  21  22
HETATM   22  O   UNL     1      23.748  44.515  51.527  1.00  0.00    -0.389 OA
HETATM   23  H   UNL     1      23.083  44.657  52.221  1.00  0.00     0.210 HD
ENDBRANCH  21  22
BRANCH  21  24
HETATM   24  C   UNL     1      26.007  44.879  52.308  1.00  0.00     0.000 A 
HETATM   25  C   UNL     1      26.809  45.394  53.379  1.00  0.00     0.001 A 
HETATM   26  C   UNL     1      27.863  44.498  53.591  1.00  0.00     0.044 A 
HETATM   27  C   UNL     1      26.723  46.546  54.190  1.00  0.00     0.014 A 
HETATM   28  C   UNL     1      28.827  44.713  54.592  1.00  0.00     0.030 A 
HETATM   29  N   UNL     1      27.711  43.481  52.674  1.00  0.00    -0.360 N 
HETATM   30  C   UNL     1      28.715  45.859  55.384  1.00  0.00     0.002 A 
HETATM   31  C   UNL     1      27.679  46.766  55.187  1.00  0.00     0.001 A 
HETATM   32  C   UNL     1      28.563  42.322  52.521  1.00  0.00     0.155 C 
HETATM   33  C   UNL     1      26.604  43.702  51.899  1.00  0.00     0.101 A 
ENDBRANCH  21  24
ENDBRANCH  20  21
ENDBRANCH   2  20
TORSDOF 7
ENDMDL
MODEL 3
REMARK VINA RESULT:      -9.1      1.080      2.153
REMARK  7 active torsions:
REMARK  status: ('A' for Active; 'I' for Inactive)
REMARK       I    between atoms: C_2  and  N_3 
REMARK    1  A    between atoms: N_3  and  C_4 
REMARK    2  A    between atoms: C_7  and  N_8 
REMARK       I    between atoms: N_8  and  C_9 
REMARK    3  A    between atoms: C_9  and  C_10 
REMARK       I    between atoms: C_10  and  N_11 
REMARK    4  A    between atoms: N_11  and  C_12 
REMARK    5  A    between atoms: C_12  and  C_13 
REMARK    6  A    between atoms: C_13  and  O_14 
REMARK    7  A    between atoms: C_13  and  C_15 
ROOT
HETATM    1  C   UNL     1      26.860  41.803  51.450  1.00  0.00     0.309 C 
HETATM    2  N   UNL     1      27.295  42.133  52.712  1.00  0.00    -0.350 N 
HETATM    3  O   UNL     1      27.289  40.891  50.757  1.00  0.00    -0.262 OA
HETATM    4  H   UNL     1      26.868  42.946  53.152  1.00  0.00     0.163 HD
ENDROOT
BRANCH   1   5
HETATM    5  C   UNL     1      25.754  42.733  50.907  1.00  0.00     0.313 C 
HETATM    6  N   UNL     1      26.206  44.022  50.736  1.00  0.00    -0.319 N 
HETATM    7  H   UNL     1      27.191  44.154  50.950  1.00  0.00     0.169 HD
HETATM    8  O   UNL     1      24.644  42.261  50.708  1.00  0.00    -0.262 OA
BRANCH   6   9
HETATM    9  C   UNL     1      25.459  45.153  50.370  1.00  0.00     0.035 A 
HETATM   10  C   UNL     1      24.487  45.152  49.371  1.00  0.00     0.032 A 
HETATM   11  C   UNL     1      23.742  46.309  49.097  1.00  0.00     0.032 A 
HETATM   12  C   UNL     1      23.963  47.485  49.813  1.00  0.00     0.034 A 
HETATM   13  C   UNL     1      24.956  47.492  50.797  1.00  0.00     0.032 A 
HETATM   14  C   UNL     1      25.694  46.336  51.077  1.00  0.00     0.032 A 
BRANCH  12  15
HETATM   15  N   UNL     1      23.240  48.679  49.616  1.00  0.00    -0.328 N 
HETATM   16  C   UNL     1      23.399  49.601  48.598  1.00  0.00     0.218 C 
HETATM   17  C   UNL     1      22.415  50.741  48.697  1.00  0.00     0.117 C 
HETATM   18  O   UNL     1      24.194  49.545  47.668  1.00  0.00    -0.274 OA
HETATM   19  H   UNL     1      22.499  48.862  50.282  1.00  0.00     0.169 HD
ENDBRANCH  12  15
ENDBRANCH   6   9
ENDBRANCH   1   5
BRANCH   2  20
HETATM   20  C   UNL     1      28.432  41.474  53.338  1.00  0.00     0.159 C 
BRANCH  20  21
HETATM   21  C   UNL     1      29.718  42.320  53.237  1.00  0.00     0.171 C 
BRANCH  21  22
HETATM   22  O   UNL     1      29.678  43.074  52.015  1.00  0.00    -0.389 OA
HETATM   23  H   UNL     1      30.571  43.015  51.637  1.00  0.00     0.210 HD
ENDBRANCH  21  22
BRANCH  21  24
HETATM   24  C   UNL     1      29.880  43.226  54.420  1.00  0.00     0.000 A 
HETATM   25  C   UNL     1      29.122  44.411  54.694  1.00  0.00     0.001 A 
HETATM   26  C   UNL     1      29.587  44.945  55.901  1.00  0.00     0.044 A 
HETATM   27  C   UNL     1      28.075  45.072  54.017  1.00  0.00     0.014 A 
HETATM   28  C   UNL     1      29.032  46.113  56.455  1.00  0.00     0.030 A 
HETATM   29  N   UNL     1      30.598  44.119  56.338  1.00  0.00    -0.360 N 
HETATM   30  C   UNL     1      27.993  46.744  55.766  1.00  0.00     0.002 A 
HETATM   31  C   UNL     1      27.519  46.234  54.563  1.00  0.00     0.001 A 
HETATM   32  C   UNL     1      31.372  44.269  57.551  1.00  0.00     0.155 C 
HETATM   33  C   UNL     1      30.783  43.087  55.457  1.00  0.00     0.101 A 
ENDBRANCH  21  24
ENDBRANCH  20  21
ENDBRANCH   2  20
TORSDOF 7
ENDMDL
MODEL 4
REMARK VINA RESULT:      -8.8      3.179     11.162
REMARK  7 active torsions:
REMARK  status: ('A' for Active; 'I' for Inactive)
REMARK       I    between atoms: C_2  and  N_3 
REMARK    1  A    between atoms: N_3  and  C_4 
REMARK    2  A    between atoms: C_7  and  N_8 
REMARK       I    between atoms: N_8  and  C_9 
REMARK    3  A    between atoms: C_9  and  C_10 
REMARK       I    between atoms: C_10  and  N_11 
REMARK    4  A    between atoms: N_11  and  C_12 
REMARK    5  A    between atoms: C_12  and  C_13 
REMARK    6  A    between atoms: C_13  and  O_14 
REMARK    7  A    between atoms: C_13  and  C_15 
ROOT
HETATM    1  C   UNL     1      22.550  47.793  48.558  1.00  0.00     0.309 C 
HETATM    2  N   UNL     1      21.424  47.078  48.896  1.00  0.00    -0.350 N 
HETATM    3  O   UNL     1      22.672  48.522  47.584  1.00  0.00    -0.262 OA
HETATM    4  H   UNL     1      21.484  46.480  49.718  1.00  0.00     0.163 HD
ENDROOT
BRANCH   1   5
HETATM    5  C   UNL     1      23.739  47.578  49.519  1.00  0.00     0.313 C 
HETATM    6  N   UNL     1      24.170  46.270  49.517  1.00  0.00    -0.319 N 
HETATM    7  H   UNL     1      23.675  45.665  48.865  1.00  0.00     0.169 HD
HETATM    8  O   UNL     1      24.147  48.534  50.161  1.00  0.00    -0.262 OA
BRANCH   6   9
HETATM    9  C   UNL     1      25.146  45.685  50.340  1.00  0.00     0.035 A 
HETATM   10  C   UNL     1      25.044  45.606  51.728  1.00  0.00     0.032 A 
HETATM   11  C   UNL     1      26.036  44.958  52.480  1.00  0.00     0.032 A 
HETATM   12  C   UNL     1      27.145  44.388  51.857  1.00  0.00     0.034 A 
HETATM   13  C   UNL     1      27.258  44.492  50.467  1.00  0.00     0.032 A 
HETATM   14  C   UNL     1      26.265  45.129  49.714  1.00  0.00     0.032 A 
BRANCH  12  15
HETATM   15  N   UNL     1      28.169  43.698  52.539  1.00  0.00    -0.328 N 
HETATM   16  C   UNL     1      28.819  44.087  53.696  1.00  0.00     0.218 C 
HETATM   17  C   UNL     1      29.836  43.070  54.152  1.00  0.00     0.117 C 
HETATM   18  O   UNL     1      28.618  45.103  54.351  1.00  0.00    -0.274 OA
HETATM   19  H   UNL     1      28.432  42.801  52.150  1.00  0.00     0.169 HD
ENDBRANCH  12  15
ENDBRANCH   6   9
ENDBRANCH   1   5
BRANCH   2  20
HETATM   20  C   UNL     1      20.250  47.027  48.037  1.00  0.00     0.159 C 
BRANCH  20  21
HETATM   21  C   UNL     1      18.944  47.243  48.829  1.00  0.00     0.171 C 
BRANCH  21  22
HETATM   22  O   UNL     1      19.265  47.350  50.225  1.00  0.00    -0.389 OA
HETATM   23  H   UNL     1      19.460  46.446  50.523  1.00  0.00     0.210 HD
ENDBRANCH  21  22
BRANCH  21  24
HETATM   24  C   UNL     1      18.204  48.457  48.356  1.00  0.00     0.000 A 
HETATM   25  C   UNL     1      18.654  49.815  48.442  1.00  0.00     0.001 A 
HETATM   26  C   UNL     1      17.666  50.629  47.875  1.00  0.00     0.044 A 
HETATM   27  C   UNL     1      19.822  50.421  48.952  1.00  0.00     0.014 A 
HETATM   28  C   UNL     1      17.815  52.025  47.793  1.00  0.00     0.030 A 
HETATM   29  N   UNL     1      16.649  49.794  47.468  1.00  0.00    -0.360 N 
HETATM   30  C   UNL     1      18.984  52.597  48.302  1.00  0.00     0.002 A 
HETATM   31  C   UNL     1      19.976  51.809  48.875  1.00  0.00     0.001 A 
HETATM   32  C   UNL     1      15.418  50.187  46.817  1.00  0.00     0.155 C 
HETATM   33  C   UNL     1      16.960  48.491  47.754  1.00  0.00     0.101 A 
ENDBRANCH  21  24
ENDBRANCH  20  21
ENDBRANCH   2  20
TORSDOF 7
ENDMDL
MODEL 5
REMARK VINA RESULT:      -8.8      2.489      4.342
REMARK  7 active torsions:
REMARK  status: ('A' for Active; 'I' for Inactive)
REMARK       I    between atoms: C_2  and  N_3 
REMARK    1  A    between atoms: N_3  and  C_4 
REMARK    2  A    between atoms: C_7  and  N_8 
REMARK       I    between atoms: N_8  and  C_9 
REMARK    3  A    between atoms: C_9  and  C_10 
REMARK       I    between atoms: C_10  and  N_11 
REMARK    4  A    between atoms: N_11  and  C_12 
REMARK    5  A    between atoms: C_12  and  C_13 
REMARK    6  A    between atoms: C_13  and  O_14 
REMARK    7  A    between atoms: C_13  and  C_15 
ROOT
HETATM    1  C   UNL     1      25.055  46.661  50.277  1.00  0.00     0.309 C 
HETATM    2  N   UNL     1      24.804  46.458  51.614  1.00  0.00    -0.350 N 
HETATM    3  O   UNL     1      25.775  45.970  49.568  1.00  0.00    -0.262 OA
HETATM    4  H   UNL     1      24.213  47.142  52.083  1.00  0.00     0.163 HD
ENDROOT
BRANCH   1   5
HETATM    5  C   UNL     1      24.366  47.913  49.693  1.00  0.00     0.313 C 
HETATM    6  N   UNL     1      23.004  47.742  49.580  1.00  0.00    -0.319 N 
HETATM    7  H   UNL     1      22.662  46.851  49.930  1.00  0.00     0.169 HD
HETATM    8  O   UNL     1      25.062  48.871  49.391  1.00  0.00    -0.262 OA
BRANCH   6   9
HETATM    9  C   UNL     1      22.075  48.615  48.992  1.00  0.00     0.035 A 
HETATM   10  C   UNL     1      22.010  49.980  49.266  1.00  0.00     0.032 A 
HETATM   11  C   UNL     1      21.089  50.800  48.598  1.00  0.00     0.032 A 
HETATM   12  C   UNL     1      20.213  50.266  47.653  1.00  0.00     0.034 A 
HETATM   13  C   UNL     1      20.262  48.892  47.398  1.00  0.00     0.032 A 
HETATM   14  C   UNL     1      21.187  48.074  48.057  1.00  0.00     0.032 A 
BRANCH  12  15
HETATM   15  N   UNL     1      19.278  51.027  46.921  1.00  0.00    -0.328 N 
HETATM   16  C   UNL     1      17.933  51.197  47.196  1.00  0.00     0.218 C 
HETATM   17  C   UNL     1      17.257  52.114  46.207  1.00  0.00     0.117 C 
HETATM   18  O   UNL     1      17.306  50.725  48.137  1.00  0.00    -0.274 OA
HETATM   19  H   UNL     1      19.645  51.529  46.123  1.00  0.00     0.169 HD
ENDBRANCH  12  15
ENDBRANCH   6   9
ENDBRANCH   1   5
BRANCH   2  20
HETATM   20  C   UNL     1      25.478  45.423  52.383  1.00  0.00     0.159 C 
BRANCH  20  21
HETATM   21  C   UNL     1      26.388  46.017  53.478  1.00  0.00     0.171 C 
BRANCH  21  22
HETATM   22  O   UNL     1      25.610  46.202  54.672  1.00  0.00    -0.389 OA
HETATM   23  H   UNL     1      24.704  45.936  54.443  1.00  0.00     0.210 HD
ENDBRANCH  21  22
BRANCH  21  24
HETATM   24  C   UNL     1      27.577  45.144  53.744  1.00  0.00     0.000 A 
HETATM   25  C   UNL     1      28.479  45.252  54.852  1.00  0.00     0.001 A 
HETATM   26  C   UNL     1      29.436  44.238  54.723  1.00  0.00     0.044 A 
HETATM   27  C   UNL     1      28.560  46.125  55.959  1.00  0.00     0.014 A 
HETATM   28  C   UNL     1      30.463  44.065  55.669  1.00  0.00     0.030 A 
HETATM   29  N   UNL     1      29.130  43.547  53.572  1.00  0.00    -0.360 N 
HETATM   30  C   UNL     1      30.516  44.942  56.756  1.00  0.00     0.002 A 
HETATM   31  C   UNL     1      29.579  45.959  56.902  1.00  0.00     0.001 A 
HETATM   32  C   UNL     1      29.840  42.406  53.036  1.00  0.00     0.155 C 
HETATM   33  C   UNL     1      28.019  44.084  52.977  1.00  0.00     0.101 A 
ENDBRANCH  21  24
ENDBRANCH  20  21
ENDBRANCH   2  20
TORSDOF 7
ENDMDL
MODEL 6
REMARK VINA RESULT:      -8.6      3.623     11.655
REMARK  7 active torsions:
REMARK  status: ('A' for Active; 'I' for Inactive)
REMARK       I    between atoms: C_2  and  N_3 
REMARK    1  A    between atoms: N_3  and  C_4 
REMARK    2  A    between atoms: C_7  and  N_8 
REMARK       I    between atoms: N_8  and  C_9 
REMARK    3  A    between atoms: C_9  and  C_10 
REMARK       I    between atoms: C_10  and  N_11 
REMARK    4  A    between atoms: N_11  and  C_12 
REMARK    5  A    between atoms: C_12  and  C_13 
REMARK    6  A    between atoms: C_13  and  O_14 
REMARK    7  A    between atoms: C_13  and  C_15 
ROOT
HETATM    1  C   UNL     1      22.709  48.276  48.835  1.00  0.00     0.309 C 
HETATM    2  N   UNL     1      21.912  49.087  49.609  1.00  0.00    -0.350 N 
HETATM    3  O   UNL     1      22.502  47.967  47.670  1.00  0.00    -0.262 OA
HETATM    4  H   UNL     1      22.193  49.223  50.578  1.00  0.00     0.163 HD
ENDROOT
BRANCH   1   5
HETATM    5  C   UNL     1      23.937  47.710  49.579  1.00  0.00     0.313 C 
HETATM    6  N   UNL     1      23.896  46.336  49.666  1.00  0.00    -0.319 N 
HETATM    7  H   UNL     1      23.100  45.909  49.199  1.00  0.00     0.169 HD
HETATM    8  O   UNL     1      24.770  48.496  50.008  1.00  0.00    -0.262 OA
BRANCH   6   9
HETATM    9  C   UNL     1      24.776  45.493  50.363  1.00  0.00     0.035 A 
HETATM   10  C   UNL     1      24.468  44.884  51.578  1.00  0.00     0.032 A 
HETATM   11  C   UNL     1      25.379  44.009  52.189  1.00  0.00     0.032 A 
HETATM   12  C   UNL     1      26.612  43.737  51.599  1.00  0.00     0.034 A 
HETATM   13  C   UNL     1      26.930  44.369  50.393  1.00  0.00     0.032 A 
HETATM   14  C   UNL     1      26.019  45.235  49.777  1.00  0.00     0.032 A 
BRANCH  12  15
HETATM   15  N   UNL     1      27.569  42.851  52.136  1.00  0.00    -0.328 N 
HETATM   16  C   UNL     1      27.631  41.480  51.972  1.00  0.00     0.218 C 
HETATM   17  C   UNL     1      28.823  40.871  52.669  1.00  0.00     0.117 C 
HETATM   18  O   UNL     1      26.868  40.779  51.318  1.00  0.00    -0.274 OA
HETATM   19  H   UNL     1      28.312  43.277  52.676  1.00  0.00     0.169 HD
ENDBRANCH  12  15
ENDBRANCH   6   9
ENDBRANCH   1   5
BRANCH   2  20
HETATM   20  C   UNL     1      20.632  49.595  49.139  1.00  0.00     0.159 C 
BRANCH  20  21
HETATM   21  C   UNL     1      19.452  48.734  49.632  1.00  0.00     0.171 C 
BRANCH  21  22
HETATM   22  O   UNL     1      19.410  48.789  51.067  1.00  0.00    -0.389 OA
HETATM   23  H   UNL     1      18.605  49.285  51.291  1.00  0.00     0.210 HD
ENDBRANCH  21  22
BRANCH  21  24
HETATM   24  C   UNL     1      18.151  49.186  49.041  1.00  0.00     0.000 A 
HETATM   25  C   UNL     1      17.555  50.481  49.187  1.00  0.00     0.001 A 
HETATM   26  C   UNL     1      16.355  50.482  48.467  1.00  0.00     0.044 A 
HETATM   27  C   UNL     1      17.938  51.656  49.870  1.00  0.00     0.014 A 
HETATM   28  C   UNL     1      15.533  51.621  48.401  1.00  0.00     0.030 A 
HETATM   29  N   UNL     1      16.223  49.228  47.912  1.00  0.00    -0.360 N 
HETATM   30  C   UNL     1      15.939  52.772  49.082  1.00  0.00     0.002 A 
HETATM   31  C   UNL     1      17.125  52.792  49.808  1.00  0.00     0.001 A 
HETATM   32  C   UNL     1      15.139  48.765  47.074  1.00  0.00     0.155 C 
HETATM   33  C   UNL     1      17.293  48.443  48.252  1.00  0.00     0.101 A 
ENDBRANCH  21  24
ENDBRANCH  20  21
ENDBRANCH   2  20
TORSDOF 7
ENDMDL
MODEL 7
REMARK VINA RESULT:      -8.5      2.304      3.517
REMARK  7 active torsions:
REMARK  status: ('A' for Active; 'I' for Inactive)
REMARK       I    between atoms: C_2  and  N_3 
REMARK    1  A    between atoms: N_3  and  C_4 
REMARK    2  A    between atoms: C_7  and  N_8 
REMARK       I    between atoms: N_8  and  C_9 
REMARK    3  A    between atoms: C_9  and  C_10 
REMARK       I    between atoms: C_10  and  N_11 
REMARK    4  A    between atoms: N_11  and  C_12 
REMARK    5  A    between atoms: C_12  and  C_13 
REMARK    6  A    between atoms: C_13  and  O_14 
REMARK    7  A    between atoms: C_13  and  C_15 
ROOT
HETATM    1  C   UNL     1      23.924  43.409  49.217  1.00  0.00     0.309 C 
HETATM    2  N   UNL     1      24.715  43.552  50.333  1.00  0.00    -0.350 N 
HETATM    3  O   UNL     1      24.028  42.532  48.370  1.00  0.00    -0.262 OA
HETATM    4  H   UNL     1      24.534  44.357  50.929  1.00  0.00     0.163 HD
ENDROOT
BRANCH   1   5
HETATM    5  C   UNL     1      22.854  44.510  49.063  1.00  0.00     0.313 C 
HETATM    6  N   UNL     1      23.419  45.746  48.836  1.00  0.00    -0.319 N 
HETATM    7  H   UNL     1      24.433  45.737  48.765  1.00  0.00     0.169 HD
HETATM    8  O   UNL     1      21.677  44.196  49.167  1.00  0.00    -0.262 OA
BRANCH   6   9
HETATM    9  C   UNL     1      22.767  46.987  48.759  1.00  0.00     0.035 A 
HETATM   10  C   UNL     1      23.221  48.143  49.393  1.00  0.00     0.032 A 
HETATM   11  C   UNL     1      22.546  49.361  49.225  1.00  0.00     0.032 A 
HETATM   12  C   UNL     1      21.404  49.440  48.429  1.00  0.00     0.034 A 
HETATM   13  C   UNL     1      20.936  48.274  47.815  1.00  0.00     0.032 A 
HETATM   14  C   UNL     1      21.613  47.060  47.973  1.00  0.00     0.032 A 
BRANCH  12  15
HETATM   15  N   UNL     1      20.686  50.630  48.190  1.00  0.00    -0.328 N 
HETATM   16  C   UNL     1      19.608  51.120  48.904  1.00  0.00     0.218 C 
HETATM   17  C   UNL     1      19.122  52.446  48.373  1.00  0.00     0.117 C 
HETATM   18  O   UNL     1      19.081  50.613  49.887  1.00  0.00    -0.274 OA
HETATM   19  H   UNL     1      21.023  51.203  47.426  1.00  0.00     0.169 HD
ENDBRANCH  12  15
ENDBRANCH   6   9
ENDBRANCH   1   5
BRANCH   2  20
HETATM   20  C   UNL     1      25.874  42.706  50.577  1.00  0.00     0.159 C 
BRANCH  20  21
HETATM   21  C   UNL     1      27.186  43.516  50.608  1.00  0.00     0.171 C 
BRANCH  21  22
HETATM   22  O   UNL     1      27.129  44.523  49.585  1.00  0.00    -0.389 OA
HETATM   23  H   UNL     1      28.052  44.728  49.362  1.00  0.00     0.210 HD
ENDBRANCH  21  22
BRANCH  21  24
HETATM   24  C   UNL     1      27.424  44.133  51.953  1.00  0.00     0.000 A 
HETATM   25  C   UNL     1      28.481  43.804  52.863  1.00  0.00     0.001 A 
HETATM   26  C   UNL     1      28.343  44.622  53.990  1.00  0.00     0.044 A 
HETATM   27  C   UNL     1      29.548  42.881  52.821  1.00  0.00     0.014 A 
HETATM   28  C   UNL     1      29.241  44.551  55.070  1.00  0.00     0.030 A 
HETATM   29  N   UNL     1      27.235  45.412  53.775  1.00  0.00    -0.360 N 
HETATM   30  C   UNL     1      30.291  43.631  54.999  1.00  0.00     0.002 A 
HETATM   31  C   UNL     1      30.444  42.805  53.892  1.00  0.00     0.001 A 
HETATM   32  C   UNL     1      26.708  46.420  54.668  1.00  0.00     0.155 C 
HETATM   33  C   UNL     1      26.676  45.125  52.558  1.00  0.00     0.101 A 
ENDBRANCH  21  24
ENDBRANCH  20  21
ENDBRANCH   2  20
TORSDOF 7
ENDMDL
MODEL 8
REMARK VINA RESULT:      -8.3      3.136     11.685
REMARK  7 active torsions:
REMARK  status: ('A' for Active; 'I' for Inactive)
REMARK       I    between atoms: C_2  and  N_3 
REMARK    1  A    between atoms: N_3  and  C_4 
REMARK    2  A    between atoms: C_7  and  N_8 
REMARK       I    between atoms: N_8  and  C_9 
REMARK    3  A    between atoms: C_9  and  C_10 
REMARK       I    between atoms: C_10  and  N_11 
REMARK    4  A    between atoms: N_11  and  C_12 
REMARK    5  A    between atoms: C_12  and  C_13 
REMARK    6  A    between atoms: C_13  and  O_14 
REMARK    7  A    between atoms: C_13  and  C_15 
ROOT
HETATM    1  C   UNL     1      22.942  47.577  49.244  1.00  0.00     0.309 C 
HETATM    2  N   UNL     1      22.275  48.705  49.662  1.00  0.00    -0.350 N 
HETATM    3  O   UNL     1      22.566  46.800  48.378  1.00  0.00    -0.262 OA
HETATM    4  H   UNL     1      22.694  49.235  50.423  1.00  0.00     0.163 HD
ENDROOT
BRANCH   1   5
HETATM    5  C   UNL     1      24.257  47.309  50.006  1.00  0.00     0.313 C 
HETATM    6  N   UNL     1      24.317  46.020  50.487  1.00  0.00    -0.319 N 
HETATM    7  H   UNL     1      23.521  45.440  50.236  1.00  0.00     0.169 HD
HETATM    8  O   UNL     1      25.062  48.222  50.115  1.00  0.00    -0.262 OA
BRANCH   6   9
HETATM    9  C   UNL     1      25.302  45.457  51.316  1.00  0.00     0.035 A 
HETATM   10  C   UNL     1      25.188  45.361  52.701  1.00  0.00     0.032 A 
HETATM   11  C   UNL     1      26.190  44.736  53.458  1.00  0.00     0.032 A 
HETATM   12  C   UNL     1      27.322  44.206  52.843  1.00  0.00     0.034 A 
HETATM   13  C   UNL     1      27.447  44.326  51.455  1.00  0.00     0.032 A 
HETATM   14  C   UNL     1      26.444  44.941  50.697  1.00  0.00     0.032 A 
BRANCH  12  15
HETATM   15  N   UNL     1      28.359  43.540  53.529  1.00  0.00    -0.328 N 
HETATM   16  C   UNL     1      29.194  44.061  54.501  1.00  0.00     0.218 C 
HETATM   17  C   UNL     1      30.163  43.034  55.036  1.00  0.00     0.117 C 
HETATM   18  O   UNL     1      29.181  45.199  54.955  1.00  0.00    -0.274 OA
HETATM   19  H   UNL     1      28.481  42.561  53.304  1.00  0.00     0.169 HD
ENDBRANCH  12  15
ENDBRANCH   6   9
ENDBRANCH   1   5
BRANCH   2  20
HETATM   20  C   UNL     1      20.947  49.048  49.174  1.00  0.00     0.159 C 
BRANCH  20  21
HETATM   21  C   UNL     1      20.834  50.540  48.803  1.00  0.00     0.171 C 
BRANCH  21  22
HETATM   22  O   UNL     1      22.001  50.918  48.055  1.00  0.00    -0.389 OA
HETATM   23  H   UNL     1      22.005  51.889  48.042  1.00  0.00     0.210 HD
ENDBRANCH  21  22
BRANCH  21  24
HETATM   24  C   UNL     1      19.585  50.825  48.026  1.00  0.00     0.000 A 
HETATM   25  C   UNL     1      18.409  51.481  48.517  1.00  0.00     0.001 A 
HETATM   26  C   UNL     1      17.489  51.553  47.465  1.00  0.00     0.044 A 
HETATM   27  C   UNL     1      18.051  52.025  49.770  1.00  0.00     0.014 A 
HETATM   28  C   UNL     1      16.229  52.158  47.623  1.00  0.00     0.030 A 
HETATM   29  N   UNL     1      18.083  50.952  46.377  1.00  0.00    -0.360 N 
HETATM   30  C   UNL     1      15.904  52.692  48.873  1.00  0.00     0.002 A 
HETATM   31  C   UNL     1      16.800  52.627  49.934  1.00  0.00     0.001 A 
HETATM   32  C   UNL     1      17.510  50.798  45.057  1.00  0.00     0.155 C 
HETATM   33  C   UNL     1      19.337  50.510  46.703  1.00  0.00     0.101 A 
ENDBRANCH  21  24
ENDBRANCH  20  21
ENDBRANCH   2  20
TORSDOF 7
ENDMDL
MODEL 9
REMARK VINA RESULT:      -8.3      3.281     11.652
REMARK  7 active torsions:
REMARK  status: ('A' for Active; 'I' for Inactive)
REMARK       I    between atoms: C_2  and  N_3 
REMARK    1  A    between atoms: N_3  and  C_4 
REMARK    2  A    between atoms: C_7  and  N_8 
REMARK       I    between atoms: N_8  and  C_9 
REMARK    3  A    between atoms: C_9  and  C_10 
REMARK       I    between atoms: C_10  and  N_11 
REMARK    4  A    between atoms: N_11  and  C_12 
REMARK    5  A    between atoms: C_12  and  C_13 
REMARK    6  A    between atoms: C_13  and  O_14 
REMARK    7  A    between atoms: C_13  and  C_15 
ROOT
HETATM    1  C   UNL     1      23.063  48.682  48.943  1.00  0.00     0.309 C 
HETATM    2  N   UNL     1      22.388  49.456  49.858  1.00  0.00    -0.350 N 
HETATM    3  O   UNL     1      22.848  48.640  47.739  1.00  0.00    -0.262 OA
HETATM    4  H   UNL     1      22.654  49.356  50.835  1.00  0.00     0.163 HD
ENDROOT
BRANCH   1   5
HETATM    5  C   UNL     1      24.153  47.784  49.566  1.00  0.00     0.313 C 
HETATM    6  N   UNL     1      23.799  46.453  49.536  1.00  0.00    -0.319 N 
HETATM    7  H   UNL     1      22.910  46.265  49.080  1.00  0.00     0.169 HD
HETATM    8  O   UNL     1      25.159  48.316  50.013  1.00  0.00    -0.262 OA
BRANCH   6   9
HETATM    9  C   UNL     1      24.484  45.369  50.108  1.00  0.00     0.035 A 
HETATM   10  C   UNL     1      25.152  44.395  49.368  1.00  0.00     0.032 A 
HETATM   11  C   UNL     1      25.861  43.370  50.012  1.00  0.00     0.032 A 
HETATM   12  C   UNL     1      25.906  43.300  51.403  1.00  0.00     0.034 A 
HETATM   13  C   UNL     1      25.215  44.263  52.144  1.00  0.00     0.032 A 
HETATM   14  C   UNL     1      24.514  45.291  51.504  1.00  0.00     0.032 A 
BRANCH  12  15
HETATM   15  N   UNL     1      26.618  42.318  52.124  1.00  0.00    -0.328 N 
HETATM   16  C   UNL     1      27.949  42.350  52.498  1.00  0.00     0.218 C 
HETATM   17  C   UNL     1      28.350  41.133  53.295  1.00  0.00     0.117 C 
HETATM   18  O   UNL     1      28.757  43.245  52.281  1.00  0.00    -0.274 OA
HETATM   19  H   UNL     1      26.081  41.516  52.426  1.00  0.00     0.169 HD
ENDBRANCH  12  15
ENDBRANCH   6   9
ENDBRANCH   1   5
BRANCH   2  20
HETATM   20  C   UNL     1      21.228  50.256  49.493  1.00  0.00     0.159 C 
BRANCH  20  21
HETATM   21  C   UNL     1      19.965  49.390  49.304  1.00  0.00     0.171 C 
BRANCH  21  22
HETATM   22  O   UNL     1      19.703  48.686  50.528  1.00  0.00    -0.389 OA
HETATM   23  H   UNL     1      20.311  47.929  50.536  1.00  0.00     0.210 HD
ENDBRANCH  21  22
BRANCH  21  24
HETATM   24  C   UNL     1      18.783  50.216  48.898  1.00  0.00     0.000 A 
HETATM   25  C   UNL     1      18.433  50.600  47.562  1.00  0.00     0.001 A 
HETATM   26  C   UNL     1      17.255  51.354  47.629  1.00  0.00     0.044 A 
HETATM   27  C   UNL     1      19.017  50.366  46.299  1.00  0.00     0.014 A 
HETATM   28  C   UNL     1      16.641  51.871  46.475  1.00  0.00     0.030 A 
HETATM   29  N   UNL     1      16.909  51.432  48.960  1.00  0.00    -0.360 N 
HETATM   30  C   UNL     1      17.239  51.619  45.237  1.00  0.00     0.002 A 
HETATM   31  C   UNL     1      18.412  50.878  45.147  1.00  0.00     0.001 A 
HETATM   32  C   UNL     1      15.756  52.107  49.514  1.00  0.00     0.155 C 
HETATM   33  C   UNL     1      17.820  50.757  49.729  1.00  0.00     0.101 A 
ENDBRANCH  21  24
ENDBRANCH  20  21
ENDBRANCH   2  20
TORSDOF 7
ENDMDL
MODEL 10
REMARK VINA RESULT:      -8.3      2.899      4.087
REMARK  7 active torsions:
REMARK  status: ('A' for Active; 'I' for Inactive)
REMARK       I    between atoms: C_2  and  N_3 
REMARK    1  A    between atoms: N_3  and  C_4 
REMARK    2  A    between atoms: C_7  and  N_8 
REMARK       I    between atoms: N_8  and  C_9 
REMARK    3  A    between atoms: C_9  and  C_10 
REMARK       I    between atoms: C_10  and  N_11 
REMARK    4  A    between atoms: N_11  and  C_12 
REMARK    5  A    between atoms: C_12  and  C_13 
REMARK    6  A    between atoms: C_13  and  O_14 
REMARK    7  A    between atoms: C_13  and  C_15 
ROOT
HETATM    1  C   UNL     1      24.732  44.982  51.727  1.00  0.00     0.309 C 
HETATM    2  N   UNL     1      25.304  45.958  52.509  1.00  0.00    -0.350 N 
HETATM    3  O   UNL     1      24.427  43.855  52.093  1.00  0.00    -0.262 OA
HETATM    4  H   UNL     1      25.539  46.838  52.053  1.00  0.00     0.163 HD
ENDROOT
BRANCH   1   5
HETATM    5  C   UNL     1      24.517  45.403  50.257  1.00  0.00     0.313 C 
HETATM    6  N   UNL     1      23.254  45.082  49.812  1.00  0.00    -0.319 N 
HETATM    7  H   UNL     1      22.653  44.663  50.517  1.00  0.00     0.169 HD
HETATM    8  O   UNL     1      25.443  45.935  49.664  1.00  0.00    -0.262 OA
BRANCH   6   9
HETATM    9  C   UNL     1      22.744  45.209  48.510  1.00  0.00     0.035 A 
HETATM   10  C   UNL     1      22.816  44.205  47.546  1.00  0.00     0.032 A 
HETATM   11  C   UNL     1      22.235  44.386  46.282  1.00  0.00     0.032 A 
HETATM   12  C   UNL     1      21.582  45.575  45.961  1.00  0.00     0.034 A 
HETATM   13  C   UNL     1      21.533  46.591  46.920  1.00  0.00     0.032 A 
HETATM   14  C   UNL     1      22.104  46.409  48.184  1.00  0.00     0.032 A 
BRANCH  12  15
HETATM   15  N   UNL     1      20.951  45.823  44.724  1.00  0.00    -0.328 N 
HETATM   16  C   UNL     1      21.540  45.871  43.474  1.00  0.00     0.218 C 
HETATM   17  C   UNL     1      20.537  46.126  42.376  1.00  0.00     0.117 C 
HETATM   18  O   UNL     1      22.723  45.696  43.207  1.00  0.00    -0.274 OA
HETATM   19  H   UNL     1      19.947  45.948  44.757  1.00  0.00     0.169 HD
ENDBRANCH  12  15
ENDBRANCH   6   9
ENDBRANCH   1   5
BRANCH   2  20
HETATM   20  C   UNL     1      25.725  45.708  53.879  1.00  0.00     0.159 C 
BRANCH  20  21
HETATM   21  C   UNL     1      26.719  46.774  54.383  1.00  0.00     0.171 C 
BRANCH  21  22
HETATM   22  O   UNL     1      26.016  47.698  55.228  1.00  0.00    -0.389 OA
HETATM   23  H   UNL     1      25.218  47.954  54.736  1.00  0.00     0.210 HD
ENDBRANCH  21  22
BRANCH  21  24
HETATM   24  C   UNL     1      27.874  46.155  55.111  1.00  0.00     0.000 A 
HETATM   25  C   UNL     1      28.661  45.043  54.667  1.00  0.00     0.001 A 
HETATM   26  C   UNL     1      29.639  44.798  55.638  1.00  0.00     0.044 A 
HETATM   27  C   UNL     1      28.626  44.225  53.517  1.00  0.00     0.014 A 
HETATM   28  C   UNL     1      30.587  43.769  55.491  1.00  0.00     0.030 A 
HETATM   29  N   UNL     1      29.445  45.724  56.640  1.00  0.00    -0.360 N 
HETATM   30  C   UNL     1      30.531  42.978  54.340  1.00  0.00     0.002 A 
HETATM   31  C   UNL     1      29.565  43.200  53.365  1.00  0.00     0.001 A 
HETATM   32  C   UNL     1      30.225  45.862  57.850  1.00  0.00     0.155 C 
HETATM   33  C   UNL     1      28.388  46.539  56.335  1.00  0.00     0.101 A 
ENDBRANCH  21  24
ENDBRANCH  20  21
ENDBRANCH   2  20
TORSDOF 7
ENDMDL
