MODEL 1
REMARK VINA RESULT:      -8.5      0.000      0.000
REMARK  6 active torsions:
REMARK  status: ('A' for Active; 'I' for Inactive)
REMARK    1  A    between atoms: C_4  and  C_5 
REMARK    2  A    between atoms: C_5  and  N_6 
REMARK       I    between atoms: N_6  and  C_7 
REMARK       I    between atoms: C_7  and  N_8 
REMARK    3  A    between atoms: N_8  and  C_9 
REMARK    4  A    between atoms: C_9  and  C_10 
REMARK    5  A    between atoms: C_12  and  O_13 
REMARK    6  A    between atoms: O_13  and  C_14 
ROOT
HETATM    1  N   UNL     1      26.595  45.269  52.515  1.00  0.00    -0.333 N 
HETATM    2  C   UNL     1      25.335  45.420  52.038  1.00  0.00     0.317 C 
HETATM    3  N   UNL     1      25.136  46.455  51.187  1.00  0.00    -0.339 N 
HETATM    4  O   UNL     1      24.402  44.676  52.323  1.00  0.00    -0.247 OA
HETATM    5  H   UNL     1      27.194  46.081  52.542  1.00  0.00     0.165 HD
HETATM    6  H   UNL     1      24.178  46.527  50.869  1.00  0.00     0.164 HD
ENDROOT
BRANCH   3   7
HETATM    7  C   UNL     1      26.117  47.328  50.581  1.00  0.00     0.163 C 
BRANCH   7   8
HETATM    8  C   UNL     1      25.557  48.288  49.562  1.00  0.00    -0.035 A 
HETATM    9  C   UNL     1      24.195  48.388  49.264  1.00  0.00     0.066 A 
HETATM   10  C   UNL     1      23.788  49.282  48.284  1.00  0.00     0.164 A 
HETATM   11  N   UNL     1      24.626  50.084  47.597  1.00  0.00    -0.237 NA
HETATM   12  C   UNL     1      25.934  49.987  47.904  1.00  0.00     0.120 A 
HETATM   13  C   UNL     1      26.440  49.119  48.862  1.00  0.00     0.028 A 
BRANCH  10  14
HETATM   14  O   UNL     1      22.434  49.328  48.012  1.00  0.00    -0.329 OA
BRANCH  14  15
HETATM   15  C   UNL     1      21.814  50.628  48.112  1.00  0.00     0.130 C 
HETATM   16  C   UNL     1      20.373  50.757  47.545  1.00  0.00     0.032 C 
HETATM   17  C   UNL     1      20.040  51.641  48.759  1.00  0.00     0.005 C 
HETATM   18  C   UNL     1      21.198  50.949  49.499  1.00  0.00     0.032 C 
ENDBRANCH  14  15
ENDBRANCH  10  14
ENDBRANCH   7   8
ENDBRANCH   3   7
BRANCH   1  19
HETATM   19  C   UNL     1      26.943  44.202  53.435  1.00  0.00     0.139 C 
HETATM   20  C   UNL     1      27.408  42.958  52.681  1.00  0.00     0.039 C 
BRANCH  19  21
HETATM   21  C   UNL     1      28.018  44.694  54.356  1.00  0.00     0.075 A 
HETATM   22  O   UNL     1      29.019  43.819  54.680  1.00  0.00    -0.318 OA
HETATM   23  C   UNL     1      29.877  44.479  55.506  1.00  0.00     0.049 A 
HETATM   24  C   UNL     1      31.052  43.721  55.981  1.00  0.00     0.076 C 
HETATM   25  C   UNL     1      29.434  45.765  55.722  1.00  0.00     0.035 A 
HETATM   26  C   UNL     1      28.238  45.906  54.978  1.00  0.00     0.037 A 
ENDBRANCH  19  21
ENDBRANCH   1  19
TORSDOF 6
ENDMDL
MODEL 2
REMARK VINA RESULT:      -8.3      1.555      2.045
REMARK  6 active torsions:
REMARK  status: ('A' for Active; 'I' for Inactive)
REMARK    1  A    between atoms: C_4  and  C_5 
REMARK    2  A    between atoms: C_5  and  N_6 
REMARK       I    between atoms: N_6  and  C_7 
REMARK       I    between atoms: C_7  and  N_8 
REMARK    3  A    between atoms: N_8  and  C_9 
REMARK    4  A    between atoms: C_9  and  C_10 
REMARK    5  A    between atoms: C_12  and  O_13 
REMARK    6  A    between atoms: O_13  and  C_14 
ROOT
HETATM    1  N   UNL     1      26.515  45.564  53.248  1.00  0.00    -0.333 N 
HETATM    2  C   UNL     1      26.030  46.825  53.353  1.00  0.00     0.317 C 
HETATM    3  N   UNL     1      25.890  47.513  52.193  1.00  0.00    -0.339 N 
HETATM    4  O   UNL     1      25.709  47.349  54.414  1.00  0.00    -0.247 OA
HETATM    5  H   UNL     1      27.080  45.337  52.443  1.00  0.00     0.165 HD
HETATM    6  H   UNL     1      25.533  48.450  52.330  1.00  0.00     0.164 HD
ENDROOT
BRANCH   3   7
HETATM    7  C   UNL     1      26.029  47.033  50.837  1.00  0.00     0.163 C 
BRANCH   7   8
HETATM    8  C   UNL     1      25.917  48.101  49.779  1.00  0.00    -0.035 A 
HETATM    9  C   UNL     1      24.726  48.403  49.109  1.00  0.00     0.066 A 
HETATM   10  C   UNL     1      24.740  49.382  48.128  1.00  0.00     0.164 A 
HETATM   11  N   UNL     1      25.834  50.086  47.777  1.00  0.00    -0.237 NA
HETATM   12  C   UNL     1      26.971  49.795  48.439  1.00  0.00     0.120 A 
HETATM   13  C   UNL     1      27.062  48.828  49.430  1.00  0.00     0.028 A 
BRANCH  10  14
HETATM   14  O   UNL     1      23.543  49.627  47.482  1.00  0.00    -0.329 OA
BRANCH  14  15
HETATM   15  C   UNL     1      22.759  50.723  48.001  1.00  0.00     0.130 C 
HETATM   16  C   UNL     1      21.230  50.675  47.731  1.00  0.00     0.032 C 
HETATM   17  C   UNL     1      21.022  51.195  49.163  1.00  0.00     0.005 C 
HETATM   18  C   UNL     1      22.403  50.612  49.507  1.00  0.00     0.032 C 
ENDBRANCH  14  15
ENDBRANCH  10  14
ENDBRANCH   7   8
ENDBRANCH   3   7
BRANCH   1  19
HETATM   19  C   UNL     1      26.715  44.721  54.412  1.00  0.00     0.139 C 
HETATM   20  C   UNL     1      25.473  43.880  54.699  1.00  0.00     0.039 C 
BRANCH  19  21
HETATM   21  C   UNL     1      27.903  43.841  54.170  1.00  0.00     0.075 A 
HETATM   22  O   UNL     1      27.702  42.694  53.451  1.00  0.00    -0.318 OA
HETATM   23  C   UNL     1      28.908  42.070  53.347  1.00  0.00     0.049 A 
HETATM   24  C   UNL     1      28.931  40.798  52.595  1.00  0.00     0.076 C 
HETATM   25  C   UNL     1      29.879  42.799  53.996  1.00  0.00     0.035 A 
HETATM   26  C   UNL     1      29.234  43.943  54.524  1.00  0.00     0.037 A 
ENDBRANCH  19  21
ENDBRANCH   1  19
TORSDOF 6
ENDMDL
MODEL 3
REMARK VINA RESULT:      -8.3      2.707      4.047
REMARK  6 active torsions:
REMARK  status: ('A' for Active; 'I' for Inactive)
REMARK    1  A    between atoms: C_4  and  C_5 
REMARK    2  A    between atoms: C_5  and  N_6 
REMARK       I    between atoms: N_6  and  C_7 
REMARK       I    between atoms: C_7  and  N_8 
REMARK    3  A    between atoms: N_8  and  C_9 
REMARK    4  A    between atoms: C_9  and  C_10 
REMARK    5  A    between atoms: C_12  and  O_13 
REMARK    6  A    between atoms: O_13  and  C_14 
ROOT
HETATM    1  N   UNL     1      27.651  46.419  55.107  1.00  0.00    -0.333 N 
HETATM    2  C   UNL     1      26.898  47.533  54.937  1.00  0.00     0.317 C 
HETATM    3  N   UNL     1      25.908  47.453  54.015  1.00  0.00    -0.339 N 
HETATM    4  O   UNL     1      27.059  48.571  55.570  1.00  0.00    -0.247 OA
HETATM    5  H   UNL     1      27.712  45.764  54.341  1.00  0.00     0.165 HD
HETATM    6  H   UNL     1      25.384  48.313  53.922  1.00  0.00     0.164 HD
ENDROOT
BRANCH   3   7
HETATM    7  C   UNL     1      25.432  46.290  53.301  1.00  0.00     0.163 C 
BRANCH   7   8
HETATM    8  C   UNL     1      26.060  46.086  51.945  1.00  0.00    -0.035 A 
HETATM    9  C   UNL     1      26.093  47.072  50.954  1.00  0.00     0.066 A 
HETATM   10  C   UNL     1      26.666  46.770  49.728  1.00  0.00     0.164 A 
HETATM   11  N   UNL     1      27.215  45.577  49.423  1.00  0.00    -0.237 NA
HETATM   12  C   UNL     1      27.188  44.641  50.391  1.00  0.00     0.120 A 
HETATM   13  C   UNL     1      26.631  44.843  51.646  1.00  0.00     0.028 A 
BRANCH  10  14
HETATM   14  O   UNL     1      26.656  47.772  48.776  1.00  0.00    -0.329 OA
BRANCH  14  15
HETATM   15  C   UNL     1      25.822  48.913  49.070  1.00  0.00     0.130 C 
HETATM   16  C   UNL     1      25.880  50.095  48.065  1.00  0.00     0.032 C 
HETATM   17  C   UNL     1      24.357  50.234  48.232  1.00  0.00     0.005 C 
HETATM   18  C   UNL     1      24.335  48.755  48.657  1.00  0.00     0.032 C 
ENDBRANCH  14  15
ENDBRANCH  10  14
ENDBRANCH   7   8
ENDBRANCH   3   7
BRANCH   1  19
HETATM   19  C   UNL     1      28.744  46.371  56.062  1.00  0.00     0.139 C 
HETATM   20  C   UNL     1      28.219  46.384  57.495  1.00  0.00     0.039 C 
BRANCH  19  21
HETATM   21  C   UNL     1      29.551  45.135  55.805  1.00  0.00     0.075 A 
HETATM   22  O   UNL     1      30.489  44.791  56.739  1.00  0.00    -0.318 OA
HETATM   23  C   UNL     1      31.083  43.644  56.308  1.00  0.00     0.049 A 
HETATM   24  C   UNL     1      32.136  43.077  57.175  1.00  0.00     0.076 C 
HETATM   25  C   UNL     1      30.541  43.252  55.104  1.00  0.00     0.035 A 
HETATM   26  C   UNL     1      29.551  44.210  54.781  1.00  0.00     0.037 A 
ENDBRANCH  19  21
ENDBRANCH   1  19
TORSDOF 6
ENDMDL
MODEL 4
REMARK VINA RESULT:      -8.2      3.984      5.992
REMARK  6 active torsions:
REMARK  status: ('A' for Active; 'I' for Inactive)
REMARK    1  A    between atoms: C_4  and  C_5 
REMARK    2  A    between atoms: C_5  and  N_6 
REMARK       I    between atoms: N_6  and  C_7 
REMARK       I    between atoms: C_7  and  N_8 
REMARK    3  A    between atoms: N_8  and  C_9 
REMARK    4  A    between atoms: C_9  and  C_10 
REMARK    5  A    between atoms: C_12  and  O_13 
REMARK    6  A    between atoms: O_13  and  C_14 
ROOT
HETATM    1  N   UNL     1      27.708  46.394  55.027  1.00  0.00    -0.333 N 
HETATM    2  C   UNL     1      27.004  47.540  54.861  1.00  0.00     0.317 C 
HETATM    3  N   UNL     1      25.983  47.494  53.971  1.00  0.00    -0.339 N 
HETATM    4  O   UNL     1      27.234  48.579  55.471  1.00  0.00    -0.247 OA
HETATM    5  H   UNL     1      27.713  45.725  54.271  1.00  0.00     0.165 HD
HETATM    6  H   UNL     1      25.498  48.377  53.879  1.00  0.00     0.164 HD
ENDROOT
BRANCH   3   7
HETATM    7  C   UNL     1      25.429  46.344  53.292  1.00  0.00     0.163 C 
BRANCH   7   8
HETATM    8  C   UNL     1      25.970  46.115  51.903  1.00  0.00    -0.035 A 
HETATM    9  C   UNL     1      26.339  44.857  51.417  1.00  0.00     0.066 A 
HETATM   10  C   UNL     1      26.858  44.762  50.134  1.00  0.00     0.164 A 
HETATM   11  N   UNL     1      27.022  45.811  49.304  1.00  0.00    -0.237 NA
HETATM   12  C   UNL     1      26.650  47.014  49.780  1.00  0.00     0.120 A 
HETATM   13  C   UNL     1      26.128  47.215  51.051  1.00  0.00     0.028 A 
BRANCH  10  14
HETATM   14  O   UNL     1      27.226  43.499  49.708  1.00  0.00    -0.329 OA
BRANCH  14  15
HETATM   15  C   UNL     1      26.823  42.404  50.558  1.00  0.00     0.130 C 
HETATM   16  C   UNL     1      25.614  41.557  50.075  1.00  0.00     0.032 C 
HETATM   17  C   UNL     1      26.369  40.309  50.564  1.00  0.00     0.005 C 
HETATM   18  C   UNL     1      27.671  41.114  50.402  1.00  0.00     0.032 C 
ENDBRANCH  14  15
ENDBRANCH  10  14
ENDBRANCH   7   8
ENDBRANCH   3   7
BRANCH   1  19
HETATM   19  C   UNL     1      28.826  46.308  55.949  1.00  0.00     0.139 C 
HETATM   20  C   UNL     1      28.343  46.289  57.397  1.00  0.00     0.039 C 
BRANCH  19  21
HETATM   21  C   UNL     1      29.611  45.071  55.637  1.00  0.00     0.075 A 
HETATM   22  O   UNL     1      29.314  44.412  54.475  1.00  0.00    -0.318 OA
HETATM   23  C   UNL     1      30.149  43.340  54.396  1.00  0.00     0.049 A 
HETATM   24  C   UNL     1      30.011  42.480  53.203  1.00  0.00     0.076 C 
HETATM   25  C   UNL     1      30.974  43.298  55.498  1.00  0.00     0.035 A 
HETATM   26  C   UNL     1      30.631  44.415  56.297  1.00  0.00     0.037 A 
ENDBRANCH  19  21
ENDBRANCH   1  19
TORSDOF 6
ENDMDL
MODEL 5
REMARK VINA RESULT:      -8.0      2.216      8.871
REMARK  6 active torsions:
REMARK  status: ('A' for Active; 'I' for Inactive)
REMARK    1  A    between atoms: C_4  and  C_5 
REMARK    2  A    between atoms: C_5  and  N_6 
REMARK       I    between atoms: N_6  and  C_7 
REMARK       I    between atoms: C_7  and  N_8 
REMARK    3  A    between atoms: N_8  and  C_9 
REMARK    4  A    between atoms: C_9  and  C_10 
REMARK    5  A    between atoms: C_12  and  O_13 
REMARK    6  A    between atoms: O_13  and  C_14 
ROOT
HETATM    1  N   UNL     1      25.684  45.529  50.566  1.00  0.00    -0.333 N 
HETATM    2  C   UNL     1      24.866  44.468  50.365  1.00  0.00     0.317 C 
HETATM    3  N   UNL     1      25.452  43.340  49.895  1.00  0.00    -0.339 N 
HETATM    4  O   UNL     1      23.662  44.478  50.596  1.00  0.00    -0.247 OA
HETATM    5  H   UNL     1      26.542  45.577  50.036  1.00  0.00     0.165 HD
HETATM    6  H   UNL     1      24.796  42.582  49.754  1.00  0.00     0.164 HD
ENDROOT
BRANCH   3   7
HETATM    7  C   UNL     1      26.860  43.054  49.732  1.00  0.00     0.163 C 
BRANCH   7   8
HETATM    8  C   UNL     1      27.501  42.368  50.912  1.00  0.00    -0.035 A 
HETATM    9  C   UNL     1      27.629  42.960  52.173  1.00  0.00     0.066 A 
HETATM   10  C   UNL     1      28.266  42.254  53.182  1.00  0.00     0.164 A 
HETATM   11  N   UNL     1      28.766  41.011  53.037  1.00  0.00    -0.237 NA
HETATM   12  C   UNL     1      28.624  40.447  51.822  1.00  0.00     0.120 A 
HETATM   13  C   UNL     1      28.010  41.074  50.746  1.00  0.00     0.028 A 
BRANCH  10  14
HETATM   14  O   UNL     1      28.384  42.891  54.403  1.00  0.00    -0.329 OA
BRANCH  14  15
HETATM   15  C   UNL     1      29.535  43.749  54.558  1.00  0.00     0.130 C 
HETATM   16  C   UNL     1      29.379  44.955  55.525  1.00  0.00     0.032 C 
HETATM   17  C   UNL     1      30.810  44.670  56.014  1.00  0.00     0.005 C 
HETATM   18  C   UNL     1      30.613  43.219  55.540  1.00  0.00     0.032 C 
ENDBRANCH  14  15
ENDBRANCH  10  14
ENDBRANCH   7   8
ENDBRANCH   3   7
BRANCH   1  19
HETATM   19  C   UNL     1      25.184  46.797  51.067  1.00  0.00     0.139 C 
HETATM   20  C   UNL     1      25.781  47.121  52.434  1.00  0.00     0.039 C 
BRANCH  19  21
HETATM   21  C   UNL     1      25.521  47.870  50.076  1.00  0.00     0.075 A 
HETATM   22  O   UNL     1      24.483  48.590  49.550  1.00  0.00    -0.318 OA
HETATM   23  C   UNL     1      25.021  49.503  48.695  1.00  0.00     0.049 A 
HETATM   24  C   UNL     1      24.073  50.406  48.010  1.00  0.00     0.076 C 
HETATM   25  C   UNL     1      26.391  49.374  48.662  1.00  0.00     0.035 A 
HETATM   26  C   UNL     1      26.715  48.324  49.554  1.00  0.00     0.037 A 
ENDBRANCH  19  21
ENDBRANCH   1  19
TORSDOF 6
ENDMDL
MODEL 6
REMARK VINA RESULT:      -7.7      3.120      5.721
REMARK  6 active torsions:
REMARK  status: ('A' for Active; 'I' for Inactive)
REMARK    1  A    between atoms: C_4  and  C_5 
REMARK    2  A    between atoms: C_5  and  N_6 
REMARK       I    between atoms: N_6  and  C_7 
REMARK       I    between atoms: C_7  and  N_8 
REMARK    3  A    between atoms: N_8  and  C_9 
REMARK    4  A    between atoms: C_9  and  C_10 
REMARK    5  A    between atoms: C_12  and  O_13 
REMARK    6  A    between atoms: O_13  and  C_14 
ROOT
HETATM    1  N   UNL     1      24.980  49.111  49.119  1.00  0.00    -0.333 N 
HETATM    2  C   UNL     1      24.761  49.973  48.097  1.00  0.00     0.317 C 
HETATM    3  N   UNL     1      23.639  50.730  48.180  1.00  0.00    -0.339 N 
HETATM    4  O   UNL     1      25.514  50.104  47.138  1.00  0.00    -0.247 OA
HETATM    5  H   UNL     1      24.186  48.796  49.656  1.00  0.00     0.165 HD
HETATM    6  H   UNL     1      23.519  51.347  47.388  1.00  0.00     0.164 HD
ENDROOT
BRANCH   3   7
HETATM    7  C   UNL     1      22.724  50.868  49.291  1.00  0.00     0.163 C 
BRANCH   7   8
HETATM    8  C   UNL     1      21.270  50.703  48.929  1.00  0.00    -0.035 A 
HETATM    9  C   UNL     1      20.222  51.235  49.688  1.00  0.00     0.066 A 
HETATM   10  C   UNL     1      18.916  50.996  49.285  1.00  0.00     0.164 A 
HETATM   11  N   UNL     1      18.580  50.288  48.188  1.00  0.00    -0.237 NA
HETATM   12  C   UNL     1      19.599  49.794  47.460  1.00  0.00     0.120 A 
HETATM   13  C   UNL     1      20.937  49.971  47.783  1.00  0.00     0.028 A 
BRANCH  10  14
HETATM   14  O   UNL     1      17.917  51.525  50.080  1.00  0.00    -0.329 OA
BRANCH  14  15
HETATM   15  C   UNL     1      16.932  52.334  49.402  1.00  0.00     0.130 C 
HETATM   16  C   UNL     1      15.558  51.666  49.119  1.00  0.00     0.032 C 
HETATM   17  C   UNL     1      14.899  53.004  49.494  1.00  0.00     0.005 C 
HETATM   18  C   UNL     1      16.161  53.321  50.316  1.00  0.00     0.032 C 
ENDBRANCH  14  15
ENDBRANCH  10  14
ENDBRANCH   7   8
ENDBRANCH   3   7
BRANCH   1  19
HETATM   19  C   UNL     1      26.143  48.243  49.153  1.00  0.00     0.139 C 
HETATM   20  C   UNL     1      27.428  49.054  49.308  1.00  0.00     0.039 C 
BRANCH  19  21
HETATM   21  C   UNL     1      25.988  47.277  50.288  1.00  0.00     0.075 A 
HETATM   22  O   UNL     1      26.035  47.784  51.558  1.00  0.00    -0.318 OA
HETATM   23  C   UNL     1      25.862  46.740  52.414  1.00  0.00     0.049 A 
HETATM   24  C   UNL     1      25.869  47.058  53.856  1.00  0.00     0.076 C 
HETATM   25  C   UNL     1      25.711  45.567  51.708  1.00  0.00     0.035 A 
HETATM   26  C   UNL     1      25.789  45.912  50.338  1.00  0.00     0.037 A 
ENDBRANCH  19  21
ENDBRANCH   1  19
TORSDOF 6
ENDMDL
MODEL 7
REMARK VINA RESULT:      -7.7      1.734      2.430
REMARK  6 active torsions:
REMARK  status: ('A' for Active; 'I' for Inactive)
REMARK    1  A    between atoms: C_4  and  C_5 
REMARK    2  A    between atoms: C_5  and  N_6 
REMARK       I    between atoms: N_6  and  C_7 
REMARK       I    between atoms: C_7  and  N_8 
REMARK    3  A    between atoms: N_8  and  C_9 
REMARK    4  A    between atoms: C_9  and  C_10 
REMARK    5  A    between atoms: C_12  and  O_13 
REMARK    6  A    between atoms: O_13  and  C_14 
ROOT
HETATM    1  N   UNL     1      27.205  43.659  52.989  1.00  0.00    -0.333 N 
HETATM    2  C   UNL     1      26.041  44.234  53.379  1.00  0.00     0.317 C 
HETATM    3  N   UNL     1      25.532  45.178  52.551  1.00  0.00    -0.339 N 
HETATM    4  O   UNL     1      25.442  43.937  54.407  1.00  0.00    -0.247 OA
HETATM    5  H   UNL     1      27.807  44.177  52.366  1.00  0.00     0.165 HD
HETATM    6  H   UNL     1      24.669  45.581  52.894  1.00  0.00     0.164 HD
ENDROOT
BRANCH   3   7
HETATM    7  C   UNL     1      25.968  45.544  51.222  1.00  0.00     0.163 C 
BRANCH   7   8
HETATM    8  C   UNL     1      24.897  46.161  50.358  1.00  0.00    -0.035 A 
HETATM    9  C   UNL     1      24.586  47.525  50.373  1.00  0.00     0.066 A 
HETATM   10  C   UNL     1      23.559  47.986  49.564  1.00  0.00     0.164 A 
HETATM   11  N   UNL     1      22.836  47.202  48.739  1.00  0.00    -0.237 NA
HETATM   12  C   UNL     1      23.155  45.894  48.724  1.00  0.00     0.120 A 
HETATM   13  C   UNL     1      24.159  45.335  49.502  1.00  0.00     0.028 A 
BRANCH  10  14
HETATM   14  O   UNL     1      23.277  49.338  49.630  1.00  0.00    -0.329 OA
BRANCH  14  15
HETATM   15  C   UNL     1      21.955  49.729  49.203  1.00  0.00     0.130 C 
HETATM   16  C   UNL     1      21.288  50.894  49.984  1.00  0.00     0.032 C 
HETATM   17  C   UNL     1      20.760  51.416  48.637  1.00  0.00     0.005 C 
HETATM   18  C   UNL     1      21.923  50.663  47.965  1.00  0.00     0.032 C 
ENDBRANCH  14  15
ENDBRANCH  10  14
ENDBRANCH   7   8
ENDBRANCH   3   7
BRANCH   1  19
HETATM   19  C   UNL     1      27.857  42.635  53.784  1.00  0.00     0.139 C 
HETATM   20  C   UNL     1      28.355  41.491  52.903  1.00  0.00     0.039 C 
BRANCH  19  21
HETATM   21  C   UNL     1      28.995  43.260  54.531  1.00  0.00     0.075 A 
HETATM   22  O   UNL     1      28.750  44.438  55.182  1.00  0.00    -0.318 OA
HETATM   23  C   UNL     1      29.909  44.808  55.793  1.00  0.00     0.049 A 
HETATM   24  C   UNL     1      29.875  46.063  56.572  1.00  0.00     0.076 C 
HETATM   25  C   UNL     1      30.898  43.885  55.537  1.00  0.00     0.035 A 
HETATM   26  C   UNL     1      30.310  42.885  54.726  1.00  0.00     0.037 A 
ENDBRANCH  19  21
ENDBRANCH   1  19
TORSDOF 6
ENDMDL
MODEL 8
REMARK VINA RESULT:      -7.4     12.297     13.820
REMARK  6 active torsions:
REMARK  status: ('A' for Active; 'I' for Inactive)
REMARK    1  A    between atoms: C_4  and  C_5 
REMARK    2  A    between atoms: C_5  and  N_6 
REMARK       I    between atoms: N_6  and  C_7 
REMARK       I    between atoms: C_7  and  N_8 
REMARK    3  A    between atoms: N_8  and  C_9 
REMARK    4  A    between atoms: C_9  and  C_10 
REMARK    5  A    between atoms: C_12  and  O_13 
REMARK    6  A    between atoms: O_13  and  C_14 
ROOT
HETATM    1  N   UNL     1      33.303  51.825  42.259  1.00  0.00    -0.333 N 
HETATM    2  C   UNL     1      32.152  51.659  42.954  1.00  0.00     0.317 C 
HETATM    3  N   UNL     1      31.087  52.386  42.536  1.00  0.00    -0.339 N 
HETATM    4  O   UNL     1      32.031  50.895  43.906  1.00  0.00    -0.247 OA
HETATM    5  H   UNL     1      33.436  52.691  41.757  1.00  0.00     0.165 HD
HETATM    6  H   UNL     1      30.259  52.231  43.094  1.00  0.00     0.164 HD
ENDROOT
BRANCH   3   7
HETATM    7  C   UNL     1      30.959  53.193  41.343  1.00  0.00     0.163 C 
BRANCH   7   8
HETATM    8  C   UNL     1      30.279  52.501  40.188  1.00  0.00    -0.035 A 
HETATM    9  C   UNL     1      30.583  51.198  39.783  1.00  0.00     0.066 A 
HETATM   10  C   UNL     1      29.922  50.667  38.685  1.00  0.00     0.164 A 
HETATM   11  N   UNL     1      28.981  51.324  37.978  1.00  0.00    -0.237 NA
HETATM   12  C   UNL     1      28.688  52.573  38.388  1.00  0.00     0.120 A 
HETATM   13  C   UNL     1      29.299  53.195  39.467  1.00  0.00     0.028 A 
BRANCH  10  14
HETATM   14  O   UNL     1      30.273  49.383  38.313  1.00  0.00    -0.329 OA
BRANCH  14  15
HETATM   15  C   UNL     1      29.678  48.317  39.085  1.00  0.00     0.130 C 
HETATM   16  C   UNL     1      29.198  47.070  38.293  1.00  0.00     0.032 C 
HETATM   17  C   UNL     1      29.750  46.205  39.439  1.00  0.00     0.005 C 
HETATM   18  C   UNL     1      30.694  47.372  39.778  1.00  0.00     0.032 C 
ENDBRANCH  14  15
ENDBRANCH  10  14
ENDBRANCH   7   8
ENDBRANCH   3   7
BRANCH   1  19
HETATM   19  C   UNL     1      34.517  51.107  42.603  1.00  0.00     0.139 C 
HETATM   20  C   UNL     1      34.983  50.231  41.443  1.00  0.00     0.039 C 
BRANCH  19  21
HETATM   21  C   UNL     1      35.574  52.102  42.972  1.00  0.00     0.075 A 
HETATM   22  O   UNL     1      36.180  52.785  41.953  1.00  0.00    -0.318 OA
HETATM   23  C   UNL     1      37.085  53.631  42.519  1.00  0.00     0.049 A 
HETATM   24  C   UNL     1      37.860  54.484  41.595  1.00  0.00     0.076 C 
HETATM   25  C   UNL     1      37.071  53.494  43.889  1.00  0.00     0.035 A 
HETATM   26  C   UNL     1      36.096  52.512  44.183  1.00  0.00     0.037 A 
ENDBRANCH  19  21
ENDBRANCH   1  19
TORSDOF 6
ENDMDL
MODEL 9
REMARK VINA RESULT:      -7.4      3.632     10.392
REMARK  6 active torsions:
REMARK  status: ('A' for Active; 'I' for Inactive)
REMARK    1  A    between atoms: C_4  and  C_5 
REMARK    2  A    between atoms: C_5  and  N_6 
REMARK       I    between atoms: N_6  and  C_7 
REMARK       I    between atoms: C_7  and  N_8 
REMARK    3  A    between atoms: N_8  and  C_9 
REMARK    4  A    between atoms: C_9  and  C_10 
REMARK    5  A    between atoms: C_12  and  O_13 
REMARK    6  A    between atoms: O_13  and  C_14 
ROOT
HETATM    1  N   UNL     1      18.612  49.930  49.324  1.00  0.00    -0.333 N 
HETATM    2  C   UNL     1      19.055  49.141  50.332  1.00  0.00     0.317 C 
HETATM    3  N   UNL     1      20.009  48.234  50.009  1.00  0.00    -0.339 N 
HETATM    4  O   UNL     1      18.656  49.218  51.489  1.00  0.00    -0.247 OA
HETATM    5  H   UNL     1      18.698  49.589  48.378  1.00  0.00     0.165 HD
HETATM    6  H   UNL     1      20.297  47.666  50.794  1.00  0.00     0.164 HD
ENDROOT
BRANCH   3   7
HETATM    7  C   UNL     1      20.744  48.100  48.771  1.00  0.00     0.163 C 
BRANCH   7   8
HETATM    8  C   UNL     1      22.157  48.625  48.820  1.00  0.00    -0.035 A 
HETATM    9  C   UNL     1      23.232  47.899  49.345  1.00  0.00     0.066 A 
HETATM   10  C   UNL     1      24.486  48.489  49.374  1.00  0.00     0.164 A 
HETATM   11  N   UNL     1      24.752  49.727  48.912  1.00  0.00    -0.237 NA
HETATM   12  C   UNL     1      23.711  50.409  48.398  1.00  0.00     0.120 A 
HETATM   13  C   UNL     1      22.417  49.911  48.331  1.00  0.00     0.028 A 
BRANCH  10  14
HETATM   14  O   UNL     1      25.510  47.737  49.920  1.00  0.00    -0.329 OA
BRANCH  14  15
HETATM   15  C   UNL     1      25.150  46.900  51.040  1.00  0.00     0.130 C 
HETATM   16  C   UNL     1      25.669  45.436  51.009  1.00  0.00     0.032 C 
HETATM   17  C   UNL     1      25.948  45.567  52.517  1.00  0.00     0.005 C 
HETATM   18  C   UNL     1      26.032  47.089  52.302  1.00  0.00     0.032 C 
ENDBRANCH  14  15
ENDBRANCH  10  14
ENDBRANCH   7   8
ENDBRANCH   3   7
BRANCH   1  19
HETATM   19  C   UNL     1      17.592  50.942  49.536  1.00  0.00     0.139 C 
HETATM   20  C   UNL     1      18.217  52.326  49.692  1.00  0.00     0.039 C 
BRANCH  19  21
HETATM   21  C   UNL     1      16.645  50.918  48.375  1.00  0.00     0.075 A 
HETATM   22  O   UNL     1      16.116  49.708  48.017  1.00  0.00    -0.318 OA
HETATM   23  C   UNL     1      15.286  49.928  46.961  1.00  0.00     0.049 A 
HETATM   24  C   UNL     1      14.591  48.748  46.408  1.00  0.00     0.076 C 
HETATM   25  C   UNL     1      15.281  51.265  46.631  1.00  0.00     0.035 A 
HETATM   26  C   UNL     1      16.154  51.905  47.544  1.00  0.00     0.037 A 
ENDBRANCH  19  21
ENDBRANCH   1  19
TORSDOF 6
ENDMDL
MODEL 10
REMARK VINA RESULT:      -7.3      3.109      5.677
REMARK  6 active torsions:
REMARK  status: ('A' for Active; 'I' for Inactive)
REMARK    1  A    between atoms: C_4  and  C_5 
REMARK    2  A    between atoms: C_5  and  N_6 
REMARK       I    between atoms: N_6  and  C_7 
REMARK       I    between atoms: C_7  and  N_8 
REMARK    3  A    between atoms: N_8  and  C_9 
REMARK    4  A    between atoms: C_9  and  C_10 
REMARK    5  A    between atoms: C_12  and  O_13 
REMARK    6  A    between atoms: O_13  and  C_14 
ROOT
HETATM    1  N   UNL     1      25.194  49.133  49.112  1.00  0.00    -0.333 N 
HETATM    2  C   UNL     1      24.898  49.950  48.072  1.00  0.00     0.317 C 
HETATM    3  N   UNL     1      23.760  50.677  48.185  1.00  0.00    -0.339 N 
HETATM    4  O   UNL     1      25.599  50.067  47.073  1.00  0.00    -0.247 OA
HETATM    5  H   UNL     1      24.436  48.816  49.700  1.00  0.00     0.165 HD
HETATM    6  H   UNL     1      23.583  51.261  47.379  1.00  0.00     0.164 HD
ENDROOT
BRANCH   3   7
HETATM    7  C   UNL     1      22.898  50.831  49.335  1.00  0.00     0.163 C 
BRANCH   7   8
HETATM    8  C   UNL     1      21.453  50.476  49.088  1.00  0.00    -0.035 A 
HETATM    9  C   UNL     1      20.961  49.168  49.140  1.00  0.00     0.066 A 
HETATM   10  C   UNL     1      19.620  48.946  48.862  1.00  0.00     0.164 A 
HETATM   11  N   UNL     1      18.740  49.920  48.554  1.00  0.00    -0.237 NA
HETATM   12  C   UNL     1      19.225  51.176  48.520  1.00  0.00     0.120 A 
HETATM   13  C   UNL     1      20.550  51.500  48.775  1.00  0.00     0.028 A 
BRANCH  10  14
HETATM   14  O   UNL     1      19.188  47.634  48.906  1.00  0.00    -0.329 OA
BRANCH  14  15
HETATM   15  C   UNL     1      19.895  46.707  48.055  1.00  0.00     0.130 C 
HETATM   16  C   UNL     1      20.233  45.320  48.665  1.00  0.00     0.032 C 
HETATM   17  C   UNL     1      19.871  44.700  47.305  1.00  0.00     0.005 C 
HETATM   18  C   UNL     1      19.001  45.942  47.044  1.00  0.00     0.032 C 
ENDBRANCH  14  15
ENDBRANCH  10  14
ENDBRANCH   7   8
ENDBRANCH   3   7
BRANCH   1  19
HETATM   19  C   UNL     1      26.382  48.300  49.118  1.00  0.00     0.139 C 
HETATM   20  C   UNL     1      27.641  49.141  49.318  1.00  0.00     0.039 C 
BRANCH  19  21
HETATM   21  C   UNL     1      26.249  47.281  50.209  1.00  0.00     0.075 A 
HETATM   22  O   UNL     1      26.139  47.743  51.493  1.00  0.00    -0.318 OA
HETATM   23  C   UNL     1      26.019  46.655  52.302  1.00  0.00     0.049 A 
HETATM   24  C   UNL     1      25.877  46.920  53.749  1.00  0.00     0.076 C 
HETATM   25  C   UNL     1      26.056  45.500  51.555  1.00  0.00     0.035 A 
HETATM   26  C   UNL     1      26.201  45.902  50.205  1.00  0.00     0.037 A 
ENDBRANCH  19  21
ENDBRANCH   1  19
TORSDOF 6
ENDMDL
