MODEL 1
REMARK VINA RESULT:      -8.6      0.000      0.000
REMARK  5 active torsions:
REMARK  status: ('A' for Active; 'I' for Inactive)
REMARK    1  A    between atoms: C_2  and  C_3 
REMARK    2  A    between atoms: C_3  and  N_4 
REMARK       I    between atoms: N_4  and  C_5 
REMARK    3  A    between atoms: C_5  and  C_6 
REMARK    4  A    between atoms: C_19  and  O_20 
REMARK    5  A    between atoms: O_20  and  C_21 
ROOT
HETATM    1  N   UNL     1      28.372  42.197  53.683  1.00  0.00    -0.353 N 
HETATM    2  C   UNL     1      29.634  42.709  53.874  1.00  0.00     0.254 C 
HETATM    3  O   UNL     1      30.601  42.361  53.202  1.00  0.00    -0.268 OA
HETATM    4  H   UNL     1      27.625  42.473  54.320  1.00  0.00     0.163 HD
ENDROOT
BRANCH   1   5
HETATM    5  C   UNL     1      28.156  41.140  52.730  1.00  0.00     0.161 C 
BRANCH   5   6
HETATM    6  C   UNL     1      27.801  41.656  51.366  1.00  0.00    -0.035 A 
HETATM    7  C   UNL     1      27.972  40.860  50.229  1.00  0.00     0.028 A 
HETATM    8  C   UNL     1      27.566  41.360  49.001  1.00  0.00     0.120 A 
HETATM    9  N   UNL     1      27.005  42.575  48.828  1.00  0.00    -0.237 NA
HETATM   10  C   UNL     1      26.868  43.331  49.936  1.00  0.00     0.164 A 
HETATM   11  C   UNL     1      27.261  42.935  51.203  1.00  0.00     0.066 A 
BRANCH  10  12
HETATM   12  O   UNL     1      26.292  44.582  49.826  1.00  0.00    -0.329 OA
BRANCH  12  13
HETATM   13  C   UNL     1      26.283  45.367  51.037  1.00  0.00     0.130 C 
HETATM   14  C   UNL     1      26.219  46.901  50.808  1.00  0.00     0.032 C 
HETATM   15  C   UNL     1      25.329  46.985  52.060  1.00  0.00     0.005 C 
HETATM   16  C   UNL     1      24.934  45.521  51.789  1.00  0.00     0.032 C 
ENDBRANCH  12  13
ENDBRANCH  10  12
ENDBRANCH   5   6
ENDBRANCH   1   5
BRANCH   2  17
HETATM   17  C   UNL     1      29.809  43.712  54.950  1.00  0.00     0.066 A 
HETATM   18  C   UNL     1      28.992  44.855  55.058  1.00  0.00     0.100 A 
HETATM   19  C   UNL     1      29.217  45.752  56.104  1.00  0.00     0.066 A 
HETATM   20  N   UNL     1      27.939  45.289  54.277  1.00  0.00    -0.241 NA
HETATM   21  N   UNL     1      28.273  46.733  55.927  1.00  0.00    -0.349 N 
HETATM   22  C   UNL     1      30.215  45.577  57.064  1.00  0.00     0.074 A 
HETATM   23  H   UNL     1      28.144  47.549  56.509  1.00  0.00     0.167 HD
HETATM   24  C   UNL     1      27.533  46.413  54.823  1.00  0.00     0.208 A 
HETATM   25  C   UNL     1      31.008  44.437  56.934  1.00  0.00     0.119 A 
HETATM   26  F   UNL     1      31.980  44.222  57.832  1.00  0.00    -0.206 F 
HETATM   27  C   UNL     1      30.822  43.518  55.907  1.00  0.00     0.061 A 
ENDBRANCH   2  17
TORSDOF 5
ENDMDL
MODEL 2
REMARK VINA RESULT:      -8.5      3.750      5.379
REMARK  5 active torsions:
REMARK  status: ('A' for Active; 'I' for Inactive)
REMARK    1  A    between atoms: C_2  and  C_3 
REMARK    2  A    between atoms: C_3  and  N_4 
REMARK       I    between atoms: N_4  and  C_5 
REMARK    3  A    between atoms: C_5  and  C_6 
REMARK    4  A    between atoms: C_19  and  O_20 
REMARK    5  A    between atoms: O_20  and  C_21 
ROOT
HETATM    1  N   UNL     1      26.348  46.223  51.793  1.00  0.00    -0.353 N 
HETATM    2  C   UNL     1      26.531  44.885  52.059  1.00  0.00     0.254 C 
HETATM    3  O   UNL     1      25.791  44.012  51.615  1.00  0.00    -0.268 OA
HETATM    4  H   UNL     1      26.954  46.905  52.250  1.00  0.00     0.163 HD
ENDROOT
BRANCH   1   5
HETATM    5  C   UNL     1      25.199  46.662  51.046  1.00  0.00     0.161 C 
BRANCH   5   6
HETATM    6  C   UNL     1      25.527  47.758  50.074  1.00  0.00    -0.035 A 
HETATM    7  C   UNL     1      26.844  48.192  49.897  1.00  0.00     0.028 A 
HETATM    8  C   UNL     1      27.102  49.161  48.938  1.00  0.00     0.120 A 
HETATM    9  N   UNL     1      26.156  49.714  48.151  1.00  0.00    -0.237 NA
HETATM   10  C   UNL     1      24.891  49.293  48.353  1.00  0.00     0.164 A 
HETATM   11  C   UNL     1      24.526  48.349  49.298  1.00  0.00     0.066 A 
BRANCH  10  12
HETATM   12  O   UNL     1      23.878  49.816  47.573  1.00  0.00    -0.329 OA
BRANCH  12  13
HETATM   13  C   UNL     1      22.594  49.931  48.222  1.00  0.00     0.130 C 
HETATM   14  C   UNL     1      22.370  51.273  48.969  1.00  0.00     0.032 C 
HETATM   15  C   UNL     1      20.900  51.201  48.523  1.00  0.00     0.005 C 
HETATM   16  C   UNL     1      21.374  50.327  47.348  1.00  0.00     0.032 C 
ENDBRANCH  12  13
ENDBRANCH  10  12
ENDBRANCH   5   6
ENDBRANCH   1   5
BRANCH   2  17
HETATM   17  C   UNL     1      27.669  44.511  52.931  1.00  0.00     0.066 A 
HETATM   18  C   UNL     1      27.941  45.175  54.144  1.00  0.00     0.100 A 
HETATM   19  C   UNL     1      29.029  44.760  54.914  1.00  0.00     0.066 A 
HETATM   20  N   UNL     1      27.294  46.227  54.763  1.00  0.00    -0.241 NA
HETATM   21  N   UNL     1      29.017  45.592  56.006  1.00  0.00    -0.349 N 
HETATM   22  C   UNL     1      29.872  43.710  54.547  1.00  0.00     0.074 A 
HETATM   23  H   UNL     1      29.671  45.574  56.776  1.00  0.00     0.167 HD
HETATM   24  C   UNL     1      27.964  46.452  55.871  1.00  0.00     0.208 A 
HETATM   25  C   UNL     1      29.579  43.070  53.344  1.00  0.00     0.119 A 
HETATM   26  F   UNL     1      30.358  42.053  52.947  1.00  0.00    -0.206 F 
HETATM   27  C   UNL     1      28.508  43.450  52.544  1.00  0.00     0.061 A 
ENDBRANCH   2  17
TORSDOF 5
ENDMDL
MODEL 3
REMARK VINA RESULT:      -8.3      4.428      7.914
REMARK  5 active torsions:
REMARK  status: ('A' for Active; 'I' for Inactive)
REMARK    1  A    between atoms: C_2  and  C_3 
REMARK    2  A    between atoms: C_3  and  N_4 
REMARK       I    between atoms: N_4  and  C_5 
REMARK    3  A    between atoms: C_5  and  C_6 
REMARK    4  A    between atoms: C_19  and  O_20 
REMARK    5  A    between atoms: O_20  and  C_21 
ROOT
HETATM    1  N   UNL     1      24.889  46.677  51.258  1.00  0.00    -0.353 N 
HETATM    2  C   UNL     1      24.289  46.796  50.026  1.00  0.00     0.254 C 
HETATM    3  O   UNL     1      23.589  45.913  49.540  1.00  0.00    -0.268 OA
HETATM    4  H   UNL     1      25.517  47.416  51.575  1.00  0.00     0.163 HD
ENDROOT
BRANCH   1   5
HETATM    5  C   UNL     1      24.794  45.444  51.994  1.00  0.00     0.161 C 
BRANCH   5   6
HETATM    6  C   UNL     1      26.137  44.841  52.287  1.00  0.00    -0.035 A 
HETATM    7  C   UNL     1      26.912  44.280  51.267  1.00  0.00     0.028 A 
HETATM    8  C   UNL     1      28.174  43.798  51.579  1.00  0.00     0.120 A 
HETATM    9  N   UNL     1      28.713  43.838  52.816  1.00  0.00    -0.237 NA
HETATM   10  C   UNL     1      27.939  44.365  53.786  1.00  0.00     0.164 A 
HETATM   11  C   UNL     1      26.659  44.853  53.583  1.00  0.00     0.066 A 
BRANCH  10  12
HETATM   12  O   UNL     1      28.437  44.442  55.072  1.00  0.00    -0.329 OA
BRANCH  12  13
HETATM   13  C   UNL     1      29.874  44.357  55.186  1.00  0.00     0.130 C 
HETATM   14  C   UNL     1      30.457  45.023  56.461  1.00  0.00     0.032 C 
HETATM   15  C   UNL     1      31.495  43.888  56.500  1.00  0.00     0.005 C 
HETATM   16  C   UNL     1      30.481  43.032  55.718  1.00  0.00     0.032 C 
ENDBRANCH  12  13
ENDBRANCH  10  12
ENDBRANCH   5   6
ENDBRANCH   1   5
BRANCH   2  17
HETATM   17  C   UNL     1      24.522  48.049  49.270  1.00  0.00     0.066 A 
HETATM   18  C   UNL     1      25.804  48.618  49.129  1.00  0.00     0.100 A 
HETATM   19  C   UNL     1      25.944  49.798  48.396  1.00  0.00     0.066 A 
HETATM   20  N   UNL     1      27.033  48.206  49.606  1.00  0.00    -0.241 NA
HETATM   21  N   UNL     1      27.286  50.081  48.450  1.00  0.00    -0.349 N 
HETATM   22  C   UNL     1      24.873  50.453  47.784  1.00  0.00     0.074 A 
HETATM   23  H   UNL     1      27.746  50.873  48.022  1.00  0.00     0.167 HD
HETATM   24  C   UNL     1      27.895  49.103  49.184  1.00  0.00     0.208 A 
HETATM   25  C   UNL     1      23.617  49.867  47.938  1.00  0.00     0.119 A 
HETATM   26  F   UNL     1      22.556  50.456  47.368  1.00  0.00    -0.206 F 
HETATM   27  C   UNL     1      23.431  48.694  48.661  1.00  0.00     0.061 A 
ENDBRANCH   2  17
TORSDOF 5
ENDMDL
MODEL 4
REMARK VINA RESULT:      -8.3      3.481      5.339
REMARK  5 active torsions:
REMARK  status: ('A' for Active; 'I' for Inactive)
REMARK    1  A    between atoms: C_2  and  C_3 
REMARK    2  A    between atoms: C_3  and  N_4 
REMARK       I    between atoms: N_4  and  C_5 
REMARK    3  A    between atoms: C_5  and  C_6 
REMARK    4  A    between atoms: C_19  and  O_20 
REMARK    5  A    between atoms: O_20  and  C_21 
ROOT
HETATM    1  N   UNL     1      26.219  45.519  52.069  1.00  0.00    -0.353 N 
HETATM    2  C   UNL     1      26.399  45.089  53.364  1.00  0.00     0.254 C 
HETATM    3  O   UNL     1      25.559  45.257  54.243  1.00  0.00    -0.268 OA
HETATM    4  H   UNL     1      26.983  45.414  51.403  1.00  0.00     0.163 HD
ENDROOT
BRANCH   1   5
HETATM    5  C   UNL     1      25.051  46.283  51.716  1.00  0.00     0.161 C 
BRANCH   5   6
HETATM    6  C   UNL     1      25.331  47.308  50.655  1.00  0.00    -0.035 A 
HETATM    7  C   UNL     1      26.621  47.810  50.463  1.00  0.00     0.028 A 
HETATM    8  C   UNL     1      26.839  48.704  49.425  1.00  0.00     0.120 A 
HETATM    9  N   UNL     1      25.878  49.122  48.575  1.00  0.00    -0.237 NA
HETATM   10  C   UNL     1      24.639  48.640  48.793  1.00  0.00     0.164 A 
HETATM   11  C   UNL     1      24.312  47.761  49.813  1.00  0.00     0.066 A 
BRANCH  10  12
HETATM   12  O   UNL     1      23.612  49.024  47.952  1.00  0.00    -0.329 OA
BRANCH  12  13
HETATM   13  C   UNL     1      22.457  49.593  48.604  1.00  0.00     0.130 C 
HETATM   14  C   UNL     1      22.663  51.041  49.125  1.00  0.00     0.032 C 
HETATM   15  C   UNL     1      21.201  51.319  48.733  1.00  0.00     0.005 C 
HETATM   16  C   UNL     1      21.335  50.179  47.707  1.00  0.00     0.032 C 
ENDBRANCH  12  13
ENDBRANCH  10  12
ENDBRANCH   5   6
ENDBRANCH   1   5
BRANCH   2  17
HETATM   17  C   UNL     1      27.676  44.410  53.687  1.00  0.00     0.066 A 
HETATM   18  C   UNL     1      28.131  43.281  52.976  1.00  0.00     0.100 A 
HETATM   19  C   UNL     1      29.347  42.699  53.338  1.00  0.00     0.066 A 
HETATM   20  N   UNL     1      27.570  42.592  51.918  1.00  0.00    -0.241 NA
HETATM   21  N   UNL     1      29.498  41.646  52.470  1.00  0.00    -0.349 N 
HETATM   22  C   UNL     1      30.150  43.180  54.374  1.00  0.00     0.074 A 
HETATM   23  H   UNL     1      30.274  40.999  52.446  1.00  0.00     0.167 HD
HETATM   24  C   UNL     1      28.411  41.622  51.642  1.00  0.00     0.208 A 
HETATM   25  C   UNL     1      29.677  44.298  55.058  1.00  0.00     0.119 A 
HETATM   26  F   UNL     1      30.411  44.800  56.061  1.00  0.00    -0.206 F 
HETATM   27  C   UNL     1      28.470  44.909  54.735  1.00  0.00     0.061 A 
ENDBRANCH   2  17
TORSDOF 5
ENDMDL
MODEL 5
REMARK VINA RESULT:      -8.3      2.782      4.316
REMARK  5 active torsions:
REMARK  status: ('A' for Active; 'I' for Inactive)
REMARK    1  A    between atoms: C_2  and  C_3 
REMARK    2  A    between atoms: C_3  and  N_4 
REMARK       I    between atoms: N_4  and  C_5 
REMARK    3  A    between atoms: C_5  and  C_6 
REMARK    4  A    between atoms: C_19  and  O_20 
REMARK    5  A    between atoms: O_20  and  C_21 
ROOT
HETATM    1  N   UNL     1      26.909  46.171  53.724  1.00  0.00    -0.353 N 
HETATM    2  C   UNL     1      27.694  46.574  54.779  1.00  0.00     0.254 C 
HETATM    3  O   UNL     1      27.546  47.655  55.342  1.00  0.00    -0.268 OA
HETATM    4  H   UNL     1      27.128  45.294  53.252  1.00  0.00     0.163 HD
ENDROOT
BRANCH   1   5
HETATM    5  C   UNL     1      25.927  47.065  53.168  1.00  0.00     0.161 C 
BRANCH   5   6
HETATM    6  C   UNL     1      25.250  46.497  51.955  1.00  0.00    -0.035 A 
HETATM    7  C   UNL     1      24.978  45.129  51.858  1.00  0.00     0.028 A 
HETATM    8  C   UNL     1      24.289  44.665  50.746  1.00  0.00     0.120 A 
HETATM    9  N   UNL     1      23.856  45.456  49.743  1.00  0.00    -0.237 NA
HETATM   10  C   UNL     1      24.147  46.768  49.850  1.00  0.00     0.164 A 
HETATM   11  C   UNL     1      24.847  47.328  50.906  1.00  0.00     0.066 A 
BRANCH  10  12
HETATM   12  O   UNL     1      23.723  47.632  48.858  1.00  0.00    -0.329 OA
BRANCH  12  13
HETATM   13  C   UNL     1      23.758  49.033  49.202  1.00  0.00     0.130 C 
HETATM   14  C   UNL     1      24.183  49.969  48.038  1.00  0.00     0.032 C 
HETATM   15  C   UNL     1      23.175  50.996  48.584  1.00  0.00     0.005 C 
HETATM   16  C   UNL     1      22.416  49.811  49.208  1.00  0.00     0.032 C 
ENDBRANCH  12  13
ENDBRANCH  10  12
ENDBRANCH   5   6
ENDBRANCH   1   5
BRANCH   2  17
HETATM   17  C   UNL     1      28.763  45.652  55.228  1.00  0.00     0.066 A 
HETATM   18  C   UNL     1      29.177  44.545  54.460  1.00  0.00     0.100 A 
HETATM   19  C   UNL     1      30.196  43.726  54.948  1.00  0.00     0.066 A 
HETATM   20  N   UNL     1      28.742  44.084  53.232  1.00  0.00    -0.241 NA
HETATM   21  N   UNL     1      30.357  42.762  53.983  1.00  0.00    -0.349 N 
HETATM   22  C   UNL     1      30.838  43.944  56.168  1.00  0.00     0.074 A 
HETATM   23  H   UNL     1      31.017  41.997  54.009  1.00  0.00     0.167 HD
HETATM   24  C   UNL     1      29.466  43.018  52.979  1.00  0.00     0.208 A 
HETATM   25  C   UNL     1      30.410  45.047  56.906  1.00  0.00     0.119 A 
HETATM   26  F   UNL     1      30.996  45.301  58.085  1.00  0.00    -0.206 F 
HETATM   27  C   UNL     1      29.398  45.889  56.461  1.00  0.00     0.061 A 
ENDBRANCH   2  17
TORSDOF 5
ENDMDL
MODEL 6
REMARK VINA RESULT:      -8.1      1.898      4.108
REMARK  5 active torsions:
REMARK  status: ('A' for Active; 'I' for Inactive)
REMARK    1  A    between atoms: C_2  and  C_3 
REMARK    2  A    between atoms: C_3  and  N_4 
REMARK       I    between atoms: N_4  and  C_5 
REMARK    3  A    between atoms: C_5  and  C_6 
REMARK    4  A    between atoms: C_19  and  O_20 
REMARK    5  A    between atoms: O_20  and  C_21 
ROOT
HETATM    1  N   UNL     1      26.976  45.899  54.089  1.00  0.00    -0.353 N 
HETATM    2  C   UNL     1      27.715  46.475  55.096  1.00  0.00     0.254 C 
HETATM    3  O   UNL     1      27.484  47.601  55.528  1.00  0.00    -0.268 OA
HETATM    4  H   UNL     1      27.263  44.990  53.724  1.00  0.00     0.163 HD
ENDROOT
BRANCH   1   5
HETATM    5  C   UNL     1      25.943  46.651  53.426  1.00  0.00     0.161 C 
BRANCH   5   6
HETATM    6  C   UNL     1      25.787  46.270  51.983  1.00  0.00    -0.035 A 
HETATM    7  C   UNL     1      24.976  47.018  51.125  1.00  0.00     0.028 A 
HETATM    8  C   UNL     1      24.920  46.664  49.785  1.00  0.00     0.120 A 
HETATM    9  N   UNL     1      25.607  45.634  49.247  1.00  0.00    -0.237 NA
HETATM   10  C   UNL     1      26.366  44.915  50.098  1.00  0.00     0.164 A 
HETATM   11  C   UNL     1      26.474  45.173  51.455  1.00  0.00     0.066 A 
BRANCH  10  12
HETATM   12  O   UNL     1      27.101  43.853  49.607  1.00  0.00    -0.329 OA
BRANCH  12  13
HETATM   13  C   UNL     1      26.965  42.616  50.338  1.00  0.00     0.130 C 
HETATM   14  C   UNL     1      25.525  42.038  50.360  1.00  0.00     0.032 C 
HETATM   15  C   UNL     1      26.156  40.637  50.282  1.00  0.00     0.005 C 
HETATM   16  C   UNL     1      27.377  41.303  49.620  1.00  0.00     0.032 C 
ENDBRANCH  12  13
ENDBRANCH  10  12
ENDBRANCH   5   6
ENDBRANCH   1   5
BRANCH   2  17
HETATM   17  C   UNL     1      28.839  45.689  55.656  1.00  0.00     0.066 A 
HETATM   18  C   UNL     1      29.412  44.598  54.972  1.00  0.00     0.100 A 
HETATM   19  C   UNL     1      30.472  43.909  55.564  1.00  0.00     0.066 A 
HETATM   20  N   UNL     1      29.108  44.040  53.745  1.00  0.00    -0.241 NA
HETATM   21  N   UNL     1      30.793  42.926  54.661  1.00  0.00    -0.349 N 
HETATM   22  C   UNL     1      31.007  44.247  56.808  1.00  0.00     0.074 A 
HETATM   23  H   UNL     1      31.523  42.235  54.766  1.00  0.00     0.167 HD
HETATM   24  C   UNL     1      29.950  43.043  53.591  1.00  0.00     0.208 A 
HETATM   25  C   UNL     1      30.423  45.332  57.461  1.00  0.00     0.119 A 
HETATM   26  F   UNL     1      30.901  45.697  58.659  1.00  0.00    -0.206 F 
HETATM   27  C   UNL     1      29.364  46.044  56.912  1.00  0.00     0.061 A 
ENDBRANCH   2  17
TORSDOF 5
ENDMDL
MODEL 7
REMARK VINA RESULT:      -8.0      3.089      4.084
REMARK  5 active torsions:
REMARK  status: ('A' for Active; 'I' for Inactive)
REMARK    1  A    between atoms: C_2  and  C_3 
REMARK    2  A    between atoms: C_3  and  N_4 
REMARK       I    between atoms: N_4  and  C_5 
REMARK    3  A    between atoms: C_5  and  C_6 
REMARK    4  A    between atoms: C_19  and  O_20 
REMARK    5  A    between atoms: O_20  and  C_21 
ROOT
HETATM    1  N   UNL     1      27.152  44.830  51.093  1.00  0.00    -0.353 N 
HETATM    2  C   UNL     1      27.289  44.028  52.202  1.00  0.00     0.254 C 
HETATM    3  O   UNL     1      26.988  42.838  52.203  1.00  0.00    -0.268 OA
HETATM    4  H   UNL     1      27.352  45.827  51.176  1.00  0.00     0.163 HD
ENDROOT
BRANCH   1   5
HETATM    5  C   UNL     1      26.546  44.312  49.895  1.00  0.00     0.161 C 
BRANCH   5   6
HETATM    6  C   UNL     1      25.315  45.073  49.495  1.00  0.00    -0.035 A 
HETATM    7  C   UNL     1      24.277  44.448  48.798  1.00  0.00     0.028 A 
HETATM    8  C   UNL     1      23.133  45.178  48.512  1.00  0.00     0.120 A 
HETATM    9  N   UNL     1      22.952  46.467  48.870  1.00  0.00    -0.237 NA
HETATM   10  C   UNL     1      23.974  47.054  49.523  1.00  0.00     0.164 A 
HETATM   11  C   UNL     1      25.165  46.420  49.837  1.00  0.00     0.066 A 
BRANCH  10  12
HETATM   12  O   UNL     1      23.846  48.370  49.923  1.00  0.00    -0.329 OA
BRANCH  12  13
HETATM   13  C   UNL     1      23.111  49.223  49.021  1.00  0.00     0.130 C 
HETATM   14  C   UNL     1      22.592  50.539  49.661  1.00  0.00     0.032 C 
HETATM   15  C   UNL     1      22.880  51.229  48.316  1.00  0.00     0.005 C 
HETATM   16  C   UNL     1      23.924  50.127  48.057  1.00  0.00     0.032 C 
ENDBRANCH  12  13
ENDBRANCH  10  12
ENDBRANCH   5   6
ENDBRANCH   1   5
BRANCH   2  17
HETATM   17  C   UNL     1      27.813  44.654  53.438  1.00  0.00     0.066 A 
HETATM   18  C   UNL     1      27.266  45.836  53.977  1.00  0.00     0.100 A 
HETATM   19  C   UNL     1      27.811  46.362  55.149  1.00  0.00     0.066 A 
HETATM   20  N   UNL     1      26.221  46.628  53.542  1.00  0.00    -0.241 NA
HETATM   21  N   UNL     1      27.068  47.488  55.401  1.00  0.00    -0.349 N 
HETATM   22  C   UNL     1      28.881  45.775  55.828  1.00  0.00     0.074 A 
HETATM   23  H   UNL     1      27.190  48.121  56.180  1.00  0.00     0.167 HD
HETATM   24  C   UNL     1      26.131  47.606  54.414  1.00  0.00     0.208 A 
HETATM   25  C   UNL     1      29.401  44.606  55.275  1.00  0.00     0.119 A 
HETATM   26  F   UNL     1      30.428  44.003  55.890  1.00  0.00    -0.206 F 
HETATM   27  C   UNL     1      28.891  44.048  54.108  1.00  0.00     0.061 A 
ENDBRANCH   2  17
TORSDOF 5
ENDMDL
MODEL 8
REMARK VINA RESULT:      -7.9      3.936      6.941
REMARK  5 active torsions:
REMARK  status: ('A' for Active; 'I' for Inactive)
REMARK    1  A    between atoms: C_2  and  C_3 
REMARK    2  A    between atoms: C_3  and  N_4 
REMARK       I    between atoms: N_4  and  C_5 
REMARK    3  A    between atoms: C_5  and  C_6 
REMARK    4  A    between atoms: C_19  and  O_20 
REMARK    5  A    between atoms: O_20  and  C_21 
ROOT
HETATM    1  N   UNL     1      24.386  45.491  49.978  1.00  0.00    -0.353 N 
HETATM    2  C   UNL     1      24.992  46.536  50.636  1.00  0.00     0.254 C 
HETATM    3  O   UNL     1      25.215  46.521  51.843  1.00  0.00    -0.268 OA
HETATM    4  H   UNL     1      24.164  45.593  48.987  1.00  0.00     0.163 HD
ENDROOT
BRANCH   1   5
HETATM    5  C   UNL     1      23.893  44.358  50.716  1.00  0.00     0.161 C 
BRANCH   5   6
HETATM    6  C   UNL     1      24.769  43.148  50.571  1.00  0.00    -0.035 A 
HETATM    7  C   UNL     1      24.635  42.290  49.475  1.00  0.00     0.028 A 
HETATM    8  C   UNL     1      25.514  41.224  49.353  1.00  0.00     0.120 A 
HETATM    9  N   UNL     1      26.505  40.960  50.230  1.00  0.00    -0.237 NA
HETATM   10  C   UNL     1      26.602  41.789  51.288  1.00  0.00     0.164 A 
HETATM   11  C   UNL     1      25.762  42.867  51.514  1.00  0.00     0.066 A 
BRANCH  10  12
HETATM   12  O   UNL     1      27.602  41.576  52.217  1.00  0.00    -0.329 OA
BRANCH  12  13
HETATM   13  C   UNL     1      28.257  42.766  52.706  1.00  0.00     0.130 C 
HETATM   14  C   UNL     1      28.247  42.915  54.251  1.00  0.00     0.032 C 
HETATM   15  C   UNL     1      29.655  43.526  54.135  1.00  0.00     0.005 C 
HETATM   16  C   UNL     1      29.805  42.748  52.814  1.00  0.00     0.032 C 
ENDBRANCH  12  13
ENDBRANCH  10  12
ENDBRANCH   5   6
ENDBRANCH   1   5
BRANCH   2  17
HETATM   17  C   UNL     1      25.372  47.722  49.833  1.00  0.00     0.066 A 
HETATM   18  C   UNL     1      24.427  48.482  49.116  1.00  0.00     0.100 A 
HETATM   19  C   UNL     1      24.862  49.590  48.386  1.00  0.00     0.066 A 
HETATM   20  N   UNL     1      23.059  48.336  48.987  1.00  0.00    -0.241 NA
HETATM   21  N   UNL     1      23.722  50.099  47.817  1.00  0.00    -0.349 N 
HETATM   22  C   UNL     1      26.197  49.994  48.328  1.00  0.00     0.074 A 
HETATM   23  H   UNL     1      23.666  50.911  47.218  1.00  0.00     0.167 HD
HETATM   24  C   UNL     1      22.670  49.316  48.204  1.00  0.00     0.208 A 
HETATM   25  C   UNL     1      27.111  49.225  49.049  1.00  0.00     0.119 A 
HETATM   26  F   UNL     1      28.405  49.572  49.027  1.00  0.00    -0.206 F 
HETATM   27  C   UNL     1      26.723  48.112  49.787  1.00  0.00     0.061 A 
ENDBRANCH   2  17
TORSDOF 5
ENDMDL
MODEL 9
REMARK VINA RESULT:      -7.9      3.247      4.599
REMARK  5 active torsions:
REMARK  status: ('A' for Active; 'I' for Inactive)
REMARK    1  A    between atoms: C_2  and  C_3 
REMARK    2  A    between atoms: C_3  and  N_4 
REMARK       I    between atoms: N_4  and  C_5 
REMARK    3  A    between atoms: C_5  and  C_6 
REMARK    4  A    between atoms: C_19  and  O_20 
REMARK    5  A    between atoms: O_20  and  C_21 
ROOT
HETATM    1  N   UNL     1      26.791  46.123  52.737  1.00  0.00    -0.353 N 
HETATM    2  C   UNL     1      26.850  45.354  53.877  1.00  0.00     0.254 C 
HETATM    3  O   UNL     1      25.904  45.240  54.650  1.00  0.00    -0.268 OA
HETATM    4  H   UNL     1      27.634  46.235  52.173  1.00  0.00     0.163 HD
ENDROOT
BRANCH   1   5
HETATM    5  C   UNL     1      25.623  46.916  52.458  1.00  0.00     0.161 C 
BRANCH   5   6
HETATM    6  C   UNL     1      24.875  46.435  51.249  1.00  0.00    -0.035 A 
HETATM    7  C   UNL     1      24.567  45.081  51.085  1.00  0.00     0.028 A 
HETATM    8  C   UNL     1      23.815  44.698  49.984  1.00  0.00     0.120 A 
HETATM    9  N   UNL     1      23.352  45.557  49.051  1.00  0.00    -0.237 NA
HETATM   10  C   UNL     1      23.679  46.853  49.220  1.00  0.00     0.164 A 
HETATM   11  C   UNL     1      24.442  47.335  50.271  1.00  0.00     0.066 A 
BRANCH  10  12
HETATM   12  O   UNL     1      23.228  47.783  48.303  1.00  0.00    -0.329 OA
BRANCH  12  13
HETATM   13  C   UNL     1      23.077  49.127  48.807  1.00  0.00     0.130 C 
HETATM   14  C   UNL     1      23.092  50.229  47.713  1.00  0.00     0.032 C 
HETATM   15  C   UNL     1      22.043  50.981  48.550  1.00  0.00     0.005 C 
HETATM   16  C   UNL     1      21.645  49.618  49.144  1.00  0.00     0.032 C 
ENDBRANCH  12  13
ENDBRANCH  10  12
ENDBRANCH   5   6
ENDBRANCH   1   5
BRANCH   2  17
HETATM   17  C   UNL     1      28.124  44.655  54.165  1.00  0.00     0.066 A 
HETATM   18  C   UNL     1      28.947  45.004  55.254  1.00  0.00     0.100 A 
HETATM   19  C   UNL     1      30.131  44.294  55.463  1.00  0.00     0.066 A 
HETATM   20  N   UNL     1      28.800  45.978  56.223  1.00  0.00    -0.241 NA
HETATM   21  N   UNL     1      30.687  44.869  56.579  1.00  0.00    -0.349 N 
HETATM   22  C   UNL     1      30.549  43.242  54.646  1.00  0.00     0.074 A 
HETATM   23  H   UNL     1      31.557  44.601  57.017  1.00  0.00     0.167 HD
HETATM   24  C   UNL     1      29.856  45.871  56.996  1.00  0.00     0.208 A 
HETATM   25  C   UNL     1      29.714  42.916  53.577  1.00  0.00     0.119 A 
HETATM   26  F   UNL     1      30.070  41.912  52.764  1.00  0.00    -0.206 F 
HETATM   27  C   UNL     1      28.528  43.598  53.329  1.00  0.00     0.061 A 
ENDBRANCH   2  17
TORSDOF 5
ENDMDL
MODEL 10
REMARK VINA RESULT:      -7.8      6.324      9.802
REMARK  5 active torsions:
REMARK  status: ('A' for Active; 'I' for Inactive)
REMARK    1  A    between atoms: C_2  and  C_3 
REMARK    2  A    between atoms: C_3  and  N_4 
REMARK       I    between atoms: N_4  and  C_5 
REMARK    3  A    between atoms: C_5  and  C_6 
REMARK    4  A    between atoms: C_19  and  O_20 
REMARK    5  A    between atoms: O_20  and  C_21 
ROOT
HETATM    1  N   UNL     1      23.125  48.123  49.689  1.00  0.00    -0.353 N 
HETATM    2  C   UNL     1      22.818  48.976  48.655  1.00  0.00     0.254 C 
HETATM    3  O   UNL     1      23.636  49.310  47.803  1.00  0.00    -0.268 OA
HETATM    4  H   UNL     1      22.422  47.941  50.406  1.00  0.00     0.163 HD
ENDROOT
BRANCH   1   5
HETATM    5  C   UNL     1      24.475  47.658  49.868  1.00  0.00     0.161 C 
BRANCH   5   6
HETATM    6  C   UNL     1      24.543  46.350  50.601  1.00  0.00    -0.035 A 
HETATM    7  C   UNL     1      24.021  45.182  50.039  1.00  0.00     0.028 A 
HETATM    8  C   UNL     1      24.169  43.987  50.729  1.00  0.00     0.120 A 
HETATM    9  N   UNL     1      24.796  43.876  51.918  1.00  0.00    -0.237 NA
HETATM   10  C   UNL     1      25.274  45.019  52.450  1.00  0.00     0.164 A 
HETATM   11  C   UNL     1      25.158  46.264  51.853  1.00  0.00     0.066 A 
BRANCH  10  12
HETATM   12  O   UNL     1      25.934  44.970  53.662  1.00  0.00    -0.329 OA
BRANCH  12  13
HETATM   13  C   UNL     1      27.349  44.699  53.586  1.00  0.00     0.130 C 
HETATM   14  C   UNL     1      28.208  45.474  54.622  1.00  0.00     0.032 C 
HETATM   15  C   UNL     1      29.098  44.222  54.722  1.00  0.00     0.005 C 
HETATM   16  C   UNL     1      27.876  43.405  54.263  1.00  0.00     0.032 C 
ENDBRANCH  12  13
ENDBRANCH  10  12
ENDBRANCH   5   6
ENDBRANCH   1   5
BRANCH   2  17
HETATM   17  C   UNL     1      21.437  49.510  48.596  1.00  0.00     0.066 A 
HETATM   18  C   UNL     1      20.302  48.676  48.637  1.00  0.00     0.100 A 
HETATM   19  C   UNL     1      19.033  49.256  48.583  1.00  0.00     0.066 A 
HETATM   20  N   UNL     1      20.193  47.302  48.730  1.00  0.00    -0.241 NA
HETATM   21  N   UNL     1      18.165  48.194  48.643  1.00  0.00    -0.349 N 
HETATM   22  C   UNL     1      18.822  50.633  48.491  1.00  0.00     0.074 A 
HETATM   23  H   UNL     1      17.156  48.247  48.626  1.00  0.00     0.167 HD
HETATM   24  C   UNL     1      18.905  47.048  48.729  1.00  0.00     0.208 A 
HETATM   25  C   UNL     1      19.962  51.434  48.454  1.00  0.00     0.119 A 
HETATM   26  F   UNL     1      19.813  52.764  48.368  1.00  0.00    -0.206 F 
HETATM   27  C   UNL     1      21.245  50.901  48.504  1.00  0.00     0.061 A 
ENDBRANCH   2  17
TORSDOF 5
ENDMDL
