MODEL 1
REMARK VINA RESULT:      -9.1      0.000      0.000
REMARK  6 active torsions:
REMARK  status: ('A' for Active; 'I' for Inactive)
REMARK    1  A    between atoms: C_2  and  N_3 
REMARK    2  A    between atoms: C_2  and  C_15 
REMARK    3  A    between atoms: C_5  and  C_6 
REMARK       I    between atoms: C_15  and  N_16 
REMARK    4  A    between atoms: N_16  and  C_17 
REMARK    5  A    between atoms: C_20  and  O_21 
REMARK    6  A    between atoms: O_21  and  C_22 
ROOT
HETATM    1  C   UNL     1      24.132  47.406  49.473  1.00  0.00     0.253 C 
HETATM    2  N   UNL     1      25.291  47.571  50.208  1.00  0.00    -0.325 N 
HETATM    3  O   UNL     1      23.385  46.432  49.539  1.00  0.00    -0.271 OA
HETATM    4  H   UNL     1      25.901  48.354  50.008  1.00  0.00     0.169 HD
ENDROOT
BRANCH   1   5
HETATM    5  C   UNL     1      23.665  48.620  48.623  1.00  0.00     0.276 C 
HETATM    6  C   UNL     1      24.628  49.799  48.522  1.00  0.00     0.050 C 
BRANCH   5   7
HETATM    7  N   UNL     1      22.277  49.146  49.045  1.00  0.00    -0.049 N 
HETATM    8  H   UNL     1      21.971  48.558  49.828  1.00  0.00     0.281 HD
HETATM    9  C   UNL     1      21.191  49.066  47.984  1.00  0.00     0.238 C 
HETATM   10  C   UNL     1      21.029  50.505  47.514  1.00  0.00     0.041 C 
HETATM   11  C   UNL     1      21.238  51.329  48.766  1.00  0.00     0.030 C 
HETATM   12  C   UNL     1      22.301  50.585  49.552  1.00  0.00     0.237 C 
BRANCH   9  13
HETATM   13  C   UNL     1      19.921  48.499  48.554  1.00  0.00     0.042 A 
HETATM   14  N   UNL     1      19.010  47.780  47.798  1.00  0.00    -0.363 N 
HETATM   15  C   UNL     1      19.085  47.487  46.380  1.00  0.00     0.155 C 
HETATM   16  C   UNL     1      17.953  47.399  48.584  1.00  0.00     0.090 A 
HETATM   17  C   UNL     1      18.158  47.886  49.851  1.00  0.00     0.019 A 
HETATM   18  C   UNL     1      19.384  48.584  49.835  1.00  0.00     0.028 A 
ENDBRANCH   9  13
ENDBRANCH   5   7
ENDBRANCH   1   5
BRANCH   2  19
HETATM   19  C   UNL     1      25.793  46.693  51.201  1.00  0.00     0.035 A 
HETATM   20  C   UNL     1      26.476  45.505  50.925  1.00  0.00     0.032 A 
HETATM   21  C   UNL     1      26.904  44.674  51.966  1.00  0.00     0.039 A 
HETATM   22  C   UNL     1      26.667  45.022  53.292  1.00  0.00     0.076 A 
HETATM   23  C   UNL     1      25.976  46.199  53.580  1.00  0.00     0.039 A 
HETATM   24  C   UNL     1      25.552  47.034  52.539  1.00  0.00     0.032 A 
BRANCH  22  25
HETATM   25  O   UNL     1      27.068  44.107  54.236  1.00  0.00    -0.311 OA
BRANCH  25  26
HETATM   26  C   UNL     1      28.356  44.173  54.708  1.00  0.00     0.076 A 
HETATM   27  C   UNL     1      28.689  45.284  55.485  1.00  0.00     0.037 A 
HETATM   28  C   UNL     1      29.966  45.386  56.037  1.00  0.00     0.003 A 
HETATM   29  C   UNL     1      30.900  44.372  55.825  1.00  0.00     0.000 A 
HETATM   30  C   UNL     1      30.557  43.250  55.069  1.00  0.00     0.003 A 
HETATM   31  C   UNL     1      29.280  43.143  54.516  1.00  0.00     0.037 A 
ENDBRANCH  25  26
ENDBRANCH  22  25
ENDBRANCH   2  19
TORSDOF 6
ENDMDL
MODEL 2
REMARK VINA RESULT:      -9.0      1.513      2.061
REMARK  6 active torsions:
REMARK  status: ('A' for Active; 'I' for Inactive)
REMARK    1  A    between atoms: C_2  and  N_3 
REMARK    2  A    between atoms: C_2  and  C_15 
REMARK    3  A    between atoms: C_5  and  C_6 
REMARK       I    between atoms: C_15  and  N_16 
REMARK    4  A    between atoms: N_16  and  C_17 
REMARK    5  A    between atoms: C_20  and  O_21 
REMARK    6  A    between atoms: O_21  and  C_22 
ROOT
HETATM    1  C   UNL     1      24.050  47.670  49.580  1.00  0.00     0.253 C 
HETATM    2  N   UNL     1      24.026  46.331  49.234  1.00  0.00    -0.325 N 
HETATM    3  O   UNL     1      24.638  48.138  50.553  1.00  0.00    -0.271 OA
HETATM    4  H   UNL     1      23.425  46.024  48.479  1.00  0.00     0.169 HD
ENDROOT
BRANCH   1   5
HETATM    5  C   UNL     1      23.419  48.665  48.568  1.00  0.00     0.276 C 
HETATM    6  C   UNL     1      24.260  49.877  48.180  1.00  0.00     0.050 C 
BRANCH   5   7
HETATM    7  N   UNL     1      22.019  49.150  49.001  1.00  0.00    -0.049 N 
HETATM    8  H   UNL     1      21.714  48.518  49.750  1.00  0.00     0.281 HD
HETATM    9  C   UNL     1      20.944  49.110  47.927  1.00  0.00     0.238 C 
HETATM   10  C   UNL     1      20.767  50.568  47.529  1.00  0.00     0.041 C 
HETATM   11  C   UNL     1      20.952  51.329  48.824  1.00  0.00     0.030 C 
HETATM   12  C   UNL     1      22.018  50.561  49.583  1.00  0.00     0.237 C 
BRANCH   9  13
HETATM   13  C   UNL     1      19.677  48.496  48.453  1.00  0.00     0.042 A 
HETATM   14  N   UNL     1      18.714  47.932  47.632  1.00  0.00    -0.363 N 
HETATM   15  C   UNL     1      18.728  47.864  46.184  1.00  0.00     0.155 C 
HETATM   16  C   UNL     1      17.675  47.463  48.392  1.00  0.00     0.090 A 
HETATM   17  C   UNL     1      17.942  47.737  49.710  1.00  0.00     0.019 A 
HETATM   18  C   UNL     1      19.191  48.394  49.752  1.00  0.00     0.028 A 
ENDBRANCH   9  13
ENDBRANCH   5   7
ENDBRANCH   1   5
BRANCH   2  19
HETATM   19  C   UNL     1      24.711  45.277  49.888  1.00  0.00     0.035 A 
HETATM   20  C   UNL     1      24.106  44.374  50.765  1.00  0.00     0.032 A 
HETATM   21  C   UNL     1      24.864  43.385  51.401  1.00  0.00     0.039 A 
HETATM   22  C   UNL     1      26.231  43.280  51.162  1.00  0.00     0.076 A 
HETATM   23  C   UNL     1      26.849  44.183  50.298  1.00  0.00     0.039 A 
HETATM   24  C   UNL     1      26.090  45.169  49.657  1.00  0.00     0.032 A 
BRANCH  22  25
HETATM   25  O   UNL     1      26.897  42.319  51.886  1.00  0.00    -0.311 OA
BRANCH  25  26
HETATM   26  C   UNL     1      27.866  42.720  52.772  1.00  0.00     0.076 A 
HETATM   27  C   UNL     1      29.175  42.316  52.504  1.00  0.00     0.037 A 
HETATM   28  C   UNL     1      30.214  42.732  53.336  1.00  0.00     0.003 A 
HETATM   29  C   UNL     1      29.945  43.563  54.423  1.00  0.00     0.000 A 
HETATM   30  C   UNL     1      28.639  43.987  54.675  1.00  0.00     0.003 A 
HETATM   31  C   UNL     1      27.597  43.574  53.844  1.00  0.00     0.037 A 
ENDBRANCH  25  26
ENDBRANCH  22  25
ENDBRANCH   2  19
TORSDOF 6
ENDMDL
MODEL 3
REMARK VINA RESULT:      -8.7      2.383     10.295
REMARK  6 active torsions:
REMARK  status: ('A' for Active; 'I' for Inactive)
REMARK    1  A    between atoms: C_2  and  N_3 
REMARK    2  A    between atoms: C_2  and  C_15 
REMARK    3  A    between atoms: C_5  and  C_6 
REMARK       I    between atoms: C_15  and  N_16 
REMARK    4  A    between atoms: N_16  and  C_17 
REMARK    5  A    between atoms: C_20  and  O_21 
REMARK    6  A    between atoms: O_21  and  C_22 
ROOT
HETATM    1  C   UNL     1      25.854  46.643  51.363  1.00  0.00     0.253 C 
HETATM    2  N   UNL     1      25.524  46.715  50.023  1.00  0.00    -0.325 N 
HETATM    3  O   UNL     1      25.473  47.429  52.229  1.00  0.00    -0.271 OA
HETATM    4  H   UNL     1      25.974  46.090  49.365  1.00  0.00     0.169 HD
ENDROOT
BRANCH   1   5
HETATM    5  C   UNL     1      26.634  45.381  51.824  1.00  0.00     0.276 C 
HETATM    6  C   UNL     1      26.177  44.043  51.252  1.00  0.00     0.050 C 
BRANCH   5   7
HETATM    7  N   UNL     1      26.722  45.261  53.361  1.00  0.00    -0.049 N 
HETATM    8  H   UNL     1      26.961  46.196  53.710  1.00  0.00     0.281 HD
HETATM    9  C   UNL     1      27.782  44.309  53.889  1.00  0.00     0.238 C 
HETATM   10  C   UNL     1      26.990  43.094  54.349  1.00  0.00     0.041 C 
HETATM   11  C   UNL     1      25.709  43.677  54.904  1.00  0.00     0.030 C 
HETATM   12  C   UNL     1      25.401  44.867  54.015  1.00  0.00     0.237 C 
BRANCH   9  13
HETATM   13  C   UNL     1      28.569  44.942  55.003  1.00  0.00     0.042 A 
HETATM   14  N   UNL     1      29.804  44.471  55.416  1.00  0.00    -0.363 N 
HETATM   15  C   UNL     1      30.519  43.318  54.904  1.00  0.00     0.155 C 
HETATM   16  C   UNL     1      30.272  45.242  56.449  1.00  0.00     0.090 A 
HETATM   17  C   UNL     1      29.334  46.204  56.731  1.00  0.00     0.019 A 
HETATM   18  C   UNL     1      28.262  46.014  55.835  1.00  0.00     0.028 A 
ENDBRANCH   9  13
ENDBRANCH   5   7
ENDBRANCH   1   5
BRANCH   2  19
HETATM   19  C   UNL     1      24.652  47.654  49.417  1.00  0.00     0.035 A 
HETATM   20  C   UNL     1      23.306  47.405  49.134  1.00  0.00     0.032 A 
HETATM   21  C   UNL     1      22.523  48.375  48.499  1.00  0.00     0.039 A 
HETATM   22  C   UNL     1      23.070  49.605  48.146  1.00  0.00     0.076 A 
HETATM   23  C   UNL     1      24.414  49.861  48.412  1.00  0.00     0.039 A 
HETATM   24  C   UNL     1      25.197  48.893  49.054  1.00  0.00     0.032 A 
BRANCH  22  25
HETATM   25  O   UNL     1      22.237  50.462  47.466  1.00  0.00    -0.311 OA
BRANCH  25  26
HETATM   26  C   UNL     1      21.014  50.762  48.016  1.00  0.00     0.076 A 
HETATM   27  C   UNL     1      19.886  50.468  47.249  1.00  0.00     0.037 A 
HETATM   28  C   UNL     1      18.613  50.701  47.770  1.00  0.00     0.003 A 
HETATM   29  C   UNL     1      18.472  51.212  49.061  1.00  0.00     0.000 A 
HETATM   30  C   UNL     1      19.601  51.481  49.836  1.00  0.00     0.003 A 
HETATM   31  C   UNL     1      20.876  51.248  49.318  1.00  0.00     0.037 A 
ENDBRANCH  25  26
ENDBRANCH  22  25
ENDBRANCH   2  19
TORSDOF 6
ENDMDL
MODEL 4
REMARK VINA RESULT:      -8.6      2.298     10.077
REMARK  6 active torsions:
REMARK  status: ('A' for Active; 'I' for Inactive)
REMARK    1  A    between atoms: C_2  and  N_3 
REMARK    2  A    between atoms: C_2  and  C_15 
REMARK    3  A    between atoms: C_5  and  C_6 
REMARK       I    between atoms: C_15  and  N_16 
REMARK    4  A    between atoms: N_16  and  C_17 
REMARK    5  A    between atoms: C_20  and  O_21 
REMARK    6  A    between atoms: O_21  and  C_22 
ROOT
HETATM    1  C   UNL     1      24.716  45.000  50.764  1.00  0.00     0.253 C 
HETATM    2  N   UNL     1      24.768  46.058  49.875  1.00  0.00    -0.325 N 
HETATM    3  O   UNL     1      23.686  44.528  51.242  1.00  0.00    -0.271 OA
HETATM    4  H   UNL     1      25.667  46.450  49.621  1.00  0.00     0.169 HD
ENDROOT
BRANCH   1   5
HETATM    5  C   UNL     1      26.052  44.259  51.048  1.00  0.00     0.276 C 
HETATM    6  C   UNL     1      25.998  42.735  51.081  1.00  0.00     0.050 C 
BRANCH   5   7
HETATM    7  N   UNL     1      26.752  44.759  52.330  1.00  0.00    -0.049 N 
HETATM    8  H   UNL     1      27.727  44.948  52.071  1.00  0.00     0.281 HD
HETATM    9  C   UNL     1      26.787  43.777  53.489  1.00  0.00     0.238 C 
HETATM   10  C   UNL     1      25.745  44.316  54.459  1.00  0.00     0.041 C 
HETATM   11  C   UNL     1      25.864  45.820  54.331  1.00  0.00     0.030 C 
HETATM   12  C   UNL     1      26.174  46.066  52.867  1.00  0.00     0.237 C 
BRANCH   9  13
HETATM   13  C   UNL     1      28.160  43.707  54.097  1.00  0.00     0.042 A 
HETATM   14  N   UNL     1      29.029  42.651  53.877  1.00  0.00    -0.363 N 
HETATM   15  C   UNL     1      28.779  41.459  53.091  1.00  0.00     0.155 C 
HETATM   16  C   UNL     1      30.197  42.862  54.563  1.00  0.00     0.090 A 
HETATM   17  C   UNL     1      30.088  44.044  55.252  1.00  0.00     0.019 A 
HETATM   18  C   UNL     1      28.810  44.572  54.971  1.00  0.00     0.028 A 
ENDBRANCH   9  13
ENDBRANCH   5   7
ENDBRANCH   1   5
BRANCH   2  19
HETATM   19  C   UNL     1      23.663  46.743  49.312  1.00  0.00     0.035 A 
HETATM   20  C   UNL     1      22.697  46.140  48.502  1.00  0.00     0.032 A 
HETATM   21  C   UNL     1      21.657  46.898  47.953  1.00  0.00     0.039 A 
HETATM   22  C   UNL     1      21.563  48.262  48.213  1.00  0.00     0.076 A 
HETATM   23  C   UNL     1      22.527  48.877  49.010  1.00  0.00     0.039 A 
HETATM   24  C   UNL     1      23.565  48.118  49.565  1.00  0.00     0.032 A 
BRANCH  22  25
HETATM   25  O   UNL     1      20.545  48.929  47.573  1.00  0.00    -0.311 OA
BRANCH  25  26
HETATM   26  C   UNL     1      19.869  49.907  48.260  1.00  0.00     0.076 A 
HETATM   27  C   UNL     1      19.078  49.497  49.334  1.00  0.00     0.037 A 
HETATM   28  C   UNL     1      18.406  50.446  50.104  1.00  0.00     0.003 A 
HETATM   29  C   UNL     1      18.540  51.803  49.809  1.00  0.00     0.000 A 
HETATM   30  C   UNL     1      19.351  52.213  48.750  1.00  0.00     0.003 A 
HETATM   31  C   UNL     1      20.026  51.267  47.978  1.00  0.00     0.037 A 
ENDBRANCH  25  26
ENDBRANCH  22  25
ENDBRANCH   2  19
TORSDOF 6
ENDMDL
MODEL 5
REMARK VINA RESULT:      -8.6      2.453      9.699
REMARK  6 active torsions:
REMARK  status: ('A' for Active; 'I' for Inactive)
REMARK    1  A    between atoms: C_2  and  N_3 
REMARK    2  A    between atoms: C_2  and  C_15 
REMARK    3  A    between atoms: C_5  and  C_6 
REMARK       I    between atoms: C_15  and  N_16 
REMARK    4  A    between atoms: N_16  and  C_17 
REMARK    5  A    between atoms: C_20  and  O_21 
REMARK    6  A    between atoms: O_21  and  C_22 
ROOT
HETATM    1  C   UNL     1      25.314  44.307  51.209  1.00  0.00     0.253 C 
HETATM    2  N   UNL     1      25.393  45.153  50.120  1.00  0.00    -0.325 N 
HETATM    3  O   UNL     1      24.316  44.148  51.911  1.00  0.00    -0.271 OA
HETATM    4  H   UNL     1      26.288  45.302  49.669  1.00  0.00     0.169 HD
ENDROOT
BRANCH   1   5
HETATM    5  C   UNL     1      26.531  43.373  51.460  1.00  0.00     0.276 C 
HETATM    6  C   UNL     1      26.343  41.896  51.128  1.00  0.00     0.050 C 
BRANCH   5   7
HETATM    7  N   UNL     1      27.091  43.493  52.893  1.00  0.00    -0.049 N 
HETATM    8  H   UNL     1      26.341  43.899  53.463  1.00  0.00     0.281 HD
HETATM    9  C   UNL     1      28.303  44.396  53.054  1.00  0.00     0.238 C 
HETATM   10  C   UNL     1      29.464  43.427  53.227  1.00  0.00     0.041 C 
HETATM   11  C   UNL     1      28.873  42.283  54.023  1.00  0.00     0.030 C 
HETATM   12  C   UNL     1      27.448  42.149  53.520  1.00  0.00     0.237 C 
BRANCH   9  13
HETATM   13  C   UNL     1      28.138  45.317  54.231  1.00  0.00     0.042 A 
HETATM   14  N   UNL     1      27.292  46.413  54.218  1.00  0.00    -0.363 N 
HETATM   15  C   UNL     1      26.475  46.877  53.114  1.00  0.00     0.155 C 
HETATM   16  C   UNL     1      27.357  47.062  55.424  1.00  0.00     0.090 A 
HETATM   17  C   UNL     1      28.263  46.408  56.221  1.00  0.00     0.019 A 
HETATM   18  C   UNL     1      28.762  45.320  55.474  1.00  0.00     0.028 A 
ENDBRANCH   9  13
ENDBRANCH   5   7
ENDBRANCH   1   5
BRANCH   2  19
HETATM   19  C   UNL     1      24.342  45.935  49.580  1.00  0.00     0.035 A 
HETATM   20  C   UNL     1      23.268  45.413  48.854  1.00  0.00     0.032 A 
HETATM   21  C   UNL     1      22.291  46.261  48.322  1.00  0.00     0.039 A 
HETATM   22  C   UNL     1      22.368  47.636  48.515  1.00  0.00     0.076 A 
HETATM   23  C   UNL     1      23.441  48.172  49.226  1.00  0.00     0.039 A 
HETATM   24  C   UNL     1      24.416  47.323  49.765  1.00  0.00     0.032 A 
BRANCH  22  25
HETATM   25  O   UNL     1      21.396  48.387  47.895  1.00  0.00    -0.311 OA
BRANCH  25  26
HETATM   26  C   UNL     1      20.731  49.336  48.632  1.00  0.00     0.076 A 
HETATM   27  C   UNL     1      20.853  50.662  48.214  1.00  0.00     0.037 A 
HETATM   28  C   UNL     1      20.162  51.668  48.888  1.00  0.00     0.003 A 
HETATM   29  C   UNL     1      19.338  51.345  49.967  1.00  0.00     0.000 A 
HETATM   30  C   UNL     1      19.197  50.015  50.367  1.00  0.00     0.003 A 
HETATM   31  C   UNL     1      19.886  49.006  49.694  1.00  0.00     0.037 A 
ENDBRANCH  25  26
ENDBRANCH  22  25
ENDBRANCH   2  19
TORSDOF 6
ENDMDL
MODEL 6
REMARK VINA RESULT:      -7.8      2.159      3.004
REMARK  6 active torsions:
REMARK  status: ('A' for Active; 'I' for Inactive)
REMARK    1  A    between atoms: C_2  and  N_3 
REMARK    2  A    between atoms: C_2  and  C_15 
REMARK    3  A    between atoms: C_5  and  C_6 
REMARK       I    between atoms: C_15  and  N_16 
REMARK    4  A    between atoms: N_16  and  C_17 
REMARK    5  A    between atoms: C_20  and  O_21 
REMARK    6  A    between atoms: O_21  and  C_22 
ROOT
HETATM    1  C   UNL     1      21.945  48.372  48.771  1.00  0.00     0.253 C 
HETATM    2  N   UNL     1      23.279  48.208  49.094  1.00  0.00    -0.325 N 
HETATM    3  O   UNL     1      21.084  47.496  48.852  1.00  0.00    -0.271 OA
HETATM    4  H   UNL     1      23.935  48.952  48.891  1.00  0.00     0.169 HD
ENDROOT
BRANCH   1   5
HETATM    5  C   UNL     1      21.479  49.815  48.434  1.00  0.00     0.276 C 
HETATM    6  C   UNL     1      22.338  50.956  48.969  1.00  0.00     0.050 C 
BRANCH   5   7
HETATM    7  N   UNL     1      20.008  50.075  48.824  1.00  0.00    -0.049 N 
HETATM    8  H   UNL     1      19.581  49.153  48.967  1.00  0.00     0.281 HD
HETATM    9  C   UNL     1      19.166  50.793  47.783  1.00  0.00     0.238 C 
HETATM   10  C   UNL     1      19.029  52.206  48.332  1.00  0.00     0.041 C 
HETATM   11  C   UNL     1      18.935  52.012  49.830  1.00  0.00     0.030 C 
HETATM   12  C   UNL     1      19.854  50.844  50.133  1.00  0.00     0.237 C 
BRANCH   9  13
HETATM   13  C   UNL     1      17.838  50.113  47.599  1.00  0.00     0.042 A 
HETATM   14  N   UNL     1      17.005  50.364  46.522  1.00  0.00    -0.363 N 
HETATM   15  C   UNL     1      17.226  51.307  45.443  1.00  0.00     0.155 C 
HETATM   16  C   UNL     1      15.869  49.604  46.629  1.00  0.00     0.090 A 
HETATM   17  C   UNL     1      15.944  48.872  47.787  1.00  0.00     0.019 A 
HETATM   18  C   UNL     1      17.171  49.195  48.403  1.00  0.00     0.028 A 
ENDBRANCH   9  13
ENDBRANCH   5   7
ENDBRANCH   1   5
BRANCH   2  19
HETATM   19  C   UNL     1      23.881  47.041  49.626  1.00  0.00     0.035 A 
HETATM   20  C   UNL     1      23.625  45.746  49.168  1.00  0.00     0.032 A 
HETATM   21  C   UNL     1      24.234  44.643  49.776  1.00  0.00     0.039 A 
HETATM   22  C   UNL     1      25.111  44.819  50.842  1.00  0.00     0.076 A 
HETATM   23  C   UNL     1      25.366  46.105  51.317  1.00  0.00     0.039 A 
HETATM   24  C   UNL     1      24.762  47.210  50.704  1.00  0.00     0.032 A 
BRANCH  22  25
HETATM   25  O   UNL     1      25.603  43.669  51.413  1.00  0.00    -0.311 OA
BRANCH  25  26
HETATM   26  C   UNL     1      26.490  43.783  52.456  1.00  0.00     0.076 A 
HETATM   27  C   UNL     1      27.848  43.697  52.144  1.00  0.00     0.037 A 
HETATM   28  C   UNL     1      28.802  43.856  53.150  1.00  0.00     0.003 A 
HETATM   29  C   UNL     1      28.397  44.115  54.459  1.00  0.00     0.000 A 
HETATM   30  C   UNL     1      27.039  44.226  54.764  1.00  0.00     0.003 A 
HETATM   31  C   UNL     1      26.082  44.070  53.761  1.00  0.00     0.037 A 
ENDBRANCH  25  26
ENDBRANCH  22  25
ENDBRANCH   2  19
TORSDOF 6
ENDMDL
MODEL 7
REMARK VINA RESULT:      -7.8     19.212     21.775
REMARK  6 active torsions:
REMARK  status: ('A' for Active; 'I' for Inactive)
REMARK    1  A    between atoms: C_2  and  N_3 
REMARK    2  A    between atoms: C_2  and  C_15 
REMARK    3  A    between atoms: C_5  and  C_6 
REMARK       I    between atoms: C_15  and  N_16 
REMARK    4  A    between atoms: N_16  and  C_17 
REMARK    5  A    between atoms: C_20  and  O_21 
REMARK    6  A    between atoms: O_21  and  C_22 
ROOT
HETATM    1  C   UNL     1      37.029  45.570  64.369  1.00  0.00     0.253 C 
HETATM    2  N   UNL     1      37.765  46.122  65.401  1.00  0.00    -0.325 N 
HETATM    3  O   UNL     1      36.575  46.194  63.411  1.00  0.00    -0.271 OA
HETATM    4  H   UNL     1      38.003  45.552  66.203  1.00  0.00     0.169 HD
ENDROOT
BRANCH   1   5
HETATM    5  C   UNL     1      36.910  44.021  64.346  1.00  0.00     0.276 C 
HETATM    6  C   UNL     1      36.693  43.329  65.688  1.00  0.00     0.050 C 
BRANCH   5   7
HETATM    7  N   UNL     1      38.091  43.342  63.621  1.00  0.00    -0.049 N 
HETATM    8  H   UNL     1      37.679  42.643  62.992  1.00  0.00     0.281 HD
HETATM    9  C   UNL     1      39.077  42.605  64.512  1.00  0.00     0.238 C 
HETATM   10  C   UNL     1      40.292  43.520  64.553  1.00  0.00     0.041 C 
HETATM   11  C   UNL     1      40.351  44.117  63.163  1.00  0.00     0.030 C 
HETATM   12  C   UNL     1      38.902  44.299  62.752  1.00  0.00     0.237 C 
BRANCH   9  13
HETATM   13  C   UNL     1      39.396  41.245  63.955  1.00  0.00     0.042 A 
HETATM   14  N   UNL     1      40.054  40.268  64.683  1.00  0.00    -0.363 N 
HETATM   15  C   UNL     1      40.566  40.376  66.036  1.00  0.00     0.155 C 
HETATM   16  C   UNL     1      40.208  39.143  63.914  1.00  0.00     0.090 A 
HETATM   17  C   UNL     1      39.673  39.388  62.674  1.00  0.00     0.019 A 
HETATM   18  C   UNL     1      39.172  40.707  62.692  1.00  0.00     0.028 A 
ENDBRANCH   9  13
ENDBRANCH   5   7
ENDBRANCH   1   5
BRANCH   2  19
HETATM   19  C   UNL     1      38.178  47.473  65.515  1.00  0.00     0.035 A 
HETATM   20  C   UNL     1      39.470  47.925  65.231  1.00  0.00     0.032 A 
HETATM   21  C   UNL     1      39.806  49.271  65.407  1.00  0.00     0.039 A 
HETATM   22  C   UNL     1      38.857  50.183  65.858  1.00  0.00     0.076 A 
HETATM   23  C   UNL     1      37.568  49.743  66.156  1.00  0.00     0.039 A 
HETATM   24  C   UNL     1      37.229  48.397  65.974  1.00  0.00     0.032 A 
BRANCH  22  25
HETATM   25  O   UNL     1      39.304  51.468  66.062  1.00  0.00    -0.311 OA
BRANCH  25  26
HETATM   26  C   UNL     1      38.570  52.297  66.874  1.00  0.00     0.076 A 
HETATM   27  C   UNL     1      38.567  52.006  68.239  1.00  0.00     0.037 A 
HETATM   28  C   UNL     1      37.883  52.839  69.125  1.00  0.00     0.003 A 
HETATM   29  C   UNL     1      37.218  53.968  68.646  1.00  0.00     0.000 A 
HETATM   30  C   UNL     1      37.243  54.271  67.283  1.00  0.00     0.003 A 
HETATM   31  C   UNL     1      37.928  53.441  66.395  1.00  0.00     0.037 A 
ENDBRANCH  25  26
ENDBRANCH  22  25
ENDBRANCH   2  19
TORSDOF 6
ENDMDL
MODEL 8
REMARK VINA RESULT:      -7.6      3.367      5.825
REMARK  6 active torsions:
REMARK  status: ('A' for Active; 'I' for Inactive)
REMARK    1  A    between atoms: C_2  and  N_3 
REMARK    2  A    between atoms: C_2  and  C_15 
REMARK    3  A    between atoms: C_5  and  C_6 
REMARK       I    between atoms: C_15  and  N_16 
REMARK    4  A    between atoms: N_16  and  C_17 
REMARK    5  A    between atoms: C_20  and  O_21 
REMARK    6  A    between atoms: O_21  and  C_22 
ROOT
HETATM    1  C   UNL     1      18.649  48.544  49.290  1.00  0.00     0.253 C 
HETATM    2  N   UNL     1      19.709  48.586  48.403  1.00  0.00    -0.325 N 
HETATM    3  O   UNL     1      18.747  48.356  50.502  1.00  0.00    -0.271 OA
HETATM    4  H   UNL     1      19.523  48.636  47.409  1.00  0.00     0.169 HD
ENDROOT
BRANCH   1   5
HETATM    5  C   UNL     1      17.251  48.922  48.728  1.00  0.00     0.276 C 
HETATM    6  C   UNL     1      16.873  48.332  47.373  1.00  0.00     0.050 C 
BRANCH   5   7
HETATM    7  N   UNL     1      17.014  50.447  48.690  1.00  0.00    -0.049 N 
HETATM    8  H   UNL     1      16.005  50.585  48.810  1.00  0.00     0.281 HD
HETATM    9  C   UNL     1      17.402  51.143  47.395  1.00  0.00     0.238 C 
HETATM   10  C   UNL     1      18.697  51.865  47.740  1.00  0.00     0.041 C 
HETATM   11  C   UNL     1      18.500  52.311  49.173  1.00  0.00     0.030 C 
HETATM   12  C   UNL     1      17.704  51.197  49.825  1.00  0.00     0.237 C 
BRANCH   9  13
HETATM   13  C   UNL     1      16.319  52.081  46.941  1.00  0.00     0.042 A 
HETATM   14  N   UNL     1      16.231  52.561  45.645  1.00  0.00    -0.363 N 
HETATM   15  C   UNL     1      17.140  52.292  44.547  1.00  0.00     0.155 C 
HETATM   16  C   UNL     1      15.151  53.397  45.533  1.00  0.00     0.090 A 
HETATM   17  C   UNL     1      14.542  53.485  46.760  1.00  0.00     0.019 A 
HETATM   18  C   UNL     1      15.276  52.671  47.647  1.00  0.00     0.028 A 
ENDBRANCH   9  13
ENDBRANCH   5   7
ENDBRANCH   1   5
BRANCH   2  19
HETATM   19  C   UNL     1      21.085  48.484  48.727  1.00  0.00     0.035 A 
HETATM   20  C   UNL     1      21.872  49.556  49.155  1.00  0.00     0.032 A 
HETATM   21  C   UNL     1      23.234  49.377  49.417  1.00  0.00     0.039 A 
HETATM   22  C   UNL     1      23.825  48.127  49.263  1.00  0.00     0.076 A 
HETATM   23  C   UNL     1      23.054  47.051  48.825  1.00  0.00     0.039 A 
HETATM   24  C   UNL     1      21.688  47.228  48.568  1.00  0.00     0.032 A 
BRANCH  22  25
HETATM   25  O   UNL     1      25.182  48.071  49.480  1.00  0.00    -0.311 OA
BRANCH  25  26
HETATM   26  C   UNL     1      25.682  47.044  50.243  1.00  0.00     0.076 A 
HETATM   27  C   UNL     1      25.315  47.018  51.589  1.00  0.00     0.037 A 
HETATM   28  C   UNL     1      25.747  45.974  52.407  1.00  0.00     0.003 A 
HETATM   29  C   UNL     1      26.530  44.951  51.873  1.00  0.00     0.000 A 
HETATM   30  C   UNL     1      26.875  44.964  50.521  1.00  0.00     0.003 A 
HETATM   31  C   UNL     1      26.444  46.007  49.700  1.00  0.00     0.037 A 
ENDBRANCH  25  26
ENDBRANCH  22  25
ENDBRANCH   2  19
TORSDOF 6
ENDMDL
MODEL 9
REMARK VINA RESULT:      -7.4     12.312     13.999
REMARK  6 active torsions:
REMARK  status: ('A' for Active; 'I' for Inactive)
REMARK    1  A    between atoms: C_2  and  N_3 
REMARK    2  A    between atoms: C_2  and  C_15 
REMARK    3  A    between atoms: C_5  and  C_6 
REMARK       I    between atoms: C_15  and  N_16 
REMARK    4  A    between atoms: N_16  and  C_17 
REMARK    5  A    between atoms: C_20  and  O_21 
REMARK    6  A    between atoms: O_21  and  C_22 
ROOT
HETATM    1  C   UNL     1      32.332  50.415  43.196  1.00  0.00     0.253 C 
HETATM    2  N   UNL     1      33.504  50.494  42.468  1.00  0.00    -0.325 N 
HETATM    3  O   UNL     1      32.138  50.954  44.285  1.00  0.00    -0.271 OA
HETATM    4  H   UNL     1      33.611  49.928  41.635  1.00  0.00     0.169 HD
ENDROOT
BRANCH   1   5
HETATM    5  C   UNL     1      31.124  49.725  42.505  1.00  0.00     0.276 C 
HETATM    6  C   UNL     1      31.418  48.453  41.716  1.00  0.00     0.050 C 
BRANCH   5   7
HETATM    7  N   UNL     1      30.317  50.690  41.609  1.00  0.00    -0.049 N 
HETATM    8  H   UNL     1      29.327  50.478  41.776  1.00  0.00     0.281 HD
HETATM    9  C   UNL     1      30.551  50.553  40.114  1.00  0.00     0.238 C 
HETATM   10  C   UNL     1      31.411  51.759  39.764  1.00  0.00     0.041 C 
HETATM   11  C   UNL     1      30.890  52.858  40.666  1.00  0.00     0.030 C 
HETATM   12  C   UNL     1      30.522  52.160  41.962  1.00  0.00     0.237 C 
BRANCH   9  13
HETATM   13  C   UNL     1      29.248  50.535  39.363  1.00  0.00     0.042 A 
HETATM   14  N   UNL     1      28.733  49.391  38.776  1.00  0.00    -0.363 N 
HETATM   15  C   UNL     1      29.336  48.073  38.743  1.00  0.00     0.155 C 
HETATM   16  C   UNL     1      27.543  49.683  38.161  1.00  0.00     0.090 A 
HETATM   17  C   UNL     1      27.287  51.022  38.324  1.00  0.00     0.019 A 
HETATM   18  C   UNL     1      28.358  51.561  39.067  1.00  0.00     0.028 A 
ENDBRANCH   9  13
ENDBRANCH   5   7
ENDBRANCH   1   5
BRANCH   2  19
HETATM   19  C   UNL     1      34.658  51.246  42.803  1.00  0.00     0.035 A 
HETATM   20  C   UNL     1      34.775  52.032  43.952  1.00  0.00     0.032 A 
HETATM   21  C   UNL     1      35.936  52.775  44.188  1.00  0.00     0.039 A 
HETATM   22  C   UNL     1      36.996  52.736  43.288  1.00  0.00     0.076 A 
HETATM   23  C   UNL     1      36.887  51.965  42.131  1.00  0.00     0.039 A 
HETATM   24  C   UNL     1      35.727  51.216  41.897  1.00  0.00     0.032 A 
BRANCH  22  25
HETATM   25  O   UNL     1      38.064  53.554  43.577  1.00  0.00    -0.311 OA
BRANCH  25  26
HETATM   26  C   UNL     1      38.448  53.691  44.888  1.00  0.00     0.076 A 
HETATM   27  C   UNL     1      39.213  52.660  45.436  1.00  0.00     0.037 A 
HETATM   28  C   UNL     1      39.679  52.762  46.746  1.00  0.00     0.003 A 
HETATM   29  C   UNL     1      39.392  53.900  47.501  1.00  0.00     0.000 A 
HETATM   30  C   UNL     1      38.648  54.941  46.943  1.00  0.00     0.003 A 
HETATM   31  C   UNL     1      38.182  54.843  45.632  1.00  0.00     0.037 A 
ENDBRANCH  25  26
ENDBRANCH  22  25
ENDBRANCH   2  19
TORSDOF 6
ENDMDL
MODEL 10
REMARK VINA RESULT:      -7.4      3.866      9.689
REMARK  6 active torsions:
REMARK  status: ('A' for Active; 'I' for Inactive)
REMARK    1  A    between atoms: C_2  and  N_3 
REMARK    2  A    between atoms: C_2  and  C_15 
REMARK    3  A    between atoms: C_5  and  C_6 
REMARK       I    between atoms: C_15  and  N_16 
REMARK    4  A    between atoms: N_16  and  C_17 
REMARK    5  A    between atoms: C_20  and  O_21 
REMARK    6  A    between atoms: O_21  and  C_22 
ROOT
HETATM    1  C   UNL     1      25.951  44.640  49.871  1.00  0.00     0.253 C 
HETATM    2  N   UNL     1      24.617  44.966  50.032  1.00  0.00    -0.325 N 
HETATM    3  O   UNL     1      26.735  45.220  49.122  1.00  0.00    -0.271 OA
HETATM    4  H   UNL     1      24.021  44.364  50.587  1.00  0.00     0.169 HD
ENDROOT
BRANCH   1   5
HETATM    5  C   UNL     1      26.528  43.563  50.830  1.00  0.00     0.276 C 
HETATM    6  C   UNL     1      27.449  44.057  51.942  1.00  0.00     0.050 C 
BRANCH   5   7
HETATM    7  N   UNL     1      27.227  42.409  50.081  1.00  0.00    -0.049 N 
HETATM    8  H   UNL     1      27.803  42.845  49.352  1.00  0.00     0.281 HD
HETATM    9  C   UNL     1      26.306  41.422  49.383  1.00  0.00     0.238 C 
HETATM   10  C   UNL     1      26.345  40.189  50.274  1.00  0.00     0.041 C 
HETATM   11  C   UNL     1      27.771  40.143  50.779  1.00  0.00     0.030 C 
HETATM   12  C   UNL     1      28.169  41.595  50.964  1.00  0.00     0.237 C 
BRANCH   9  13
HETATM   13  C   UNL     1      26.779  41.139  47.984  1.00  0.00     0.042 A 
HETATM   14  N   UNL     1      25.916  40.853  46.940  1.00  0.00    -0.363 N 
HETATM   15  C   UNL     1      24.471  40.741  47.001  1.00  0.00     0.155 C 
HETATM   16  C   UNL     1      26.634  40.634  45.792  1.00  0.00     0.090 A 
HETATM   17  C   UNL     1      27.969  40.753  46.086  1.00  0.00     0.019 A 
HETATM   18  C   UNL     1      28.065  41.060  47.460  1.00  0.00     0.028 A 
ENDBRANCH   9  13
ENDBRANCH   5   7
ENDBRANCH   1   5
BRANCH   2  19
HETATM   19  C   UNL     1      23.932  46.047  49.422  1.00  0.00     0.035 A 
HETATM   20  C   UNL     1      24.144  47.390  49.742  1.00  0.00     0.032 A 
HETATM   21  C   UNL     1      23.397  48.395  49.119  1.00  0.00     0.039 A 
HETATM   22  C   UNL     1      22.437  48.074  48.165  1.00  0.00     0.076 A 
HETATM   23  C   UNL     1      22.207  46.736  47.846  1.00  0.00     0.039 A 
HETATM   24  C   UNL     1      22.959  45.730  48.464  1.00  0.00     0.032 A 
BRANCH  22  25
HETATM   25  O   UNL     1      21.710  49.127  47.662  1.00  0.00    -0.311 OA
BRANCH  25  26
HETATM   26  C   UNL     1      20.839  49.782  48.498  1.00  0.00     0.076 A 
HETATM   27  C   UNL     1      20.645  51.145  48.269  1.00  0.00     0.037 A 
HETATM   28  C   UNL     1      19.735  51.857  49.050  1.00  0.00     0.003 A 
HETATM   29  C   UNL     1      19.010  51.202  50.046  1.00  0.00     0.000 A 
HETATM   30  C   UNL     1      19.186  49.833  50.256  1.00  0.00     0.003 A 
HETATM   31  C   UNL     1      20.095  49.117  49.476  1.00  0.00     0.037 A 
ENDBRANCH  25  26
ENDBRANCH  22  25
ENDBRANCH   2  19
TORSDOF 6
ENDMDL
