MODEL 1
REMARK VINA RESULT:     -10.0      0.000      0.000
REMARK  4 active torsions:
REMARK  status: ('A' for Active; 'I' for Inactive)
REMARK    1  A    between atoms: C_3  and  C_4 
REMARK       I    between atoms: C_4  and  N_5 
REMARK    2  A    between atoms: N_5  and  N_6 
REMARK    3  A    between atoms: C_7  and  C_8 
REMARK    4  A    between atoms: C_23  and  C_24 
ROOT
HETATM    1  C   UNL     1      24.665  48.201  49.858  1.00  0.00     0.290 C 
HETATM    2  N   UNL     1      24.668  47.521  51.067  1.00  0.00    -0.242 N 
HETATM    3  O   UNL     1      25.666  48.425  49.183  1.00  0.00    -0.264 OA
HETATM    4  H   UNL     1      23.798  47.424  51.571  1.00  0.00     0.192 HD
ENDROOT
BRANCH   1   5
HETATM    5  C   UNL     1      23.361  48.622  49.390  1.00  0.00     0.127 A 
HETATM    6  C   UNL     1      22.818  49.797  48.879  1.00  0.00     0.003 A 
HETATM    7  C   UNL     1      23.502  51.079  48.560  1.00  0.00     0.053 C 
HETATM    8  C   UNL     1      21.427  49.498  48.669  1.00  0.00     0.095 A 
HETATM    9  N   UNL     1      21.167  48.215  48.950  1.00  0.00    -0.173 NA
HETATM   10  N   UNL     1      22.338  47.714  49.349  1.00  0.00    -0.272 N 
HETATM   11  H   UNL     1      22.390  46.732  49.604  1.00  0.00     0.189 HD
BRANCH   8  12
HETATM   12  C   UNL     1      20.361  50.380  48.192  1.00  0.00    -0.005 A 
HETATM   13  C   UNL     1      20.074  51.587  48.846  1.00  0.00     0.014 A 
HETATM   14  C   UNL     1      19.054  52.420  48.380  1.00  0.00     0.001 A 
HETATM   15  C   UNL     1      18.305  52.051  47.263  1.00  0.00     0.000 A 
HETATM   16  C   UNL     1      18.571  50.847  46.614  1.00  0.00     0.001 A 
HETATM   17  C   UNL     1      19.592  50.014  47.079  1.00  0.00     0.014 A 
ENDBRANCH   8  12
ENDBRANCH   1   5
BRANCH   2  18
HETATM   18  N   UNL     1      25.756  47.122  51.803  1.00  0.00    -0.183 NA
HETATM   19  C   UNL     1      25.589  46.586  52.969  1.00  0.00     0.153 C 
BRANCH  19  20
HETATM   20  C   UNL     1      26.744  46.113  53.718  1.00  0.00     0.018 A 
HETATM   21  C   UNL     1      27.498  44.925  53.432  1.00  0.00     0.004 A 
HETATM   22  C   UNL     1      28.521  44.839  54.375  1.00  0.00     0.043 A 
HETATM   23  C   UNL     1      27.408  43.911  52.453  1.00  0.00     0.014 A 
HETATM   24  C   UNL     1      29.455  43.796  54.394  1.00  0.00     0.030 A 
HETATM   25  N   UNL     1      28.398  45.927  55.204  1.00  0.00    -0.358 N 
HETATM   26  C   UNL     1      29.341  42.806  53.413  1.00  0.00     0.002 A 
HETATM   27  C   UNL     1      28.332  42.860  52.456  1.00  0.00     0.001 A 
HETATM   28  H   UNL     1      29.014  46.121  55.982  1.00  0.00     0.166 HD
HETATM   29  C   UNL     1      27.335  46.709  54.826  1.00  0.00     0.018 A 
HETATM   30  C   UNL     1      27.000  47.954  55.567  1.00  0.00     0.069 C 
ENDBRANCH  19  20
ENDBRANCH   2  18
TORSDOF 4
ENDMDL
MODEL 2
REMARK VINA RESULT:      -9.9      1.041      2.217
REMARK  4 active torsions:
REMARK  status: ('A' for Active; 'I' for Inactive)
REMARK    1  A    between atoms: C_3  and  C_4 
REMARK       I    between atoms: C_4  and  N_5 
REMARK    2  A    between atoms: N_5  and  N_6 
REMARK    3  A    between atoms: C_7  and  C_8 
REMARK    4  A    between atoms: C_23  and  C_24 
ROOT
HETATM    1  C   UNL     1      24.442  48.053  49.709  1.00  0.00     0.290 C 
HETATM    2  N   UNL     1      24.443  46.811  50.327  1.00  0.00    -0.242 N 
HETATM    3  O   UNL     1      25.450  48.718  49.483  1.00  0.00    -0.264 OA
HETATM    4  H   UNL     1      23.558  46.359  50.508  1.00  0.00     0.192 HD
ENDROOT
BRANCH   1   5
HETATM    5  C   UNL     1      23.143  48.533  49.290  1.00  0.00     0.127 A 
HETATM    6  C   UNL     1      22.647  49.709  48.734  1.00  0.00     0.003 A 
HETATM    7  C   UNL     1      23.393  50.918  48.291  1.00  0.00     0.053 C 
HETATM    8  C   UNL     1      21.229  49.496  48.625  1.00  0.00     0.095 A 
HETATM    9  N   UNL     1      20.904  48.253  49.006  1.00  0.00    -0.173 NA
HETATM   10  N   UNL     1      22.061  47.698  49.370  1.00  0.00    -0.272 N 
HETATM   11  H   UNL     1      22.065  46.733  49.686  1.00  0.00     0.189 HD
BRANCH   8  12
HETATM   12  C   UNL     1      20.196  50.418  48.154  1.00  0.00    -0.005 A 
HETATM   13  C   UNL     1      19.931  51.616  48.832  1.00  0.00     0.014 A 
HETATM   14  C   UNL     1      18.942  52.489  48.371  1.00  0.00     0.001 A 
HETATM   15  C   UNL     1      18.203  52.167  47.233  1.00  0.00     0.000 A 
HETATM   16  C   UNL     1      18.447  50.972  46.559  1.00  0.00     0.001 A 
HETATM   17  C   UNL     1      19.436  50.100  47.019  1.00  0.00     0.014 A 
ENDBRANCH   8  12
ENDBRANCH   1   5
BRANCH   2  18
HETATM   18  N   UNL     1      25.499  46.174  50.931  1.00  0.00    -0.183 NA
HETATM   19  C   UNL     1      25.347  45.629  52.095  1.00  0.00     0.153 C 
BRANCH  19  20
HETATM   20  C   UNL     1      26.454  44.907  52.704  1.00  0.00     0.018 A 
HETATM   21  C   UNL     1      27.270  45.383  53.785  1.00  0.00     0.004 A 
HETATM   22  C   UNL     1      28.208  44.392  54.073  1.00  0.00     0.043 A 
HETATM   23  C   UNL     1      27.298  46.569  54.552  1.00  0.00     0.014 A 
HETATM   24  C   UNL     1      29.170  44.523  55.082  1.00  0.00     0.030 A 
HETATM   25  N   UNL     1      27.976  43.354  53.204  1.00  0.00    -0.358 N 
HETATM   26  C   UNL     1      29.175  45.707  55.824  1.00  0.00     0.002 A 
HETATM   27  C   UNL     1      28.254  46.718  55.564  1.00  0.00     0.001 A 
HETATM   28  H   UNL     1      28.510  42.496  53.190  1.00  0.00     0.166 HD
HETATM   29  C   UNL     1      26.924  43.642  52.371  1.00  0.00     0.018 A 
HETATM   30  C   UNL     1      26.473  42.666  51.343  1.00  0.00     0.069 C 
ENDBRANCH  19  20
ENDBRANCH   2  18
TORSDOF 4
ENDMDL
MODEL 3
REMARK VINA RESULT:      -9.8      2.225     10.565
REMARK  4 active torsions:
REMARK  status: ('A' for Active; 'I' for Inactive)
REMARK    1  A    between atoms: C_3  and  C_4 
REMARK       I    between atoms: C_4  and  N_5 
REMARK    2  A    between atoms: N_5  and  N_6 
REMARK    3  A    between atoms: C_7  and  C_8 
REMARK    4  A    between atoms: C_23  and  C_24 
ROOT
HETATM    1  C   UNL     1      25.714  45.918  53.040  1.00  0.00     0.290 C 
HETATM    2  N   UNL     1      25.670  46.978  52.147  1.00  0.00    -0.242 N 
HETATM    3  O   UNL     1      24.866  45.032  53.112  1.00  0.00    -0.264 OA
HETATM    4  H   UNL     1      26.393  47.682  52.193  1.00  0.00     0.192 HD
ENDROOT
BRANCH   1   5
HETATM    5  C   UNL     1      26.879  45.883  53.899  1.00  0.00     0.127 A 
HETATM    6  C   UNL     1      27.664  44.887  54.473  1.00  0.00     0.003 A 
HETATM    7  C   UNL     1      27.573  43.412  54.297  1.00  0.00     0.053 C 
HETATM    8  C   UNL     1      28.640  45.593  55.257  1.00  0.00     0.095 A 
HETATM    9  N   UNL     1      28.510  46.917  55.100  1.00  0.00    -0.173 NA
HETATM   10  N   UNL     1      27.475  47.058  54.269  1.00  0.00    -0.272 N 
HETATM   11  H   UNL     1      27.195  47.993  53.988  1.00  0.00     0.189 HD
BRANCH   8  12
HETATM   12  C   UNL     1      29.692  45.052  56.118  1.00  0.00    -0.005 A 
HETATM   13  C   UNL     1      29.925  45.580  57.395  1.00  0.00     0.014 A 
HETATM   14  C   UNL     1      30.932  45.053  58.208  1.00  0.00     0.001 A 
HETATM   15  C   UNL     1      31.722  44.000  57.747  1.00  0.00     0.000 A 
HETATM   16  C   UNL     1      31.509  43.476  56.473  1.00  0.00     0.001 A 
HETATM   17  C   UNL     1      30.502  44.002  55.661  1.00  0.00     0.014 A 
ENDBRANCH   8  12
ENDBRANCH   1   5
BRANCH   2  18
HETATM   18  N   UNL     1      24.638  47.330  51.312  1.00  0.00    -0.183 NA
HETATM   19  C   UNL     1      24.651  46.959  50.072  1.00  0.00     0.153 C 
BRANCH  19  20
HETATM   20  C   UNL     1      23.527  47.286  49.209  1.00  0.00     0.018 A 
HETATM   21  C   UNL     1      23.060  48.611  48.909  1.00  0.00     0.004 A 
HETATM   22  C   UNL     1      21.973  48.488  48.043  1.00  0.00     0.043 A 
HETATM   23  C   UNL     1      23.462  49.909  49.293  1.00  0.00     0.014 A 
HETATM   24  C   UNL     1      21.269  49.589  47.543  1.00  0.00     0.030 A 
HETATM   25  N   UNL     1      21.784  47.145  47.823  1.00  0.00    -0.358 N 
HETATM   26  C   UNL     1      21.688  50.862  47.941  1.00  0.00     0.002 A 
HETATM   27  C   UNL     1      22.768  51.023  48.804  1.00  0.00     0.001 A 
HETATM   28  H   UNL     1      21.061  46.765  47.228  1.00  0.00     0.166 HD
HETATM   29  C   UNL     1      22.709  46.403  48.514  1.00  0.00     0.018 A 
HETATM   30  C   UNL     1      22.715  44.918  48.430  1.00  0.00     0.069 C 
ENDBRANCH  19  20
ENDBRANCH   2  18
TORSDOF 4
ENDMDL
MODEL 4
REMARK VINA RESULT:      -9.5      7.194     10.401
REMARK  4 active torsions:
REMARK  status: ('A' for Active; 'I' for Inactive)
REMARK    1  A    between atoms: C_3  and  C_4 
REMARK       I    between atoms: C_4  and  N_5 
REMARK    2  A    between atoms: N_5  and  N_6 
REMARK    3  A    between atoms: C_7  and  C_8 
REMARK    4  A    between atoms: C_23  and  C_24 
ROOT
HETATM    1  C   UNL     1      28.030  41.238  51.685  1.00  0.00     0.290 C 
HETATM    2  N   UNL     1      28.948  41.305  52.722  1.00  0.00    -0.242 N 
HETATM    3  O   UNL     1      27.154  42.073  51.476  1.00  0.00    -0.264 OA
HETATM    4  H   UNL     1      29.605  40.547  52.838  1.00  0.00     0.192 HD
ENDROOT
BRANCH   1   5
HETATM    5  C   UNL     1      28.182  40.104  50.798  1.00  0.00     0.127 A 
HETATM    6  C   UNL     1      27.536  39.639  49.657  1.00  0.00     0.003 A 
HETATM    7  C   UNL     1      26.431  40.271  48.887  1.00  0.00     0.053 C 
HETATM    8  C   UNL     1      28.205  38.408  49.332  1.00  0.00     0.095 A 
HETATM    9  N   UNL     1      29.233  38.190  50.163  1.00  0.00    -0.173 NA
HETATM   10  N   UNL     1      29.210  39.225  51.004  1.00  0.00    -0.272 N 
HETATM   11  H   UNL     1      29.921  39.285  51.728  1.00  0.00     0.189 HD
BRANCH   8  12
HETATM   12  C   UNL     1      27.912  37.461  48.255  1.00  0.00    -0.005 A 
HETATM   13  C   UNL     1      28.675  37.444  47.079  1.00  0.00     0.014 A 
HETATM   14  C   UNL     1      28.387  36.534  46.059  1.00  0.00     0.001 A 
HETATM   15  C   UNL     1      27.327  35.639  46.201  1.00  0.00     0.000 A 
HETATM   16  C   UNL     1      26.552  35.656  47.359  1.00  0.00     0.001 A 
HETATM   17  C   UNL     1      26.841  36.565  48.380  1.00  0.00     0.014 A 
ENDBRANCH   8  12
ENDBRANCH   1   5
BRANCH   2  18
HETATM   18  N   UNL     1      28.964  42.188  53.774  1.00  0.00    -0.183 NA
HETATM   19  C   UNL     1      29.219  43.440  53.566  1.00  0.00     0.153 C 
BRANCH  19  20
HETATM   20  C   UNL     1      29.178  44.379  54.676  1.00  0.00     0.018 A 
HETATM   21  C   UNL     1      30.042  44.359  55.823  1.00  0.00     0.004 A 
HETATM   22  C   UNL     1      29.679  45.426  56.643  1.00  0.00     0.043 A 
HETATM   23  C   UNL     1      31.106  43.529  56.242  1.00  0.00     0.014 A 
HETATM   24  C   UNL     1      30.320  45.709  57.855  1.00  0.00     0.030 A 
HETATM   25  N   UNL     1      28.637  46.073  56.024  1.00  0.00    -0.358 N 
HETATM   26  C   UNL     1      31.368  44.871  58.245  1.00  0.00     0.002 A 
HETATM   27  C   UNL     1      31.757  43.795  57.452  1.00  0.00     0.001 A 
HETATM   28  H   UNL     1      28.175  46.891  56.398  1.00  0.00     0.166 HD
HETATM   29  C   UNL     1      28.319  45.460  54.838  1.00  0.00     0.018 A 
HETATM   30  C   UNL     1      27.223  45.981  53.977  1.00  0.00     0.069 C 
ENDBRANCH  19  20
ENDBRANCH   2  18
TORSDOF 4
ENDMDL
MODEL 5
REMARK VINA RESULT:      -9.5      2.276     10.420
REMARK  4 active torsions:
REMARK  status: ('A' for Active; 'I' for Inactive)
REMARK    1  A    between atoms: C_3  and  C_4 
REMARK       I    between atoms: C_4  and  N_5 
REMARK    2  A    between atoms: N_5  and  N_6 
REMARK    3  A    between atoms: C_7  and  C_8 
REMARK    4  A    between atoms: C_23  and  C_24 
ROOT
HETATM    1  C   UNL     1      25.033  44.445  51.345  1.00  0.00     0.290 C 
HETATM    2  N   UNL     1      24.896  45.612  50.608  1.00  0.00    -0.242 N 
HETATM    3  O   UNL     1      24.195  43.548  51.391  1.00  0.00    -0.264 OA
HETATM    4  H   UNL     1      25.622  46.311  50.667  1.00  0.00     0.192 HD
ENDROOT
BRANCH   1   5
HETATM    5  C   UNL     1      26.283  44.310  52.061  1.00  0.00     0.127 A 
HETATM    6  C   UNL     1      26.684  44.399  53.391  1.00  0.00     0.003 A 
HETATM    7  C   UNL     1      25.849  44.606  54.605  1.00  0.00     0.053 C 
HETATM    8  C   UNL     1      28.107  44.196  53.361  1.00  0.00     0.095 A 
HETATM    9  N   UNL     1      28.523  43.919  52.118  1.00  0.00    -0.173 NA
HETATM   10  N   UNL     1      27.417  43.968  51.375  1.00  0.00    -0.272 N 
HETATM   11  H   UNL     1      27.485  43.772  50.380  1.00  0.00     0.189 HD
BRANCH   8  12
HETATM   12  C   UNL     1      29.063  44.233  54.469  1.00  0.00    -0.005 A 
HETATM   13  C   UNL     1      29.179  45.364  55.288  1.00  0.00     0.014 A 
HETATM   14  C   UNL     1      30.095  45.386  56.343  1.00  0.00     0.001 A 
HETATM   15  C   UNL     1      30.910  44.281  56.582  1.00  0.00     0.000 A 
HETATM   16  C   UNL     1      30.815  43.155  55.766  1.00  0.00     0.001 A 
HETATM   17  C   UNL     1      29.899  43.133  54.711  1.00  0.00     0.014 A 
ENDBRANCH   8  12
ENDBRANCH   1   5
BRANCH   2  18
HETATM   18  N   UNL     1      23.781  46.058  49.942  1.00  0.00    -0.183 NA
HETATM   19  C   UNL     1      23.827  47.161  49.266  1.00  0.00     0.153 C 
BRANCH  19  20
HETATM   20  C   UNL     1      22.659  47.598  48.517  1.00  0.00     0.018 A 
HETATM   21  C   UNL     1      22.043  48.892  48.605  1.00  0.00     0.004 A 
HETATM   22  C   UNL     1      20.963  48.905  47.724  1.00  0.00     0.043 A 
HETATM   23  C   UNL     1      22.306  50.060  49.354  1.00  0.00     0.014 A 
HETATM   24  C   UNL     1      20.132  50.019  47.552  1.00  0.00     0.030 A 
HETATM   25  N   UNL     1      20.919  47.670  47.122  1.00  0.00    -0.358 N 
HETATM   26  C   UNL     1      20.415  51.161  48.307  1.00  0.00     0.002 A 
HETATM   27  C   UNL     1      21.486  51.184  49.196  1.00  0.00     0.001 A 
HETATM   28  H   UNL     1      20.232  47.400  46.431  1.00  0.00     0.166 HD
HETATM   29  C   UNL     1      21.932  46.868  47.584  1.00  0.00     0.018 A 
HETATM   30  C   UNL     1      22.100  45.480  47.075  1.00  0.00     0.069 C 
ENDBRANCH  19  20
ENDBRANCH   2  18
TORSDOF 4
ENDMDL
MODEL 6
REMARK VINA RESULT:      -9.3      1.863      3.174
REMARK  4 active torsions:
REMARK  status: ('A' for Active; 'I' for Inactive)
REMARK    1  A    between atoms: C_3  and  C_4 
REMARK       I    between atoms: C_4  and  N_5 
REMARK    2  A    between atoms: N_5  and  N_6 
REMARK    3  A    between atoms: C_7  and  C_8 
REMARK    4  A    between atoms: C_23  and  C_24 
ROOT
HETATM    1  C   UNL     1      25.022  45.457  49.784  1.00  0.00     0.290 C 
HETATM    2  N   UNL     1      25.537  45.693  51.050  1.00  0.00    -0.242 N 
HETATM    3  O   UNL     1      25.427  44.588  49.017  1.00  0.00    -0.264 OA
HETATM    4  H   UNL     1      25.165  46.461  51.590  1.00  0.00     0.192 HD
ENDROOT
BRANCH   1   5
HETATM    5  C   UNL     1      23.907  46.300  49.405  1.00  0.00     0.127 A 
HETATM    6  C   UNL     1      23.711  47.664  49.210  1.00  0.00     0.003 A 
HETATM    7  C   UNL     1      24.708  48.767  49.267  1.00  0.00     0.053 C 
HETATM    8  C   UNL     1      22.316  47.792  48.885  1.00  0.00     0.095 A 
HETATM    9  N   UNL     1      21.732  46.589  48.805  1.00  0.00    -0.173 NA
HETATM   10  N   UNL     1      22.706  45.723  49.092  1.00  0.00    -0.272 N 
HETATM   11  H   UNL     1      22.499  44.729  49.077  1.00  0.00     0.189 HD
BRANCH   8  12
HETATM   12  C   UNL     1      21.541  49.007  48.630  1.00  0.00    -0.005 A 
HETATM   13  C   UNL     1      20.738  49.125  47.487  1.00  0.00     0.014 A 
HETATM   14  C   UNL     1      20.002  50.290  47.255  1.00  0.00     0.001 A 
HETATM   15  C   UNL     1      20.070  51.351  48.158  1.00  0.00     0.000 A 
HETATM   16  C   UNL     1      20.877  51.251  49.290  1.00  0.00     0.001 A 
HETATM   17  C   UNL     1      21.612  50.086  49.522  1.00  0.00     0.014 A 
ENDBRANCH   8  12
ENDBRANCH   1   5
BRANCH   2  18
HETATM   18  N   UNL     1      26.660  45.139  51.615  1.00  0.00    -0.183 NA
HETATM   19  C   UNL     1      26.545  44.191  52.489  1.00  0.00     0.153 C 
BRANCH  19  20
HETATM   20  C   UNL     1      27.740  43.570  53.041  1.00  0.00     0.018 A 
HETATM   21  C   UNL     1      28.574  44.127  54.069  1.00  0.00     0.004 A 
HETATM   22  C   UNL     1      29.604  43.219  54.313  1.00  0.00     0.043 A 
HETATM   23  C   UNL     1      28.549  45.324  54.819  1.00  0.00     0.014 A 
HETATM   24  C   UNL     1      30.607  43.442  55.263  1.00  0.00     0.030 A 
HETATM   25  N   UNL     1      29.408  42.152  53.470  1.00  0.00    -0.358 N 
HETATM   26  C   UNL     1      30.558  44.635  55.991  1.00  0.00     0.002 A 
HETATM   27  C   UNL     1      29.545  45.564  55.773  1.00  0.00     0.001 A 
HETATM   28  H   UNL     1      30.008  41.340  53.435  1.00  0.00     0.166 HD
HETATM   29  C   UNL     1      28.291  42.342  52.696  1.00  0.00     0.018 A 
HETATM   30  C   UNL     1      27.863  41.317  51.706  1.00  0.00     0.069 C 
ENDBRANCH  19  20
ENDBRANCH   2  18
TORSDOF 4
ENDMDL
MODEL 7
REMARK VINA RESULT:      -9.2      1.718      2.178
REMARK  4 active torsions:
REMARK  status: ('A' for Active; 'I' for Inactive)
REMARK    1  A    between atoms: C_3  and  C_4 
REMARK       I    between atoms: C_4  and  N_5 
REMARK    2  A    between atoms: N_5  and  N_6 
REMARK    3  A    between atoms: C_7  and  C_8 
REMARK    4  A    between atoms: C_23  and  C_24 
ROOT
HETATM    1  C   UNL     1      25.130  47.488  50.356  1.00  0.00     0.290 C 
HETATM    2  N   UNL     1      25.254  46.699  51.490  1.00  0.00    -0.242 N 
HETATM    3  O   UNL     1      25.980  48.284  49.964  1.00  0.00    -0.264 OA
HETATM    4  H   UNL     1      24.481  46.106  51.755  1.00  0.00     0.192 HD
ENDROOT
BRANCH   1   5
HETATM    5  C   UNL     1      23.910  47.294  49.600  1.00  0.00     0.127 A 
HETATM    6  C   UNL     1      23.039  48.113  48.888  1.00  0.00     0.003 A 
HETATM    7  C   UNL     1      23.152  49.569  48.601  1.00  0.00     0.053 C 
HETATM    8  C   UNL     1      21.998  47.233  48.431  1.00  0.00     0.095 A 
HETATM    9  N   UNL     1      22.265  45.964  48.767  1.00  0.00    -0.173 NA
HETATM   10  N   UNL     1      23.417  46.028  49.436  1.00  0.00    -0.272 N 
HETATM   11  H   UNL     1      23.832  45.168  49.782  1.00  0.00     0.189 HD
BRANCH   8  12
HETATM   12  C   UNL     1      20.788  47.558  47.674  1.00  0.00    -0.005 A 
HETATM   13  C   UNL     1      19.849  48.472  48.169  1.00  0.00     0.014 A 
HETATM   14  C   UNL     1      18.698  48.774  47.436  1.00  0.00     0.001 A 
HETATM   15  C   UNL     1      18.472  48.157  46.206  1.00  0.00     0.000 A 
HETATM   16  C   UNL     1      19.392  47.236  45.710  1.00  0.00     0.001 A 
HETATM   17  C   UNL     1      20.543  46.934  46.442  1.00  0.00     0.014 A 
ENDBRANCH   8  12
ENDBRANCH   1   5
BRANCH   2  18
HETATM   18  N   UNL     1      26.232  46.761  52.452  1.00  0.00    -0.183 NA
HETATM   19  C   UNL     1      26.238  45.909  53.427  1.00  0.00     0.153 C 
BRANCH  19  20
HETATM   20  C   UNL     1      27.310  45.945  54.410  1.00  0.00     0.018 A 
HETATM   21  C   UNL     1      28.371  44.985  54.527  1.00  0.00     0.004 A 
HETATM   22  C   UNL     1      29.186  45.386  55.585  1.00  0.00     0.043 A 
HETATM   23  C   UNL     1      28.718  43.808  53.827  1.00  0.00     0.014 A 
HETATM   24  C   UNL     1      30.326  44.675  55.980  1.00  0.00     0.030 A 
HETATM   25  N   UNL     1      28.647  46.542  56.094  1.00  0.00    -0.358 N 
HETATM   26  C   UNL     1      30.645  43.514  55.271  1.00  0.00     0.002 A 
HETATM   27  C   UNL     1      29.854  43.084  54.210  1.00  0.00     0.001 A 
HETATM   28  H   UNL     1      29.038  47.056  56.871  1.00  0.00     0.166 HD
HETATM   29  C   UNL     1      27.516  46.897  55.401  1.00  0.00     0.018 A 
HETATM   30  C   UNL     1      26.753  48.123  55.760  1.00  0.00     0.069 C 
ENDBRANCH  19  20
ENDBRANCH   2  18
TORSDOF 4
ENDMDL
MODEL 8
REMARK VINA RESULT:      -9.1      2.120     10.172
REMARK  4 active torsions:
REMARK  status: ('A' for Active; 'I' for Inactive)
REMARK    1  A    between atoms: C_3  and  C_4 
REMARK       I    between atoms: C_4  and  N_5 
REMARK    2  A    between atoms: N_5  and  N_6 
REMARK    3  A    between atoms: C_7  and  C_8 
REMARK    4  A    between atoms: C_23  and  C_24 
ROOT
HETATM    1  C   UNL     1      25.144  45.586  51.770  1.00  0.00     0.290 C 
HETATM    2  N   UNL     1      25.320  46.839  51.200  1.00  0.00    -0.242 N 
HETATM    3  O   UNL     1      24.130  44.904  51.653  1.00  0.00    -0.264 OA
HETATM    4  H   UNL     1      26.175  47.342  51.389  1.00  0.00     0.192 HD
ENDROOT
BRANCH   1   5
HETATM    5  C   UNL     1      26.279  45.082  52.513  1.00  0.00     0.127 A 
HETATM    6  C   UNL     1      26.957  45.454  53.670  1.00  0.00     0.003 A 
HETATM    7  C   UNL     1      26.640  46.551  54.625  1.00  0.00     0.053 C 
HETATM    8  C   UNL     1      28.033  44.507  53.788  1.00  0.00     0.095 A 
HETATM    9  N   UNL     1      27.960  43.580  52.823  1.00  0.00    -0.173 NA
HETATM   10  N   UNL     1      26.895  43.932  52.099  1.00  0.00    -0.272 N 
HETATM   11  H   UNL     1      26.629  43.355  51.307  1.00  0.00     0.189 HD
BRANCH   8  12
HETATM   12  C   UNL     1      29.097  44.447  54.791  1.00  0.00    -0.005 A 
HETATM   13  C   UNL     1      29.343  45.525  55.651  1.00  0.00     0.014 A 
HETATM   14  C   UNL     1      30.361  45.454  56.605  1.00  0.00     0.001 A 
HETATM   15  C   UNL     1      31.150  44.308  56.700  1.00  0.00     0.000 A 
HETATM   16  C   UNL     1      30.925  43.235  55.840  1.00  0.00     0.001 A 
HETATM   17  C   UNL     1      29.906  43.305  54.887  1.00  0.00     0.014 A 
ENDBRANCH   8  12
ENDBRANCH   1   5
BRANCH   2  18
HETATM   18  N   UNL     1      24.382  47.607  50.556  1.00  0.00    -0.183 NA
HETATM   19  C   UNL     1      24.101  47.382  49.313  1.00  0.00     0.153 C 
BRANCH  19  20
HETATM   20  C   UNL     1      23.065  48.162  48.654  1.00  0.00     0.018 A 
HETATM   21  C   UNL     1      21.726  47.719  48.384  1.00  0.00     0.004 A 
HETATM   22  C   UNL     1      21.056  48.764  47.750  1.00  0.00     0.043 A 
HETATM   23  C   UNL     1      21.017  46.521  48.623  1.00  0.00     0.014 A 
HETATM   24  C   UNL     1      19.720  48.677  47.343  1.00  0.00     0.030 A 
HETATM   25  N   UNL     1      21.947  49.804  47.636  1.00  0.00    -0.358 N 
HETATM   26  C   UNL     1      19.043  47.479  47.591  1.00  0.00     0.002 A 
HETATM   27  C   UNL     1      19.680  46.415  48.221  1.00  0.00     0.001 A 
HETATM   28  H   UNL     1      21.727  50.696  47.215  1.00  0.00     0.166 HD
HETATM   29  C   UNL     1      23.163  49.463  48.175  1.00  0.00     0.018 A 
HETATM   30  C   UNL     1      24.295  50.429  48.179  1.00  0.00     0.069 C 
ENDBRANCH  19  20
ENDBRANCH   2  18
TORSDOF 4
ENDMDL
MODEL 9
REMARK VINA RESULT:      -9.0      6.857      8.558
REMARK  4 active torsions:
REMARK  status: ('A' for Active; 'I' for Inactive)
REMARK    1  A    between atoms: C_3  and  C_4 
REMARK       I    between atoms: C_4  and  N_5 
REMARK    2  A    between atoms: N_5  and  N_6 
REMARK    3  A    between atoms: C_7  and  C_8 
REMARK    4  A    between atoms: C_23  and  C_24 
ROOT
HETATM    1  C   UNL     1      27.871  41.583  51.810  1.00  0.00     0.290 C 
HETATM    2  N   UNL     1      27.756  42.942  52.069  1.00  0.00    -0.242 N 
HETATM    3  O   UNL     1      27.926  40.712  52.674  1.00  0.00    -0.264 OA
HETATM    4  H   UNL     1      27.762  43.586  51.291  1.00  0.00     0.192 HD
ENDROOT
BRANCH   1   5
HETATM    5  C   UNL     1      27.886  41.222  50.409  1.00  0.00     0.127 A 
HETATM    6  C   UNL     1      27.183  41.611  49.272  1.00  0.00     0.003 A 
HETATM    7  C   UNL     1      26.154  42.676  49.131  1.00  0.00     0.053 C 
HETATM    8  C   UNL     1      27.703  40.784  48.217  1.00  0.00     0.095 A 
HETATM    9  N   UNL     1      28.703  40.013  48.664  1.00  0.00    -0.173 NA
HETATM   10  N   UNL     1      28.806  40.314  49.960  1.00  0.00    -0.272 N 
HETATM   11  H   UNL     1      29.523  39.855  50.514  1.00  0.00     0.189 HD
BRANCH   8  12
HETATM   12  C   UNL     1      27.296  40.724  46.812  1.00  0.00    -0.005 A 
HETATM   13  C   UNL     1      28.206  41.002  45.783  1.00  0.00     0.014 A 
HETATM   14  C   UNL     1      27.806  40.940  44.446  1.00  0.00     0.001 A 
HETATM   15  C   UNL     1      26.490  40.611  44.126  1.00  0.00     0.000 A 
HETATM   16  C   UNL     1      25.571  40.348  45.140  1.00  0.00     0.001 A 
HETATM   17  C   UNL     1      25.972  40.408  46.478  1.00  0.00     0.014 A 
ENDBRANCH   8  12
ENDBRANCH   1   5
BRANCH   2  18
HETATM   18  N   UNL     1      27.843  43.574  53.285  1.00  0.00    -0.183 NA
HETATM   19  C   UNL     1      28.857  44.334  53.550  1.00  0.00     0.153 C 
BRANCH  19  20
HETATM   20  C   UNL     1      28.912  45.046  54.818  1.00  0.00     0.018 A 
HETATM   21  C   UNL     1      29.821  44.768  55.895  1.00  0.00     0.004 A 
HETATM   22  C   UNL     1      29.551  45.677  56.917  1.00  0.00     0.043 A 
HETATM   23  C   UNL     1      30.854  43.826  56.096  1.00  0.00     0.014 A 
HETATM   24  C   UNL     1      30.256  45.694  58.127  1.00  0.00     0.030 A 
HETATM   25  N   UNL     1      28.521  46.476  56.485  1.00  0.00    -0.358 N 
HETATM   26  C   UNL     1      31.272  44.750  58.299  1.00  0.00     0.002 A 
HETATM   27  C   UNL     1      31.568  43.828  57.300  1.00  0.00     0.001 A 
HETATM   28  H   UNL     1      28.121  47.229  57.028  1.00  0.00     0.166 HD
HETATM   29  C   UNL     1      28.121  46.114  55.222  1.00  0.00     0.018 A 
HETATM   30  C   UNL     1      27.021  46.839  54.532  1.00  0.00     0.069 C 
ENDBRANCH  19  20
ENDBRANCH   2  18
TORSDOF 4
ENDMDL
MODEL 10
REMARK VINA RESULT:      -9.0      2.115     10.384
REMARK  4 active torsions:
REMARK  status: ('A' for Active; 'I' for Inactive)
REMARK    1  A    between atoms: C_3  and  C_4 
REMARK       I    between atoms: C_4  and  N_5 
REMARK    2  A    between atoms: N_5  and  N_6 
REMARK    3  A    between atoms: C_7  and  C_8 
REMARK    4  A    between atoms: C_23  and  C_24 
ROOT
HETATM    1  C   UNL     1      23.762  45.772  49.221  1.00  0.00     0.290 C 
HETATM    2  N   UNL     1      23.356  47.095  49.314  1.00  0.00    -0.242 N 
HETATM    3  O   UNL     1      23.487  45.023  48.288  1.00  0.00    -0.264 OA
HETATM    4  H   UNL     1      23.597  47.620  50.142  1.00  0.00     0.192 HD
ENDROOT
BRANCH   1   5
HETATM    5  C   UNL     1      24.595  45.305  50.309  1.00  0.00     0.127 A 
HETATM    6  C   UNL     1      25.962  45.247  50.563  1.00  0.00     0.003 A 
HETATM    7  C   UNL     1      27.086  45.769  49.739  1.00  0.00     0.053 C 
HETATM    8  C   UNL     1      26.071  44.604  51.844  1.00  0.00     0.095 A 
HETATM    9  N   UNL     1      24.860  44.369  52.365  1.00  0.00    -0.173 NA
HETATM   10  N   UNL     1      24.005  44.819  51.444  1.00  0.00    -0.272 N 
HETATM   11  H   UNL     1      23.008  44.759  51.630  1.00  0.00     0.189 HD
BRANCH   8  12
HETATM   12  C   UNL     1      27.278  44.236  52.586  1.00  0.00    -0.005 A 
HETATM   13  C   UNL     1      28.164  43.269  52.092  1.00  0.00     0.014 A 
HETATM   14  C   UNL     1      29.313  42.927  52.809  1.00  0.00     0.001 A 
HETATM   15  C   UNL     1      29.582  43.541  54.032  1.00  0.00     0.000 A 
HETATM   16  C   UNL     1      28.701  44.493  54.541  1.00  0.00     0.001 A 
HETATM   17  C   UNL     1      27.552  44.836  53.823  1.00  0.00     0.014 A 
ENDBRANCH   8  12
ENDBRANCH   1   5
BRANCH   2  18
HETATM   18  N   UNL     1      22.469  47.760  48.502  1.00  0.00    -0.183 NA
HETATM   19  C   UNL     1      21.197  47.675  48.725  1.00  0.00     0.153 C 
BRANCH  19  20
HETATM   20  C   UNL     1      20.268  48.427  47.896  1.00  0.00     0.018 A 
HETATM   21  C   UNL     1      19.852  49.783  48.123  1.00  0.00     0.004 A 
HETATM   22  C   UNL     1      18.967  50.129  47.103  1.00  0.00     0.043 A 
HETATM   23  C   UNL     1      20.150  50.755  49.104  1.00  0.00     0.014 A 
HETATM   24  C   UNL     1      18.364  51.389  47.011  1.00  0.00     0.030 A 
HETATM   25  N   UNL     1      18.845  49.031  46.286  1.00  0.00    -0.358 N 
HETATM   26  C   UNL     1      18.676  52.330  47.996  1.00  0.00     0.002 A 
HETATM   27  C   UNL     1      19.555  52.020  49.029  1.00  0.00     0.001 A 
HETATM   28  H   UNL     1      18.264  49.000  45.460  1.00  0.00     0.166 HD
HETATM   29  C   UNL     1      19.620  47.995  46.745  1.00  0.00     0.018 A 
HETATM   30  C   UNL     1      19.663  46.695  46.023  1.00  0.00     0.069 C 
ENDBRANCH  19  20
ENDBRANCH   2  18
TORSDOF 4
ENDMDL
