MODEL 1
REMARK VINA RESULT:      -8.8      0.000      0.000
REMARK  4 active torsions:
REMARK  status: ('A' for Active; 'I' for Inactive)
REMARK    1  A    between atoms: C_9  and  C_10 
REMARK    2  A    between atoms: C_17  and  C_18 
REMARK       I    between atoms: C_18  and  N_19 
REMARK    3  A    between atoms: N_19  and  C_20 
REMARK    4  A    between atoms: C_23  and  O_24 
ROOT
HETATM    1  C   UNL     1      25.766  47.143  51.846  1.00  0.00     0.070 C 
HETATM    2  C   UNL     1      25.238  45.860  51.253  1.00  0.00     0.037 C 
HETATM    3  N   UNL     1      24.413  46.013  50.141  1.00  0.00    -0.192 N 
HETATM    4  C   UNL     1      23.602  45.031  49.696  1.00  0.00     0.725 A 
HETATM    5  N   UNL     1      23.739  43.768  50.203  1.00  0.00    -0.084 N 
HETATM    6  N   UNL     1      22.794  42.938  49.717  1.00  0.00    -0.149 NA
HETATM    7  C   UNL     1      22.147  43.763  48.886  1.00  0.00     0.275 A 
HETATM    8  N   UNL     1      22.614  45.052  48.839  1.00  0.00    -0.054 NA
HETATM    9  C   UNL     1      24.762  43.387  51.184  1.00  0.00     0.202 C 
HETATM   10  C   UNL     1      25.441  44.621  51.773  1.00  0.00     0.062 C 
HETATM   11  H   UNL     1      24.199  46.963  49.845  1.00  0.00     0.184 HD
ENDROOT
BRANCH  10  12
HETATM   12  C   UNL     1      26.180  44.348  53.036  1.00  0.00     0.256 C 
HETATM   13  N   UNL     1      27.548  44.460  52.928  1.00  0.00    -0.323 N 
HETATM   14  H   UNL     1      27.927  44.641  52.007  1.00  0.00     0.169 HD
HETATM   15  O   UNL     1      25.538  44.014  54.025  1.00  0.00    -0.267 OA
BRANCH  13  16
HETATM   16  C   UNL     1      28.489  44.398  53.980  1.00  0.00     0.035 A 
HETATM   17  C   UNL     1      28.633  45.383  54.957  1.00  0.00     0.032 A 
HETATM   18  C   UNL     1      29.612  45.260  55.949  1.00  0.00     0.039 A 
HETATM   19  C   UNL     1      30.465  44.157  55.984  1.00  0.00     0.068 A 
HETATM   20  C   UNL     1      30.330  43.171  55.010  1.00  0.00     0.039 A 
HETATM   21  C   UNL     1      29.345  43.290  54.017  1.00  0.00     0.032 A 
BRANCH  19  22
HETATM   22  O   UNL     1      31.375  44.169  57.003  1.00  0.00    -0.356 OA
HETATM   23  C   UNL     1      31.018  44.885  58.178  1.00  0.00     0.210 C 
ENDBRANCH  19  22
ENDBRANCH  13  16
ENDBRANCH  10  12
BRANCH   9  24
HETATM   24  C   UNL     1      25.771  42.426  50.549  1.00  0.00    -0.028 A 
HETATM   25  C   UNL     1      26.151  41.225  51.178  1.00  0.00     0.011 A 
HETATM   26  C   UNL     1      27.091  40.377  50.587  1.00  0.00     0.024 A 
HETATM   27  C   UNL     1      27.648  40.712  49.355  1.00  0.00     0.034 A 
HETATM   28 CL   UNL     1      28.813  39.671  48.635  1.00  0.00    -0.084 Cl
HETATM   29  C   UNL     1      27.268  41.884  48.707  1.00  0.00     0.024 A 
HETATM   30  C   UNL     1      26.331  42.735  49.298  1.00  0.00     0.011 A 
ENDBRANCH   9  24
TORSDOF 4
ENDMDL
MODEL 2
REMARK VINA RESULT:      -8.1      3.038      6.688
REMARK  4 active torsions:
REMARK  status: ('A' for Active; 'I' for Inactive)
REMARK    1  A    between atoms: C_9  and  C_10 
REMARK    2  A    between atoms: C_17  and  C_18 
REMARK       I    between atoms: C_18  and  N_19 
REMARK    3  A    between atoms: N_19  and  C_20 
REMARK    4  A    between atoms: C_23  and  O_24 
ROOT
HETATM    1  C   UNL     1      25.029  44.949  54.478  1.00  0.00     0.070 C 
HETATM    2  C   UNL     1      26.151  44.273  53.728  1.00  0.00     0.037 C 
HETATM    3  N   UNL     1      27.069  43.587  54.521  1.00  0.00    -0.192 N 
HETATM    4  C   UNL     1      28.285  43.217  54.072  1.00  0.00     0.725 A 
HETATM    5  N   UNL     1      28.564  43.314  52.736  1.00  0.00    -0.084 N 
HETATM    6  N   UNL     1      29.847  42.990  52.477  1.00  0.00    -0.149 NA
HETATM    7  C   UNL     1      30.271  42.667  53.704  1.00  0.00     0.275 A 
HETATM    8  N   UNL     1      29.344  42.786  54.708  1.00  0.00    -0.054 NA
HETATM    9  C   UNL     1      27.592  43.755  51.728  1.00  0.00     0.202 C 
HETATM   10  C   UNL     1      26.358  44.364  52.389  1.00  0.00     0.062 C 
HETATM   11  H   UNL     1      26.938  43.630  55.530  1.00  0.00     0.184 HD
ENDROOT
BRANCH  10  12
HETATM   12  C   UNL     1      25.531  45.185  51.463  1.00  0.00     0.256 C 
HETATM   13  N   UNL     1      26.011  46.459  51.253  1.00  0.00    -0.323 N 
HETATM   14  H   UNL     1      26.821  46.744  51.790  1.00  0.00     0.169 HD
HETATM   15  O   UNL     1      24.503  44.696  51.010  1.00  0.00    -0.267 OA
BRANCH  13  16
HETATM   16  C   UNL     1      25.522  47.407  50.327  1.00  0.00     0.035 A 
HETATM   17  C   UNL     1      24.177  47.537  49.980  1.00  0.00     0.032 A 
HETATM   18  C   UNL     1      23.778  48.482  49.028  1.00  0.00     0.039 A 
HETATM   19  C   UNL     1      24.711  49.311  48.405  1.00  0.00     0.068 A 
HETATM   20  C   UNL     1      26.056  49.185  48.742  1.00  0.00     0.039 A 
HETATM   21  C   UNL     1      26.457  48.241  49.700  1.00  0.00     0.032 A 
BRANCH  19  22
HETATM   22  O   UNL     1      24.183  50.182  47.494  1.00  0.00    -0.356 OA
HETATM   23  C   UNL     1      22.887  50.696  47.769  1.00  0.00     0.210 C 
ENDBRANCH  19  22
ENDBRANCH  13  16
ENDBRANCH  10  12
BRANCH   9  24
HETATM   24  C   UNL     1      27.231  42.594  50.798  1.00  0.00    -0.028 A 
HETATM   25  C   UNL     1      27.182  42.749  49.400  1.00  0.00     0.011 A 
HETATM   26  C   UNL     1      26.828  41.678  48.576  1.00  0.00     0.024 A 
HETATM   27  C   UNL     1      26.534  40.438  49.139  1.00  0.00     0.034 A 
HETATM   28 CL   UNL     1      26.088  39.124  48.122  1.00  0.00    -0.084 Cl
HETATM   29  C   UNL     1      26.599  40.259  50.518  1.00  0.00     0.024 A 
HETATM   30  C   UNL     1      26.950  41.329  51.344  1.00  0.00     0.011 A 
ENDBRANCH   9  24
TORSDOF 4
ENDMDL
MODEL 3
REMARK VINA RESULT:      -8.0      1.384      2.022
REMARK  4 active torsions:
REMARK  status: ('A' for Active; 'I' for Inactive)
REMARK    1  A    between atoms: C_9  and  C_10 
REMARK    2  A    between atoms: C_17  and  C_18 
REMARK       I    between atoms: C_18  and  N_19 
REMARK    3  A    between atoms: N_19  and  C_20 
REMARK    4  A    between atoms: C_23  and  O_24 
ROOT
HETATM    1  C   UNL     1      25.587  46.228  50.060  1.00  0.00     0.070 C 
HETATM    2  C   UNL     1      25.272  44.804  49.672  1.00  0.00     0.037 C 
HETATM    3  N   UNL     1      24.610  44.651  48.455  1.00  0.00    -0.192 N 
HETATM    4  C   UNL     1      23.967  43.515  48.115  1.00  0.00     0.725 A 
HETATM    5  N   UNL     1      24.142  42.392  48.877  1.00  0.00    -0.084 N 
HETATM    6  N   UNL     1      23.359  41.381  48.449  1.00  0.00    -0.149 NA
HETATM    7  C   UNL     1      22.770  41.956  47.395  1.00  0.00     0.275 A 
HETATM    8  N   UNL     1      23.120  43.260  47.152  1.00  0.00    -0.054 NA
HETATM    9  C   UNL     1      25.040  42.322  50.037  1.00  0.00     0.202 C 
HETATM   10  C   UNL     1      25.508  43.715  50.450  1.00  0.00     0.062 C 
HETATM   11  H   UNL     1      24.357  45.497  47.951  1.00  0.00     0.184 HD
ENDROOT
BRANCH  10  12
HETATM   12  C   UNL     1      26.073  43.769  51.825  1.00  0.00     0.256 C 
HETATM   13  N   UNL     1      27.450  43.777  51.873  1.00  0.00    -0.323 N 
HETATM   14  H   UNL     1      27.945  43.673  50.996  1.00  0.00     0.169 HD
HETATM   15  O   UNL     1      25.298  43.760  52.774  1.00  0.00    -0.267 OA
BRANCH  13  16
HETATM   16  C   UNL     1      28.257  43.963  53.017  1.00  0.00     0.035 A 
HETATM   17  C   UNL     1      29.322  43.133  53.365  1.00  0.00     0.032 A 
HETATM   18  C   UNL     1      30.053  43.369  54.535  1.00  0.00     0.039 A 
HETATM   19  C   UNL     1      29.735  44.434  55.377  1.00  0.00     0.068 A 
HETATM   20  C   UNL     1      28.671  45.266  55.039  1.00  0.00     0.039 A 
HETATM   21  C   UNL     1      27.940  45.033  53.864  1.00  0.00     0.032 A 
BRANCH  19  22
HETATM   22  O   UNL     1      30.528  44.544  56.485  1.00  0.00    -0.356 OA
HETATM   23  C   UNL     1      30.268  45.634  57.359  1.00  0.00     0.210 C 
ENDBRANCH  19  22
ENDBRANCH  13  16
ENDBRANCH  10  12
BRANCH   9  24
HETATM   24  C   UNL     1      26.214  41.387  49.740  1.00  0.00    -0.028 A 
HETATM   25  C   UNL     1      27.075  41.598  48.646  1.00  0.00     0.011 A 
HETATM   26  C   UNL     1      28.126  40.716  48.386  1.00  0.00     0.024 A 
HETATM   27  C   UNL     1      28.338  39.623  49.224  1.00  0.00     0.034 A 
HETATM   28 CL   UNL     1      29.626  38.532  48.895  1.00  0.00    -0.084 Cl
HETATM   29  C   UNL     1      27.512  39.410  50.324  1.00  0.00     0.024 A 
HETATM   30  C   UNL     1      26.458  40.289  50.584  1.00  0.00     0.011 A 
ENDBRANCH   9  24
TORSDOF 4
ENDMDL
MODEL 4
REMARK VINA RESULT:      -7.8      3.261      6.572
REMARK  4 active torsions:
REMARK  status: ('A' for Active; 'I' for Inactive)
REMARK    1  A    between atoms: C_9  and  C_10 
REMARK    2  A    between atoms: C_17  and  C_18 
REMARK       I    between atoms: C_18  and  N_19 
REMARK    3  A    between atoms: N_19  and  C_20 
REMARK    4  A    between atoms: C_23  and  O_24 
ROOT
HETATM    1  C   UNL     1      22.636  43.618  49.575  1.00  0.00     0.070 C 
HETATM    2  C   UNL     1      23.890  44.422  49.815  1.00  0.00     0.037 C 
HETATM    3  N   UNL     1      23.702  45.796  49.944  1.00  0.00    -0.192 N 
HETATM    4  C   UNL     1      24.712  46.683  49.830  1.00  0.00     0.725 A 
HETATM    5  N   UNL     1      26.002  46.229  49.805  1.00  0.00    -0.084 N 
HETATM    6  N   UNL     1      26.874  47.237  49.596  1.00  0.00    -0.149 NA
HETATM    7  C   UNL     1      26.036  48.279  49.546  1.00  0.00     0.275 A 
HETATM    8  N   UNL     1      24.705  47.983  49.692  1.00  0.00    -0.054 NA
HETATM    9  C   UNL     1      26.375  44.816  49.947  1.00  0.00     0.202 C 
HETATM   10  C   UNL     1      25.150  43.913  49.826  1.00  0.00     0.062 C 
HETATM   11  H   UNL     1      22.756  46.151  49.825  1.00  0.00     0.184 HD
ENDROOT
BRANCH  10  12
HETATM   12  C   UNL     1      25.486  42.489  49.555  1.00  0.00     0.256 C 
HETATM   13  N   UNL     1      26.417  42.306  48.556  1.00  0.00    -0.323 N 
HETATM   14  H   UNL     1      26.728  43.128  48.056  1.00  0.00     0.169 HD
HETATM   15  O   UNL     1      24.897  41.621  50.188  1.00  0.00    -0.267 OA
BRANCH  13  16
HETATM   16  C   UNL     1      27.027  41.089  48.180  1.00  0.00     0.035 A 
HETATM   17  C   UNL     1      26.572  40.274  47.143  1.00  0.00     0.032 A 
HETATM   18  C   UNL     1      27.216  39.066  46.855  1.00  0.00     0.039 A 
HETATM   19  C   UNL     1      28.323  38.648  47.594  1.00  0.00     0.068 A 
HETATM   20  C   UNL     1      28.782  39.454  48.633  1.00  0.00     0.039 A 
HETATM   21  C   UNL     1      28.140  40.668  48.920  1.00  0.00     0.032 A 
BRANCH  19  22
HETATM   22  O   UNL     1      28.849  37.448  47.207  1.00  0.00    -0.356 OA
HETATM   23  C   UNL     1      28.773  37.126  45.824  1.00  0.00     0.210 C 
ENDBRANCH  19  22
ENDBRANCH  13  16
ENDBRANCH  10  12
BRANCH   9  24
HETATM   24  C   UNL     1      27.121  44.597  51.265  1.00  0.00    -0.028 A 
HETATM   25  C   UNL     1      26.688  45.181  52.471  1.00  0.00     0.011 A 
HETATM   26  C   UNL     1      27.400  44.982  53.656  1.00  0.00     0.024 A 
HETATM   27  C   UNL     1      28.544  44.186  53.652  1.00  0.00     0.034 A 
HETATM   28 CL   UNL     1      29.425  43.952  55.110  1.00  0.00    -0.084 Cl
HETATM   29  C   UNL     1      28.975  43.581  52.475  1.00  0.00     0.024 A 
HETATM   30  C   UNL     1      28.266  43.782  51.288  1.00  0.00     0.011 A 
ENDBRANCH   9  24
TORSDOF 4
ENDMDL
MODEL 5
REMARK VINA RESULT:      -7.6      3.028      4.401
REMARK  4 active torsions:
REMARK  status: ('A' for Active; 'I' for Inactive)
REMARK    1  A    between atoms: C_9  and  C_10 
REMARK    2  A    between atoms: C_17  and  C_18 
REMARK       I    between atoms: C_18  and  N_19 
REMARK    3  A    between atoms: N_19  and  C_20 
REMARK    4  A    between atoms: C_23  and  O_24 
ROOT
HETATM    1  C   UNL     1      27.643  40.482  53.403  1.00  0.00     0.070 C 
HETATM    2  C   UNL     1      27.361  41.134  52.072  1.00  0.00     0.037 C 
HETATM    3  N   UNL     1      26.632  40.360  51.172  1.00  0.00    -0.192 N 
HETATM    4  C   UNL     1      26.576  40.636  49.853  1.00  0.00     0.725 A 
HETATM    5  N   UNL     1      27.064  41.831  49.398  1.00  0.00    -0.084 N 
HETATM    6  N   UNL     1      27.012  41.902  48.052  1.00  0.00    -0.149 NA
HETATM    7  C   UNL     1      26.440  40.727  47.766  1.00  0.00     0.275 A 
HETATM    8  N   UNL     1      26.152  39.925  48.841  1.00  0.00    -0.054 NA
HETATM    9  C   UNL     1      27.609  42.877  50.270  1.00  0.00     0.202 C 
HETATM   10  C   UNL     1      27.834  42.347  51.684  1.00  0.00     0.062 C 
HETATM   11  H   UNL     1      26.386  39.416  51.460  1.00  0.00     0.184 HD
ENDROOT
BRANCH  10  12
HETATM   12  C   UNL     1      28.742  43.198  52.501  1.00  0.00     0.256 C 
HETATM   13  N   UNL     1      28.197  43.628  53.692  1.00  0.00    -0.323 N 
HETATM   14  H   UNL     1      27.229  43.396  53.869  1.00  0.00     0.169 HD
HETATM   15  O   UNL     1      29.845  43.475  52.047  1.00  0.00    -0.267 OA
BRANCH  13  16
HETATM   16  C   UNL     1      28.863  44.323  54.725  1.00  0.00     0.035 A 
HETATM   17  C   UNL     1      30.080  43.921  55.278  1.00  0.00     0.032 A 
HETATM   18  C   UNL     1      30.658  44.650  56.323  1.00  0.00     0.039 A 
HETATM   19  C   UNL     1      30.037  45.788  56.836  1.00  0.00     0.068 A 
HETATM   20  C   UNL     1      28.820  46.194  56.292  1.00  0.00     0.039 A 
HETATM   21  C   UNL     1      28.241  45.467  55.241  1.00  0.00     0.032 A 
BRANCH  19  22
HETATM   22  O   UNL     1      30.710  46.398  57.857  1.00  0.00    -0.356 OA
HETATM   23  C   UNL     1      31.256  45.555  58.862  1.00  0.00     0.210 C 
ENDBRANCH  19  22
ENDBRANCH  13  16
ENDBRANCH  10  12
BRANCH   9  24
HETATM   24  C   UNL     1      26.697  44.106  50.256  1.00  0.00    -0.028 A 
HETATM   25  C   UNL     1      25.360  44.044  50.693  1.00  0.00     0.011 A 
HETATM   26  C   UNL     1      24.542  45.176  50.649  1.00  0.00     0.024 A 
HETATM   27  C   UNL     1      25.056  46.384  50.183  1.00  0.00     0.034 A 
HETATM   28 CL   UNL     1      24.043  47.773  50.120  1.00  0.00    -0.084 Cl
HETATM   29  C   UNL     1      26.382  46.471  49.768  1.00  0.00     0.024 A 
HETATM   30  C   UNL     1      27.200  45.340  49.808  1.00  0.00     0.011 A 
ENDBRANCH   9  24
TORSDOF 4
ENDMDL
MODEL 6
REMARK VINA RESULT:      -7.6      3.401      6.025
REMARK  4 active torsions:
REMARK  status: ('A' for Active; 'I' for Inactive)
REMARK    1  A    between atoms: C_9  and  C_10 
REMARK    2  A    between atoms: C_17  and  C_18 
REMARK       I    between atoms: C_18  and  N_19 
REMARK    3  A    between atoms: N_19  and  C_20 
REMARK    4  A    between atoms: C_23  and  O_24 
ROOT
HETATM    1  C   UNL     1      22.460  44.198  49.380  1.00  0.00     0.070 C 
HETATM    2  C   UNL     1      23.628  45.096  49.708  1.00  0.00     0.037 C 
HETATM    3  N   UNL     1      23.386  46.461  49.571  1.00  0.00    -0.192 N 
HETATM    4  C   UNL     1      24.378  47.372  49.497  1.00  0.00     0.725 A 
HETATM    5  N   UNL     1      25.660  46.990  49.783  1.00  0.00    -0.084 N 
HETATM    6  N   UNL     1      26.532  47.998  49.572  1.00  0.00    -0.149 NA
HETATM    7  C   UNL     1      25.694  48.972  49.199  1.00  0.00     0.275 A 
HETATM    8  N   UNL     1      24.366  48.632  49.147  1.00  0.00    -0.054 NA
HETATM    9  C   UNL     1      26.033  45.641  50.223  1.00  0.00     0.202 C 
HETATM   10  C   UNL     1      24.875  44.665  50.032  1.00  0.00     0.062 C 
HETATM   11  H   UNL     1      22.471  46.741  49.225  1.00  0.00     0.184 HD
ENDROOT
BRANCH  10  12
HETATM   12  C   UNL     1      25.289  43.236  50.066  1.00  0.00     0.256 C 
HETATM   13  N   UNL     1      26.415  42.953  49.324  1.00  0.00    -0.323 N 
HETATM   14  H   UNL     1      26.809  43.707  48.775  1.00  0.00     0.169 HD
HETATM   15  O   UNL     1      24.597  42.444  50.694  1.00  0.00    -0.267 OA
BRANCH  13  16
HETATM   16  C   UNL     1      27.116  41.728  49.281  1.00  0.00     0.035 A 
HETATM   17  C   UNL     1      27.692  41.119  50.396  1.00  0.00     0.032 A 
HETATM   18  C   UNL     1      28.398  39.918  50.262  1.00  0.00     0.039 A 
HETATM   19  C   UNL     1      28.544  39.305  49.018  1.00  0.00     0.068 A 
HETATM   20  C   UNL     1      27.975  39.909  47.899  1.00  0.00     0.039 A 
HETATM   21  C   UNL     1      27.263  41.110  48.032  1.00  0.00     0.032 A 
BRANCH  19  22
HETATM   22  O   UNL     1      29.260  38.142  49.034  1.00  0.00    -0.356 OA
HETATM   23  C   UNL     1      29.844  37.761  50.272  1.00  0.00     0.210 C 
ENDBRANCH  19  22
ENDBRANCH  13  16
ENDBRANCH  10  12
BRANCH   9  24
HETATM   24  C   UNL     1      26.523  45.673  51.673  1.00  0.00    -0.028 A 
HETATM   25  C   UNL     1      27.392  44.692  52.186  1.00  0.00     0.011 A 
HETATM   26  C   UNL     1      27.805  44.734  53.520  1.00  0.00     0.024 A 
HETATM   27  C   UNL     1      27.368  45.763  54.350  1.00  0.00     0.034 A 
HETATM   28 CL   UNL     1      27.870  45.805  55.994  1.00  0.00    -0.084 Cl
HETATM   29  C   UNL     1      26.526  46.755  53.854  1.00  0.00     0.024 A 
HETATM   30  C   UNL     1      26.109  46.714  52.522  1.00  0.00     0.011 A 
ENDBRANCH   9  24
TORSDOF 4
ENDMDL
MODEL 7
REMARK VINA RESULT:      -7.5      3.750      8.134
REMARK  4 active torsions:
REMARK  status: ('A' for Active; 'I' for Inactive)
REMARK    1  A    between atoms: C_9  and  C_10 
REMARK    2  A    between atoms: C_17  and  C_18 
REMARK       I    between atoms: C_18  and  N_19 
REMARK    3  A    between atoms: N_19  and  C_20 
REMARK    4  A    between atoms: C_23  and  O_24 
ROOT
HETATM    1  C   UNL     1      27.209  42.631  51.991  1.00  0.00     0.070 C 
HETATM    2  C   UNL     1      26.772  44.051  52.255  1.00  0.00     0.037 C 
HETATM    3  N   UNL     1      27.529  44.741  53.199  1.00  0.00    -0.192 N 
HETATM    4  C   UNL     1      27.096  45.872  53.794  1.00  0.00     0.725 A 
HETATM    5  N   UNL     1      25.979  46.497  53.311  1.00  0.00    -0.084 N 
HETATM    6  N   UNL     1      25.638  47.555  54.075  1.00  0.00    -0.149 NA
HETATM    7  C   UNL     1      26.624  47.531  54.979  1.00  0.00     0.275 A 
HETATM    8  N   UNL     1      27.541  46.521  54.838  1.00  0.00    -0.054 NA
HETATM    9  C   UNL     1      25.231  46.040  52.133  1.00  0.00     0.202 C 
HETATM   10  C   UNL     1      25.675  44.641  51.712  1.00  0.00     0.062 C 
HETATM   11  H   UNL     1      28.278  44.230  53.661  1.00  0.00     0.184 HD
ENDROOT
BRANCH  10  12
HETATM   12  C   UNL     1      24.711  43.958  50.808  1.00  0.00     0.256 C 
HETATM   13  N   UNL     1      25.029  44.045  49.470  1.00  0.00    -0.323 N 
HETATM   14  H   UNL     1      25.828  44.613  49.220  1.00  0.00     0.169 HD
HETATM   15  O   UNL     1      23.723  43.429  51.303  1.00  0.00    -0.267 OA
BRANCH  13  16
HETATM   16  C   UNL     1      24.385  43.382  48.402  1.00  0.00     0.035 A 
HETATM   17  C   UNL     1      24.549  42.028  48.110  1.00  0.00     0.032 A 
HETATM   18  C   UNL     1      23.898  41.455  47.012  1.00  0.00     0.039 A 
HETATM   19  C   UNL     1      23.074  42.219  46.187  1.00  0.00     0.068 A 
HETATM   20  C   UNL     1      22.907  43.573  46.469  1.00  0.00     0.039 A 
HETATM   21  C   UNL     1      23.556  44.148  47.572  1.00  0.00     0.032 A 
BRANCH  19  22
HETATM   22  O   UNL     1      22.506  41.532  45.151  1.00  0.00    -0.356 OA
HETATM   23  C   UNL     1      21.592  42.245  44.329  1.00  0.00     0.210 C 
ENDBRANCH  19  22
ENDBRANCH  13  16
ENDBRANCH  10  12
BRANCH   9  24
HETATM   24  C   UNL     1      25.369  47.053  50.994  1.00  0.00    -0.028 A 
HETATM   25  C   UNL     1      26.622  47.552  50.590  1.00  0.00     0.011 A 
HETATM   26  C   UNL     1      26.717  48.492  49.562  1.00  0.00     0.024 A 
HETATM   27  C   UNL     1      25.564  48.932  48.916  1.00  0.00     0.034 A 
HETATM   28 CL   UNL     1      25.683  50.098  47.657  1.00  0.00    -0.084 Cl
HETATM   29  C   UNL     1      24.318  48.433  49.285  1.00  0.00     0.024 A 
HETATM   30  C   UNL     1      24.220  47.495  50.316  1.00  0.00     0.011 A 
ENDBRANCH   9  24
TORSDOF 4
ENDMDL
MODEL 8
REMARK VINA RESULT:      -7.5      8.355     11.786
REMARK  4 active torsions:
REMARK  status: ('A' for Active; 'I' for Inactive)
REMARK    1  A    between atoms: C_9  and  C_10 
REMARK    2  A    between atoms: C_17  and  C_18 
REMARK       I    between atoms: C_18  and  N_19 
REMARK    3  A    between atoms: N_19  and  C_20 
REMARK    4  A    between atoms: C_23  and  O_24 
ROOT
HETATM    1  C   UNL     1      17.385  46.037  48.223  1.00  0.00     0.070 C 
HETATM    2  C   UNL     1      17.030  47.379  47.630  1.00  0.00     0.037 C 
HETATM    3  N   UNL     1      15.892  47.393  46.827  1.00  0.00    -0.192 N 
HETATM    4  C   UNL     1      15.620  48.397  45.967  1.00  0.00     0.725 A 
HETATM    5  N   UNL     1      16.356  49.548  46.028  1.00  0.00    -0.084 N 
HETATM    6  N   UNL     1      16.012  50.404  45.044  1.00  0.00    -0.149 NA
HETATM    7  C   UNL     1      15.030  49.715  44.453  1.00  0.00     0.275 A 
HETATM    8  N   UNL     1      14.754  48.485  44.992  1.00  0.00    -0.054 NA
HETATM    9  C   UNL     1      17.411  49.793  47.019  1.00  0.00     0.202 C 
HETATM   10  C   UNL     1      17.775  48.508  47.759  1.00  0.00     0.062 C 
HETATM   11  H   UNL     1      15.420  46.506  46.669  1.00  0.00     0.184 HD
ENDROOT
BRANCH  10  12
HETATM   12  C   UNL     1      19.081  48.579  48.468  1.00  0.00     0.256 C 
HETATM   13  N   UNL     1      20.176  48.643  47.634  1.00  0.00    -0.323 N 
HETATM   14  H   UNL     1      20.007  48.563  46.639  1.00  0.00     0.169 HD
HETATM   15  O   UNL     1      19.083  48.533  49.692  1.00  0.00    -0.267 OA
BRANCH  13  16
HETATM   16  C   UNL     1      21.519  48.858  48.015  1.00  0.00     0.035 A 
HETATM   17  C   UNL     1      22.336  47.879  48.581  1.00  0.00     0.032 A 
HETATM   18  C   UNL     1      23.648  48.182  48.960  1.00  0.00     0.039 A 
HETATM   19  C   UNL     1      24.169  49.464  48.783  1.00  0.00     0.068 A 
HETATM   20  C   UNL     1      23.359  50.448  48.223  1.00  0.00     0.039 A 
HETATM   21  C   UNL     1      22.044  50.144  47.838  1.00  0.00     0.032 A 
BRANCH  19  22
HETATM   22  O   UNL     1      25.460  49.620  49.202  1.00  0.00    -0.356 OA
HETATM   23  C   UNL     1      26.439  49.859  48.199  1.00  0.00     0.210 C 
ENDBRANCH  19  22
ENDBRANCH  13  16
ENDBRANCH  10  12
BRANCH   9  24
HETATM   24  C   UNL     1      16.987  50.907  47.979  1.00  0.00    -0.028 A 
HETATM   25  C   UNL     1      17.891  51.893  48.420  1.00  0.00     0.011 A 
HETATM   26  C   UNL     1      17.483  52.885  49.314  1.00  0.00     0.024 A 
HETATM   27  C   UNL     1      16.165  52.913  49.764  1.00  0.00     0.034 A 
HETATM   28 CL   UNL     1      15.669  54.131  50.874  1.00  0.00    -0.084 Cl
HETATM   29  C   UNL     1      15.251  51.962  49.322  1.00  0.00     0.024 A 
HETATM   30  C   UNL     1      15.658  50.966  48.431  1.00  0.00     0.011 A 
ENDBRANCH   9  24
TORSDOF 4
ENDMDL
MODEL 9
REMARK VINA RESULT:      -7.5      3.668      5.418
REMARK  4 active torsions:
REMARK  status: ('A' for Active; 'I' for Inactive)
REMARK    1  A    between atoms: C_9  and  C_10 
REMARK    2  A    between atoms: C_17  and  C_18 
REMARK       I    between atoms: C_18  and  N_19 
REMARK    3  A    between atoms: N_19  and  C_20 
REMARK    4  A    between atoms: C_23  and  O_24 
ROOT
HETATM    1  C   UNL     1      26.534  49.994  48.349  1.00  0.00     0.070 C 
HETATM    2  C   UNL     1      25.114  49.521  48.538  1.00  0.00     0.037 C 
HETATM    3  N   UNL     1      24.130  50.384  48.061  1.00  0.00    -0.192 N 
HETATM    4  C   UNL     1      22.836  50.290  48.432  1.00  0.00     0.725 A 
HETATM    5  N   UNL     1      22.417  49.187  49.125  1.00  0.00    -0.084 N 
HETATM    6  N   UNL     1      21.124  49.299  49.491  1.00  0.00    -0.149 NA
HETATM    7  C   UNL     1      20.817  50.481  48.946  1.00  0.00     0.275 A 
HETATM    8  N   UNL     1      21.835  51.117  48.283  1.00  0.00    -0.054 NA
HETATM    9  C   UNL     1      23.285  48.051  49.456  1.00  0.00     0.202 C 
HETATM   10  C   UNL     1      24.751  48.390  49.198  1.00  0.00     0.062 C 
HETATM   11  H   UNL     1      24.437  51.271  47.668  1.00  0.00     0.184 HD
ENDROOT
BRANCH  10  12
HETATM   12  C   UNL     1      25.704  47.468  49.875  1.00  0.00     0.256 C 
HETATM   13  N   UNL     1      25.418  47.232  51.202  1.00  0.00    -0.323 N 
HETATM   14  H   UNL     1      24.649  47.749  51.609  1.00  0.00     0.169 HD
HETATM   15  O   UNL     1      26.657  47.042  49.234  1.00  0.00    -0.267 OA
BRANCH  13  16
HETATM   16  C   UNL     1      26.055  46.301  52.053  1.00  0.00     0.035 A 
HETATM   17  C   UNL     1      26.171  44.940  51.773  1.00  0.00     0.032 A 
HETATM   18  C   UNL     1      26.790  44.078  52.685  1.00  0.00     0.039 A 
HETATM   19  C   UNL     1      27.303  44.558  53.891  1.00  0.00     0.068 A 
HETATM   20  C   UNL     1      27.188  45.915  54.179  1.00  0.00     0.039 A 
HETATM   21  C   UNL     1      26.571  46.781  53.263  1.00  0.00     0.032 A 
BRANCH  19  22
HETATM   22  O   UNL     1      27.876  43.606  54.687  1.00  0.00    -0.356 OA
HETATM   23  C   UNL     1      29.295  43.525  54.675  1.00  0.00     0.210 C 
ENDBRANCH  19  22
ENDBRANCH  13  16
ENDBRANCH  10  12
BRANCH   9  24
HETATM   24  C   UNL     1      22.841  46.804  48.688  1.00  0.00    -0.028 A 
HETATM   25  C   UNL     1      23.066  45.506  49.184  1.00  0.00     0.011 A 
HETATM   26  C   UNL     1      22.670  44.384  48.451  1.00  0.00     0.024 A 
HETATM   27  C   UNL     1      22.031  44.548  47.224  1.00  0.00     0.034 A 
HETATM   28 CL   UNL     1      21.554  43.165  46.320  1.00  0.00    -0.084 Cl
HETATM   29  C   UNL     1      21.779  45.824  46.728  1.00  0.00     0.024 A 
HETATM   30  C   UNL     1      22.178  46.946  47.457  1.00  0.00     0.011 A 
ENDBRANCH   9  24
TORSDOF 4
ENDMDL
MODEL 10
REMARK VINA RESULT:      -7.5     17.204     19.357
REMARK  4 active torsions:
REMARK  status: ('A' for Active; 'I' for Inactive)
REMARK    1  A    between atoms: C_9  and  C_10 
REMARK    2  A    between atoms: C_17  and  C_18 
REMARK       I    between atoms: C_18  and  N_19 
REMARK    3  A    between atoms: N_19  and  C_20 
REMARK    4  A    between atoms: C_23  and  O_24 
ROOT
HETATM    1  C   UNL     1      35.481  47.052  66.979  1.00  0.00     0.070 C 
HETATM    2  C   UNL     1      36.651  47.964  66.699  1.00  0.00     0.037 C 
HETATM    3  N   UNL     1      36.713  49.111  67.487  1.00  0.00    -0.192 N 
HETATM    4  C   UNL     1      37.474  50.177  67.162  1.00  0.00     0.725 A 
HETATM    5  N   UNL     1      38.387  50.064  66.150  1.00  0.00    -0.084 N 
HETATM    6  N   UNL     1      38.992  51.243  65.900  1.00  0.00    -0.149 NA
HETATM    7  C   UNL     1      38.421  52.013  66.833  1.00  0.00     0.275 A 
HETATM    8  N   UNL     1      37.491  51.397  67.630  1.00  0.00    -0.054 NA
HETATM    9  C   UNL     1      38.638  48.821  65.409  1.00  0.00     0.202 C 
HETATM   10  C   UNL     1      37.560  47.782  65.706  1.00  0.00     0.062 C 
HETATM   11  H   UNL     1      35.955  49.265  68.148  1.00  0.00     0.184 HD
ENDROOT
BRANCH  10  12
HETATM   12  C   UNL     1      37.511  46.675  64.712  1.00  0.00     0.256 C 
HETATM   13  N   UNL     1      38.392  45.647  64.963  1.00  0.00    -0.323 N 
HETATM   14  H   UNL     1      39.031  45.764  65.739  1.00  0.00     0.169 HD
HETATM   15  O   UNL     1      36.749  46.783  63.758  1.00  0.00    -0.267 OA
BRANCH  13  16
HETATM   16  C   UNL     1      38.472  44.413  64.280  1.00  0.00     0.035 A 
HETATM   17  C   UNL     1      37.561  43.369  64.446  1.00  0.00     0.032 A 
HETATM   18  C   UNL     1      37.730  42.165  63.755  1.00  0.00     0.039 A 
HETATM   19  C   UNL     1      38.806  41.979  62.887  1.00  0.00     0.068 A 
HETATM   20  C   UNL     1      39.722  43.015  62.719  1.00  0.00     0.039 A 
HETATM   21  C   UNL     1      39.552  44.225  63.409  1.00  0.00     0.032 A 
BRANCH  19  22
HETATM   22  O   UNL     1      38.849  40.754  62.283  1.00  0.00    -0.356 OA
HETATM   23  C   UNL     1      39.543  39.721  62.969  1.00  0.00     0.210 C 
ENDBRANCH  19  22
ENDBRANCH  13  16
ENDBRANCH  10  12
BRANCH   9  24
HETATM   24  C   UNL     1      40.042  48.296  65.718  1.00  0.00    -0.028 A 
HETATM   25  C   UNL     1      40.856  47.722  64.723  1.00  0.00     0.011 A 
HETATM   26  C   UNL     1      42.125  47.230  65.037  1.00  0.00     0.024 A 
HETATM   27  C   UNL     1      42.600  47.320  66.343  1.00  0.00     0.034 A 
HETATM   28 CL   UNL     1      44.158  46.704  66.729  1.00  0.00    -0.084 Cl
HETATM   29  C   UNL     1      41.819  47.905  67.336  1.00  0.00     0.024 A 
HETATM   30  C   UNL     1      40.548  48.394  67.025  1.00  0.00     0.011 A 
ENDBRANCH   9  24
TORSDOF 4
ENDMDL
