MODEL 1
REMARK VINA RESULT:      -9.2      0.000      0.000
REMARK  6 active torsions:
REMARK  status: ('A' for Active; 'I' for Inactive)
REMARK    1  A    between atoms: C_7  and  N_8 
REMARK    2  A    between atoms: N_8  and  C_9 
REMARK    3  A    between atoms: C_9  and  C_10 
REMARK    4  A    between atoms: C_12  and  N_13 
REMARK       I    between atoms: N_13  and  C_14 
REMARK    5  A    between atoms: C_14  and  C_15 
REMARK    6  A    between atoms: C_15  and  N_16 
ROOT
HETATM    1  C   UNL     1      25.481  45.825  52.850  1.00  0.00    -0.038 A 
HETATM    2  C   UNL     1      25.404  46.915  51.971  1.00  0.00     0.038 A 
HETATM    3  C   UNL     1      24.808  46.795  50.717  1.00  0.00     0.035 A 
HETATM    4  C   UNL     1      24.400  45.534  50.282  1.00  0.00     0.029 A 
HETATM    5  C   UNL     1      24.518  44.425  51.125  1.00  0.00     0.003 A 
HETATM    6  C   UNL     1      25.034  44.574  52.414  1.00  0.00     0.009 A 
ENDROOT
BRANCH   1   7
HETATM    7  C   UNL     1      25.982  46.034  54.248  1.00  0.00     0.176 C 
BRANCH   7   8
HETATM    8  N   UNL     1      27.384  46.432  54.208  1.00  0.00    -0.222 N 
HETATM    9  H   UNL     1      27.664  47.193  53.609  1.00  0.00     0.178 HD
BRANCH   8  10
HETATM   10  C   UNL     1      28.319  45.923  55.025  1.00  0.00     0.679 A 
HETATM   11  N   UNL     1      29.046  44.853  54.736  1.00  0.00    -0.190 N 
HETATM   12  C   UNL     1      29.937  44.586  55.758  1.00  0.00     0.076 A 
HETATM   13  H   UNL     1      28.970  44.301  53.893  1.00  0.00     0.184 HD
HETATM   14  C   UNL     1      29.704  45.563  56.723  1.00  0.00     0.076 A 
HETATM   15  C   UNL     1      30.897  43.595  55.915  1.00  0.00     0.032 A 
HETATM   16  C   UNL     1      30.402  45.621  57.922  1.00  0.00     0.032 A 
HETATM   17  N   UNL     1      28.703  46.358  56.212  1.00  0.00    -0.190 N 
HETATM   18  C   UNL     1      31.379  44.628  58.098  1.00  0.00     0.002 A 
HETATM   19  C   UNL     1      31.621  43.641  57.118  1.00  0.00     0.002 A 
HETATM   20  H   UNL     1      28.293  47.124  56.729  1.00  0.00     0.184 HD
ENDBRANCH   8  10
ENDBRANCH   7   8
ENDBRANCH   1   7
BRANCH   3  21
HETATM   21  N   UNL     1      24.573  47.897  49.875  1.00  0.00    -0.326 N 
HETATM   22  C   UNL     1      25.514  48.634  49.178  1.00  0.00     0.242 C 
HETATM   23  O   UNL     1      26.733  48.427  49.225  1.00  0.00    -0.271 OA
HETATM   24  H   UNL     1      23.625  48.292  49.891  1.00  0.00     0.169 HD
BRANCH  22  25
HETATM   25  C   UNL     1      24.998  49.839  48.406  1.00  0.00     0.253 C 
BRANCH  25  26
HETATM   26  N   UNL     1      23.592  50.165  48.577  1.00  0.00    -0.273 N 
HETATM   27  N   UNL     1      23.121  50.537  49.790  1.00  0.00    -0.185 NA
HETATM   28  C   UNL     1      21.846  50.860  49.548  1.00  0.00     0.140 A 
HETATM   29  C   UNL     1      21.499  50.696  48.195  1.00  0.00     0.040 A 
HETATM   30  C   UNL     1      22.651  50.247  47.590  1.00  0.00     0.114 A 
ENDBRANCH  25  26
ENDBRANCH  22  25
ENDBRANCH   3  21
TORSDOF 6
ENDMDL
MODEL 2
REMARK VINA RESULT:      -8.8      1.056      1.640
REMARK  6 active torsions:
REMARK  status: ('A' for Active; 'I' for Inactive)
REMARK    1  A    between atoms: C_7  and  N_8 
REMARK    2  A    between atoms: N_8  and  C_9 
REMARK    3  A    between atoms: C_9  and  C_10 
REMARK    4  A    between atoms: C_12  and  N_13 
REMARK       I    between atoms: N_13  and  C_14 
REMARK    5  A    between atoms: C_14  and  C_15 
REMARK    6  A    between atoms: C_15  and  N_16 
ROOT
HETATM    1  C   UNL     1      26.067  45.849  52.438  1.00  0.00    -0.038 A 
HETATM    2  C   UNL     1      25.271  46.722  51.684  1.00  0.00     0.038 A 
HETATM    3  C   UNL     1      25.150  46.585  50.302  1.00  0.00     0.035 A 
HETATM    4  C   UNL     1      25.942  45.641  49.647  1.00  0.00     0.029 A 
HETATM    5  C   UNL     1      26.782  44.797  50.378  1.00  0.00     0.003 A 
HETATM    6  C   UNL     1      26.827  44.883  51.771  1.00  0.00     0.009 A 
ENDROOT
BRANCH   1   7
HETATM    7  C   UNL     1      26.042  45.928  53.936  1.00  0.00     0.176 C 
BRANCH   7   8
HETATM    8  N   UNL     1      27.237  46.618  54.406  1.00  0.00    -0.222 N 
HETATM    9  H   UNL     1      27.295  47.621  54.318  1.00  0.00     0.178 HD
BRANCH   8  10
HETATM   10  C   UNL     1      28.227  46.006  55.074  1.00  0.00     0.679 A 
HETATM   11  N   UNL     1      28.644  46.377  56.276  1.00  0.00    -0.190 N 
HETATM   12  C   UNL     1      29.657  45.546  56.713  1.00  0.00     0.076 A 
HETATM   13  H   UNL     1      28.282  47.156  56.808  1.00  0.00     0.184 HD
HETATM   14  C   UNL     1      29.858  44.628  55.684  1.00  0.00     0.076 A 
HETATM   15  C   UNL     1      30.395  45.524  57.889  1.00  0.00     0.032 A 
HETATM   16  C   UNL     1      30.818  43.627  55.744  1.00  0.00     0.032 A 
HETATM   17  N   UNL     1      28.946  44.960  54.708  1.00  0.00    -0.190 N 
HETATM   18  C   UNL     1      31.574  43.587  56.926  1.00  0.00     0.002 A 
HETATM   19  C   UNL     1      31.366  44.511  57.973  1.00  0.00     0.002 A 
HETATM   20  H   UNL     1      28.903  44.488  53.815  1.00  0.00     0.184 HD
ENDBRANCH   8  10
ENDBRANCH   7   8
ENDBRANCH   1   7
BRANCH   3  21
HETATM   21  N   UNL     1      24.244  47.339  49.537  1.00  0.00    -0.326 N 
HETATM   22  C   UNL     1      24.429  48.616  49.037  1.00  0.00     0.242 C 
HETATM   23  O   UNL     1      25.446  49.295  49.225  1.00  0.00    -0.271 OA
HETATM   24  H   UNL     1      23.288  46.970  49.462  1.00  0.00     0.169 HD
BRANCH  22  25
HETATM   25  C   UNL     1      23.247  49.241  48.311  1.00  0.00     0.253 C 
BRANCH  25  26
HETATM   26  N   UNL     1      22.190  49.789  49.146  1.00  0.00    -0.273 N 
HETATM   27  N   UNL     1      22.475  50.728  50.078  1.00  0.00    -0.185 NA
HETATM   28  C   UNL     1      21.276  51.070  50.560  1.00  0.00     0.140 A 
HETATM   29  C   UNL     1      20.230  50.357  49.947  1.00  0.00     0.040 A 
HETATM   30  C   UNL     1      20.852  49.538  49.034  1.00  0.00     0.114 A 
ENDBRANCH  25  26
ENDBRANCH  22  25
ENDBRANCH   3  21
TORSDOF 6
ENDMDL
MODEL 3
REMARK VINA RESULT:      -8.7      2.188      3.347
REMARK  6 active torsions:
REMARK  status: ('A' for Active; 'I' for Inactive)
REMARK    1  A    between atoms: C_7  and  N_8 
REMARK    2  A    between atoms: N_8  and  C_9 
REMARK    3  A    between atoms: C_9  and  C_10 
REMARK    4  A    between atoms: C_12  and  N_13 
REMARK       I    between atoms: N_13  and  C_14 
REMARK    5  A    between atoms: C_14  and  C_15 
REMARK    6  A    between atoms: C_15  and  N_16 
ROOT
HETATM    1  C   UNL     1      25.967  46.339  50.008  1.00  0.00    -0.038 A 
HETATM    2  C   UNL     1      24.586  46.580  50.042  1.00  0.00     0.038 A 
HETATM    3  C   UNL     1      24.050  47.790  49.606  1.00  0.00     0.035 A 
HETATM    4  C   UNL     1      24.918  48.824  49.253  1.00  0.00     0.029 A 
HETATM    5  C   UNL     1      26.300  48.618  49.265  1.00  0.00     0.003 A 
HETATM    6  C   UNL     1      26.823  47.372  49.617  1.00  0.00     0.009 A 
ENDROOT
BRANCH   1   7
HETATM    7  C   UNL     1      26.488  44.969  50.332  1.00  0.00     0.176 C 
BRANCH   7   8
HETATM    8  N   UNL     1      26.260  44.684  51.743  1.00  0.00    -0.222 N 
HETATM    9  H   UNL     1      25.322  44.497  52.063  1.00  0.00     0.178 HD
BRANCH   8  10
HETATM   10  C   UNL     1      27.252  44.527  52.634  1.00  0.00     0.679 A 
HETATM   11  N   UNL     1      27.444  45.330  53.671  1.00  0.00    -0.190 N 
HETATM   12  C   UNL     1      28.525  44.902  54.417  1.00  0.00     0.076 A 
HETATM   13  H   UNL     1      26.887  46.142  53.896  1.00  0.00     0.184 HD
HETATM   14  C   UNL     1      29.011  43.774  53.760  1.00  0.00     0.076 A 
HETATM   15  C   UNL     1      29.103  45.397  55.578  1.00  0.00     0.032 A 
HETATM   16  C   UNL     1      30.117  43.061  54.203  1.00  0.00     0.032 A 
HETATM   17  N   UNL     1      28.183  43.591  52.676  1.00  0.00    -0.190 N 
HETATM   18  C   UNL     1      30.715  43.546  55.376  1.00  0.00     0.002 A 
HETATM   19  C   UNL     1      30.220  44.685  56.048  1.00  0.00     0.002 A 
HETATM   20  H   UNL     1      28.335  42.868  51.985  1.00  0.00     0.184 HD
ENDBRANCH   8  10
ENDBRANCH   7   8
ENDBRANCH   1   7
BRANCH   3  21
HETATM   21  N   UNL     1      22.667  48.010  49.479  1.00  0.00    -0.326 N 
HETATM   22  C   UNL     1      21.874  47.745  48.375  1.00  0.00     0.242 C 
HETATM   23  O   UNL     1      22.300  47.284  47.310  1.00  0.00    -0.271 OA
HETATM   24  H   UNL     1      22.219  48.561  50.222  1.00  0.00     0.169 HD
BRANCH  22  25
HETATM   25  C   UNL     1      20.415  48.164  48.470  1.00  0.00     0.253 C 
BRANCH  25  26
HETATM   26  N   UNL     1      20.160  49.565  48.759  1.00  0.00    -0.273 N 
HETATM   27  N   UNL     1      19.994  49.978  50.037  1.00  0.00    -0.185 NA
HETATM   28  C   UNL     1      19.896  51.308  49.930  1.00  0.00     0.140 A 
HETATM   29  C   UNL     1      19.996  51.745  48.597  1.00  0.00     0.040 A 
HETATM   30  C   UNL     1      20.169  50.596  47.862  1.00  0.00     0.114 A 
ENDBRANCH  25  26
ENDBRANCH  22  25
ENDBRANCH   3  21
TORSDOF 6
ENDMDL
MODEL 4
REMARK VINA RESULT:      -8.6      2.383      3.582
REMARK  6 active torsions:
REMARK  status: ('A' for Active; 'I' for Inactive)
REMARK    1  A    between atoms: C_7  and  N_8 
REMARK    2  A    between atoms: N_8  and  C_9 
REMARK    3  A    between atoms: C_9  and  C_10 
REMARK    4  A    between atoms: C_12  and  N_13 
REMARK       I    between atoms: N_13  and  C_14 
REMARK    5  A    between atoms: C_14  and  C_15 
REMARK    6  A    between atoms: C_15  and  N_16 
ROOT
HETATM    1  C   UNL     1      25.228  46.971  50.298  1.00  0.00    -0.038 A 
HETATM    2  C   UNL     1      24.133  47.751  49.899  1.00  0.00     0.038 A 
HETATM    3  C   UNL     1      24.300  48.883  49.104  1.00  0.00     0.035 A 
HETATM    4  C   UNL     1      25.594  49.317  48.812  1.00  0.00     0.029 A 
HETATM    5  C   UNL     1      26.699  48.580  49.247  1.00  0.00     0.003 A 
HETATM    6  C   UNL     1      26.517  47.398  49.967  1.00  0.00     0.009 A 
ENDROOT
BRANCH   1   7
HETATM    7  C   UNL     1      24.992  45.674  51.015  1.00  0.00     0.176 C 
BRANCH   7   8
HETATM    8  N   UNL     1      25.475  45.782  52.386  1.00  0.00    -0.222 N 
HETATM    9  H   UNL     1      24.906  46.253  53.074  1.00  0.00     0.178 HD
BRANCH   8  10
HETATM   10  C   UNL     1      26.587  45.174  52.827  1.00  0.00     0.679 A 
HETATM   11  N   UNL     1      27.262  44.274  52.126  1.00  0.00    -0.190 N 
HETATM   12  C   UNL     1      28.370  43.847  52.831  1.00  0.00     0.076 A 
HETATM   13  H   UNL     1      27.012  43.939  51.206  1.00  0.00     0.184 HD
HETATM   14  C   UNL     1      28.334  44.537  54.040  1.00  0.00     0.076 A 
HETATM   15  C   UNL     1      29.371  42.936  52.520  1.00  0.00     0.032 A 
HETATM   16  C   UNL     1      29.285  44.363  55.036  1.00  0.00     0.032 A 
HETATM   17  N   UNL     1      27.219  45.341  53.975  1.00  0.00    -0.190 N 
HETATM   18  C   UNL     1      30.307  43.447  54.740  1.00  0.00     0.002 A 
HETATM   19  C   UNL     1      30.349  42.752  53.512  1.00  0.00     0.002 A 
HETATM   20  H   UNL     1      26.914  45.920  54.746  1.00  0.00     0.184 HD
ENDBRANCH   8  10
ENDBRANCH   7   8
ENDBRANCH   1   7
BRANCH   3  21
HETATM   21  N   UNL     1      23.220  49.598  48.557  1.00  0.00    -0.326 N 
HETATM   22  C   UNL     1      22.520  50.637  49.143  1.00  0.00     0.242 C 
HETATM   23  O   UNL     1      22.747  51.074  50.278  1.00  0.00    -0.271 OA
HETATM   24  H   UNL     1      22.808  49.218  47.696  1.00  0.00     0.169 HD
BRANCH  22  25
HETATM   25  C   UNL     1      21.330  51.179  48.366  1.00  0.00     0.253 C 
BRANCH  25  26
HETATM   26  N   UNL     1      20.030  51.060  49.006  1.00  0.00    -0.273 N 
HETATM   27  N   UNL     1      19.702  49.932  49.678  1.00  0.00    -0.185 NA
HETATM   28  C   UNL     1      18.511  50.218  50.215  1.00  0.00     0.140 A 
HETATM   29  C   UNL     1      18.076  51.515  49.890  1.00  0.00     0.040 A 
HETATM   30  C   UNL     1      19.081  52.038  49.109  1.00  0.00     0.114 A 
ENDBRANCH  25  26
ENDBRANCH  22  25
ENDBRANCH   3  21
TORSDOF 6
ENDMDL
MODEL 5
REMARK VINA RESULT:      -8.3      3.331      5.717
REMARK  6 active torsions:
REMARK  status: ('A' for Active; 'I' for Inactive)
REMARK    1  A    between atoms: C_7  and  N_8 
REMARK    2  A    between atoms: N_8  and  C_9 
REMARK    3  A    between atoms: C_9  and  C_10 
REMARK    4  A    between atoms: C_12  and  N_13 
REMARK       I    between atoms: N_13  and  C_14 
REMARK    5  A    between atoms: C_14  and  C_15 
REMARK    6  A    between atoms: C_15  and  N_16 
ROOT
HETATM    1  C   UNL     1      25.828  46.273  52.871  1.00  0.00    -0.038 A 
HETATM    2  C   UNL     1      25.715  44.982  52.335  1.00  0.00     0.038 A 
HETATM    3  C   UNL     1      25.664  44.770  50.959  1.00  0.00     0.035 A 
HETATM    4  C   UNL     1      25.595  45.874  50.108  1.00  0.00     0.029 A 
HETATM    5  C   UNL     1      25.653  47.170  50.630  1.00  0.00     0.003 A 
HETATM    6  C   UNL     1      25.795  47.368  52.004  1.00  0.00     0.009 A 
ENDROOT
BRANCH   1   7
HETATM    7  C   UNL     1      26.043  46.446  54.346  1.00  0.00     0.176 C 
BRANCH   7   8
HETATM    8  N   UNL     1      27.401  46.921  54.586  1.00  0.00    -0.222 N 
HETATM    9  H   UNL     1      27.641  47.871  54.346  1.00  0.00     0.178 HD
BRANCH   8  10
HETATM   10  C   UNL     1      28.330  46.202  55.233  1.00  0.00     0.679 A 
HETATM   11  N   UNL     1      28.915  45.126  54.725  1.00  0.00    -0.190 N 
HETATM   12  C   UNL     1      29.841  44.616  55.614  1.00  0.00     0.076 A 
HETATM   13  H   UNL     1      28.721  44.726  53.818  1.00  0.00     0.184 HD
HETATM   14  C   UNL     1      29.784  45.445  56.732  1.00  0.00     0.076 A 
HETATM   15  C   UNL     1      30.697  43.526  55.535  1.00  0.00     0.032 A 
HETATM   16  C   UNL     1      30.566  45.244  57.861  1.00  0.00     0.032 A 
HETATM   17  N   UNL     1      28.842  46.403  56.434  1.00  0.00    -0.190 N 
HETATM   18  C   UNL     1      31.440  44.146  57.800  1.00  0.00     0.002 A 
HETATM   19  C   UNL     1      31.505  43.309  56.665  1.00  0.00     0.002 A 
HETATM   20  H   UNL     1      28.554  47.113  57.095  1.00  0.00     0.184 HD
ENDBRANCH   8  10
ENDBRANCH   7   8
ENDBRANCH   1   7
BRANCH   3  21
HETATM   21  N   UNL     1      25.708  43.488  50.382  1.00  0.00    -0.326 N 
HETATM   22  C   UNL     1      24.666  42.584  50.269  1.00  0.00     0.242 C 
HETATM   23  O   UNL     1      23.523  42.785  50.699  1.00  0.00    -0.271 OA
HETATM   24  H   UNL     1      26.639  43.120  50.152  1.00  0.00     0.169 HD
BRANCH  22  25
HETATM   25  C   UNL     1      25.006  41.224  49.679  1.00  0.00     0.253 C 
BRANCH  25  26
HETATM   26  N   UNL     1      26.412  40.856  49.667  1.00  0.00    -0.273 N 
HETATM   27  N   UNL     1      27.058  40.595  50.828  1.00  0.00    -0.185 NA
HETATM   28  C   UNL     1      28.270  40.191  50.431  1.00  0.00     0.140 A 
HETATM   29  C   UNL     1      28.403  40.194  49.032  1.00  0.00     0.040 A 
HETATM   30  C   UNL     1      27.184  40.626  48.564  1.00  0.00     0.114 A 
ENDBRANCH  25  26
ENDBRANCH  22  25
ENDBRANCH   3  21
TORSDOF 6
ENDMDL
MODEL 6
REMARK VINA RESULT:      -8.3      2.362     10.221
REMARK  6 active torsions:
REMARK  status: ('A' for Active; 'I' for Inactive)
REMARK    1  A    between atoms: C_7  and  N_8 
REMARK    2  A    between atoms: N_8  and  C_9 
REMARK    3  A    between atoms: C_9  and  C_10 
REMARK    4  A    between atoms: C_12  and  N_13 
REMARK       I    between atoms: N_13  and  C_14 
REMARK    5  A    between atoms: C_14  and  C_15 
REMARK    6  A    between atoms: C_15  and  N_16 
ROOT
HETATM    1  C   UNL     1      24.300  46.780  50.024  1.00  0.00    -0.038 A 
HETATM    2  C   UNL     1      25.057  46.761  51.205  1.00  0.00     0.038 A 
HETATM    3  C   UNL     1      25.782  45.633  51.584  1.00  0.00     0.035 A 
HETATM    4  C   UNL     1      25.646  44.461  50.838  1.00  0.00     0.029 A 
HETATM    5  C   UNL     1      24.853  44.448  49.687  1.00  0.00     0.003 A 
HETATM    6  C   UNL     1      24.202  45.609  49.267  1.00  0.00     0.009 A 
ENDROOT
BRANCH   1   7
HETATM    7  C   UNL     1      23.667  48.062  49.570  1.00  0.00     0.176 C 
BRANCH   7   8
HETATM    8  N   UNL     1      22.258  47.830  49.276  1.00  0.00    -0.222 N 
HETATM    9  H   UNL     1      21.933  46.886  49.132  1.00  0.00     0.178 HD
BRANCH   8  10
HETATM   10  C   UNL     1      21.328  48.797  49.311  1.00  0.00     0.679 A 
HETATM   11  N   UNL     1      21.434  49.945  48.657  1.00  0.00    -0.190 N 
HETATM   12  C   UNL     1      20.313  50.724  48.869  1.00  0.00     0.076 A 
HETATM   13  H   UNL     1      22.216  50.223  48.082  1.00  0.00     0.184 HD
HETATM   14  C   UNL     1      19.497  49.985  49.722  1.00  0.00     0.076 A 
HETATM   15  C   UNL     1      19.959  51.983  48.401  1.00  0.00     0.032 A 
HETATM   16  C   UNL     1      18.272  50.447  50.183  1.00  0.00     0.032 A 
HETATM   17  N   UNL     1      20.173  48.808  49.953  1.00  0.00    -0.190 N 
HETATM   18  C   UNL     1      17.895  51.717  49.719  1.00  0.00     0.002 A 
HETATM   19  C   UNL     1      18.717  52.466  48.848  1.00  0.00     0.002 A 
HETATM   20  H   UNL     1      19.835  48.096  50.587  1.00  0.00     0.184 HD
ENDBRANCH   8  10
ENDBRANCH   7   8
ENDBRANCH   1   7
BRANCH   3  21
HETATM   21  N   UNL     1      26.672  45.628  52.672  1.00  0.00    -0.326 N 
HETATM   22  C   UNL     1      26.369  45.386  54.001  1.00  0.00     0.242 C 
HETATM   23  O   UNL     1      25.229  45.156  54.422  1.00  0.00    -0.271 OA
HETATM   24  H   UNL     1      27.618  45.986  52.493  1.00  0.00     0.169 HD
BRANCH  22  25
HETATM   25  C   UNL     1      27.511  45.530  54.996  1.00  0.00     0.253 C 
BRANCH  25  26
HETATM   26  N   UNL     1      28.534  44.499  54.963  1.00  0.00    -0.273 N 
HETATM   27  N   UNL     1      28.312  43.340  54.299  1.00  0.00    -0.185 NA
HETATM   28  C   UNL     1      29.482  42.697  54.386  1.00  0.00     0.140 A 
HETATM   29  C   UNL     1      30.445  43.433  55.099  1.00  0.00     0.040 A 
HETATM   30  C   UNL     1      29.804  44.596  55.458  1.00  0.00     0.114 A 
ENDBRANCH  25  26
ENDBRANCH  22  25
ENDBRANCH   3  21
TORSDOF 6
ENDMDL
MODEL 7
REMARK VINA RESULT:      -8.1      2.784      3.973
REMARK  6 active torsions:
REMARK  status: ('A' for Active; 'I' for Inactive)
REMARK    1  A    between atoms: C_7  and  N_8 
REMARK    2  A    between atoms: N_8  and  C_9 
REMARK    3  A    between atoms: C_9  and  C_10 
REMARK    4  A    between atoms: C_12  and  N_13 
REMARK       I    between atoms: N_13  and  C_14 
REMARK    5  A    between atoms: C_14  and  C_15 
REMARK    6  A    between atoms: C_15  and  N_16 
ROOT
HETATM    1  C   UNL     1      28.183  41.687  51.540  1.00  0.00    -0.038 A 
HETATM    2  C   UNL     1      27.476  42.852  51.211  1.00  0.00     0.038 A 
HETATM    3  C   UNL     1      26.736  42.944  50.033  1.00  0.00     0.035 A 
HETATM    4  C   UNL     1      26.810  41.902  49.107  1.00  0.00     0.029 A 
HETATM    5  C   UNL     1      27.553  40.755  49.396  1.00  0.00     0.003 A 
HETATM    6  C   UNL     1      28.218  40.636  50.618  1.00  0.00     0.009 A 
ENDROOT
BRANCH   1   7
HETATM    7  C   UNL     1      28.832  41.569  52.887  1.00  0.00     0.176 C 
BRANCH   7   8
HETATM    8  N   UNL     1      29.787  42.656  53.063  1.00  0.00    -0.222 N 
HETATM    9  H   UNL     1      30.312  42.986  52.267  1.00  0.00     0.178 HD
BRANCH   8  10
HETATM   10  C   UNL     1      29.922  43.342  54.209  1.00  0.00     0.679 A 
HETATM   11  N   UNL     1      30.771  43.010  55.171  1.00  0.00    -0.190 N 
HETATM   12  C   UNL     1      30.698  43.915  56.211  1.00  0.00     0.076 A 
HETATM   13  H   UNL     1      31.389  42.210  55.158  1.00  0.00     0.184 HD
HETATM   14  C   UNL     1      29.724  44.838  55.838  1.00  0.00     0.076 A 
HETATM   15  C   UNL     1      31.382  43.997  57.417  1.00  0.00     0.032 A 
HETATM   16  C   UNL     1      29.349  45.906  56.642  1.00  0.00     0.032 A 
HETATM   17  N   UNL     1      29.289  44.435  54.596  1.00  0.00    -0.190 N 
HETATM   18  C   UNL     1      30.030  46.008  57.865  1.00  0.00     0.002 A 
HETATM   19  C   UNL     1      31.024  45.077  58.242  1.00  0.00     0.002 A 
HETATM   20  H   UNL     1      28.537  44.897  54.101  1.00  0.00     0.184 HD
ENDBRANCH   8  10
ENDBRANCH   7   8
ENDBRANCH   1   7
BRANCH   3  21
HETATM   21  N   UNL     1      25.892  44.031  49.745  1.00  0.00    -0.326 N 
HETATM   22  C   UNL     1      24.800  44.462  50.479  1.00  0.00     0.242 C 
HETATM   23  O   UNL     1      24.396  43.911  51.509  1.00  0.00    -0.271 OA
HETATM   24  H   UNL     1      26.002  44.464  48.820  1.00  0.00     0.169 HD
BRANCH  22  25
HETATM   25  C   UNL     1      24.001  45.616  49.894  1.00  0.00     0.253 C 
BRANCH  25  26
HETATM   26  N   UNL     1      24.711  46.872  49.717  1.00  0.00    -0.273 N 
HETATM   27  N   UNL     1      26.055  46.923  49.873  1.00  0.00    -0.185 NA
HETATM   28  C   UNL     1      26.365  48.178  49.530  1.00  0.00     0.140 A 
HETATM   29  C   UNL     1      25.234  48.927  49.159  1.00  0.00     0.040 A 
HETATM   30  C   UNL     1      24.178  48.055  49.287  1.00  0.00     0.114 A 
ENDBRANCH  25  26
ENDBRANCH  22  25
ENDBRANCH   3  21
TORSDOF 6
ENDMDL
MODEL 8
REMARK VINA RESULT:      -8.0      4.452      9.154
REMARK  6 active torsions:
REMARK  status: ('A' for Active; 'I' for Inactive)
REMARK    1  A    between atoms: C_7  and  N_8 
REMARK    2  A    between atoms: N_8  and  C_9 
REMARK    3  A    between atoms: C_9  and  C_10 
REMARK    4  A    between atoms: C_12  and  N_13 
REMARK       I    between atoms: N_13  and  C_14 
REMARK    5  A    between atoms: C_14  and  C_15 
REMARK    6  A    between atoms: C_15  and  N_16 
ROOT
HETATM    1  C   UNL     1      26.654  44.750  53.304  1.00  0.00    -0.038 A 
HETATM    2  C   UNL     1      26.526  43.617  52.486  1.00  0.00     0.038 A 
HETATM    3  C   UNL     1      27.373  42.520  52.629  1.00  0.00     0.035 A 
HETATM    4  C   UNL     1      28.449  42.609  53.513  1.00  0.00     0.029 A 
HETATM    5  C   UNL     1      28.624  43.753  54.297  1.00  0.00     0.003 A 
HETATM    6  C   UNL     1      27.716  44.809  54.211  1.00  0.00     0.009 A 
ENDROOT
BRANCH   1   7
HETATM    7  C   UNL     1      25.624  45.838  53.230  1.00  0.00     0.176 C 
BRANCH   7   8
HETATM    8  N   UNL     1      24.966  45.796  51.930  1.00  0.00    -0.222 N 
HETATM    9  H   UNL     1      24.322  45.047  51.727  1.00  0.00     0.178 HD
BRANCH   8  10
HETATM   10  C   UNL     1      25.068  46.776  51.019  1.00  0.00     0.679 A 
HETATM   11  N   UNL     1      26.222  47.259  50.583  1.00  0.00    -0.190 N 
HETATM   12  C   UNL     1      26.006  48.240  49.635  1.00  0.00     0.076 A 
HETATM   13  H   UNL     1      27.137  46.962  50.892  1.00  0.00     0.184 HD
HETATM   14  C   UNL     1      24.623  48.350  49.517  1.00  0.00     0.076 A 
HETATM   15  C   UNL     1      26.883  49.022  48.895  1.00  0.00     0.032 A 
HETATM   16  C   UNL     1      24.008  49.255  48.662  1.00  0.00     0.032 A 
HETATM   17  N   UNL     1      24.102  47.420  50.388  1.00  0.00    -0.190 N 
HETATM   18  C   UNL     1      24.878  50.053  47.903  1.00  0.00     0.002 A 
HETATM   19  C   UNL     1      26.281  49.938  48.015  1.00  0.00     0.002 A 
HETATM   20  H   UNL     1      23.109  47.316  50.550  1.00  0.00     0.184 HD
ENDBRANCH   8  10
ENDBRANCH   7   8
ENDBRANCH   1   7
BRANCH   3  21
HETATM   21  N   UNL     1      27.178  41.311  51.938  1.00  0.00    -0.326 N 
HETATM   22  C   UNL     1      27.187  41.117  50.568  1.00  0.00     0.242 C 
HETATM   23  O   UNL     1      27.351  42.021  49.740  1.00  0.00    -0.271 OA
HETATM   24  H   UNL     1      26.847  40.513  52.495  1.00  0.00     0.169 HD
BRANCH  22  25
HETATM   25  C   UNL     1      26.858  39.715  50.077  1.00  0.00     0.253 C 
BRANCH  25  26
HETATM   26  N   UNL     1      27.966  38.937  49.548  1.00  0.00    -0.273 N 
HETATM   27  N   UNL     1      27.958  38.530  48.257  1.00  0.00    -0.185 NA
HETATM   28  C   UNL     1      29.155  37.955  48.100  1.00  0.00     0.140 A 
HETATM   29  C   UNL     1      29.924  37.990  49.276  1.00  0.00     0.040 A 
HETATM   30  C   UNL     1      29.130  38.635  50.196  1.00  0.00     0.114 A 
ENDBRANCH  25  26
ENDBRANCH  22  25
ENDBRANCH   3  21
TORSDOF 6
ENDMDL
MODEL 9
REMARK VINA RESULT:      -8.0      2.986      5.090
REMARK  6 active torsions:
REMARK  status: ('A' for Active; 'I' for Inactive)
REMARK    1  A    between atoms: C_7  and  N_8 
REMARK    2  A    between atoms: N_8  and  C_9 
REMARK    3  A    between atoms: C_9  and  C_10 
REMARK    4  A    between atoms: C_12  and  N_13 
REMARK       I    between atoms: N_13  and  C_14 
REMARK    5  A    between atoms: C_14  and  C_15 
REMARK    6  A    between atoms: C_15  and  N_16 
ROOT
HETATM    1  C   UNL     1      24.563  48.697  49.185  1.00  0.00    -0.038 A 
HETATM    2  C   UNL     1      23.265  48.574  49.702  1.00  0.00     0.038 A 
HETATM    3  C   UNL     1      22.222  49.373  49.239  1.00  0.00     0.035 A 
HETATM    4  C   UNL     1      22.507  50.401  48.340  1.00  0.00     0.029 A 
HETATM    5  C   UNL     1      23.807  50.572  47.855  1.00  0.00     0.003 A 
HETATM    6  C   UNL     1      24.827  49.708  48.257  1.00  0.00     0.009 A 
ENDROOT
BRANCH   1   7
HETATM    7  C   UNL     1      25.619  47.711  49.591  1.00  0.00     0.176 C 
BRANCH   7   8
HETATM    8  N   UNL     1      25.117  46.884  50.682  1.00  0.00    -0.222 N 
HETATM    9  H   UNL     1      24.211  46.449  50.595  1.00  0.00     0.178 HD
BRANCH   8  10
HETATM   10  C   UNL     1      25.851  46.556  51.757  1.00  0.00     0.679 A 
HETATM   11  N   UNL     1      26.138  47.400  52.737  1.00  0.00    -0.190 N 
HETATM   12  C   UNL     1      26.886  46.769  53.712  1.00  0.00     0.076 A 
HETATM   13  H   UNL     1      25.857  48.370  52.779  1.00  0.00     0.184 HD
HETATM   14  C   UNL     1      27.063  45.463  53.262  1.00  0.00     0.076 A 
HETATM   15  C   UNL     1      27.412  47.223  54.914  1.00  0.00     0.032 A 
HETATM   16  C   UNL     1      27.786  44.512  53.970  1.00  0.00     0.032 A 
HETATM   17  N   UNL     1      26.398  45.393  52.059  1.00  0.00    -0.190 N 
HETATM   18  C   UNL     1      28.325  44.951  55.190  1.00  0.00     0.002 A 
HETATM   19  C   UNL     1      28.141  46.273  55.651  1.00  0.00     0.002 A 
HETATM   20  H   UNL     1      26.404  44.566  51.476  1.00  0.00     0.184 HD
ENDBRANCH   8  10
ENDBRANCH   7   8
ENDBRANCH   1   7
BRANCH   3  21
HETATM   21  N   UNL     1      20.882  49.174  49.618  1.00  0.00    -0.326 N 
HETATM   22  C   UNL     1      19.994  48.248  49.099  1.00  0.00     0.242 C 
HETATM   23  O   UNL     1      20.267  47.461  48.185  1.00  0.00    -0.271 OA
HETATM   24  H   UNL     1      20.471  49.882  50.238  1.00  0.00     0.169 HD
BRANCH  22  25
HETATM   25  C   UNL     1      18.569  48.302  49.628  1.00  0.00     0.253 C 
BRANCH  25  26
HETATM   26  N   UNL     1      17.869  49.567  49.477  1.00  0.00    -0.273 N 
HETATM   27  N   UNL     1      18.163  50.610  50.289  1.00  0.00    -0.185 NA
HETATM   28  C   UNL     1      17.426  51.611  49.797  1.00  0.00     0.140 A 
HETATM   29  C   UNL     1      16.665  51.218  48.683  1.00  0.00     0.040 A 
HETATM   30  C   UNL     1      16.974  49.891  48.497  1.00  0.00     0.114 A 
ENDBRANCH  25  26
ENDBRANCH  22  25
ENDBRANCH   3  21
TORSDOF 6
ENDMDL
MODEL 10
REMARK VINA RESULT:      -7.9      2.661     10.398
REMARK  6 active torsions:
REMARK  status: ('A' for Active; 'I' for Inactive)
REMARK    1  A    between atoms: C_7  and  N_8 
REMARK    2  A    between atoms: N_8  and  C_9 
REMARK    3  A    between atoms: C_9  and  C_10 
REMARK    4  A    between atoms: C_12  and  N_13 
REMARK       I    between atoms: N_13  and  C_14 
REMARK    5  A    between atoms: C_14  and  C_15 
REMARK    6  A    between atoms: C_15  and  N_16 
ROOT
HETATM    1  C   UNL     1      24.391  48.104  49.241  1.00  0.00    -0.038 A 
HETATM    2  C   UNL     1      24.544  46.915  49.968  1.00  0.00     0.038 A 
HETATM    3  C   UNL     1      25.771  46.556  50.522  1.00  0.00     0.035 A 
HETATM    4  C   UNL     1      26.894  47.332  50.234  1.00  0.00     0.029 A 
HETATM    5  C   UNL     1      26.769  48.493  49.465  1.00  0.00     0.003 A 
HETATM    6  C   UNL     1      25.518  48.892  48.991  1.00  0.00     0.009 A 
ENDROOT
BRANCH   1   7
HETATM    7  C   UNL     1      23.022  48.533  48.801  1.00  0.00     0.176 C 
BRANCH   7   8
HETATM    8  N   UNL     1      22.506  49.533  49.728  1.00  0.00    -0.222 N 
HETATM    9  H   UNL     1      23.093  49.857  50.482  1.00  0.00     0.178 HD
BRANCH   8  10
HETATM   10  C   UNL     1      21.327  50.153  49.565  1.00  0.00     0.679 A 
HETATM   11  N   UNL     1      20.199  49.753  50.136  1.00  0.00    -0.190 N 
HETATM   12  C   UNL     1      19.163  50.601  49.799  1.00  0.00     0.076 A 
HETATM   13  H   UNL     1      20.099  48.946  50.734  1.00  0.00     0.184 HD
HETATM   14  C   UNL     1      19.720  51.560  48.956  1.00  0.00     0.076 A 
HETATM   15  C   UNL     1      17.819  50.606  50.149  1.00  0.00     0.032 A 
HETATM   16  C   UNL     1      18.981  52.589  48.389  1.00  0.00     0.032 A 
HETATM   17  N   UNL     1      21.054  51.234  48.856  1.00  0.00    -0.190 N 
HETATM   18  C   UNL     1      17.619  52.611  48.733  1.00  0.00     0.002 A 
HETATM   19  C   UNL     1      17.053  51.645  49.593  1.00  0.00     0.002 A 
HETATM   20  H   UNL     1      21.698  51.735  48.258  1.00  0.00     0.184 HD
ENDBRANCH   8  10
ENDBRANCH   7   8
ENDBRANCH   1   7
BRANCH   3  21
HETATM   21  N   UNL     1      25.926  45.456  51.385  1.00  0.00    -0.326 N 
HETATM   22  C   UNL     1      25.906  45.468  52.768  1.00  0.00     0.242 C 
HETATM   23  O   UNL     1      25.767  46.489  53.452  1.00  0.00    -0.271 OA
HETATM   24  H   UNL     1      26.234  44.576  50.955  1.00  0.00     0.169 HD
BRANCH  22  25
HETATM   25  C   UNL     1      26.190  44.145  53.464  1.00  0.00     0.253 C 
BRANCH  25  26
HETATM   26  N   UNL     1      27.562  43.668  53.415  1.00  0.00    -0.273 N 
HETATM   27  N   UNL     1      28.245  43.676  52.246  1.00  0.00    -0.185 NA
HETATM   28  C   UNL     1      29.475  43.286  52.596  1.00  0.00     0.140 A 
HETATM   29  C   UNL     1      29.583  43.029  53.974  1.00  0.00     0.040 A 
HETATM   30  C   UNL     1      28.330  43.287  54.479  1.00  0.00     0.114 A 
ENDBRANCH  25  26
ENDBRANCH  22  25
ENDBRANCH   3  21
TORSDOF 6
ENDMDL
