MODEL 1
REMARK VINA RESULT:      -8.9      0.000      0.000
REMARK  8 active torsions:
REMARK  status: ('A' for Active; 'I' for Inactive)
REMARK    1  A    between atoms: C_1  and  C_15 
REMARK    2  A    between atoms: C_2  and  C_5 
REMARK    3  A    between atoms: C_5  and  C_13 
REMARK       I    between atoms: C_7  and  N_8 
REMARK    4  A    between atoms: N_8  and  C_9 
REMARK       I    between atoms: C_13  and  N_14 
REMARK    5  A    between atoms: N_14  and  C_15 
REMARK    6  A    between atoms: C_23  and  C_24 
REMARK    7  A    between atoms: C_24  and  O_25 
REMARK    8  A    between atoms: C_27  and  O_28 
ROOT
HETATM    1  C           1      26.642  45.429  52.559  0.00  0.00     0.056 C 
HETATM    2  C           1      25.770  43.771  50.164  0.00  0.00     0.055 C 
HETATM    3  C           1      26.846  43.312  51.175  0.00  0.00     0.012 C 
HETATM    4  C           1      24.604  47.211  50.367  0.00  0.00     0.173 A 
HETATM    5  S           1      24.544  46.034  49.498  0.00  0.00    -0.055 SA
HETATM    6  C           1      25.407  45.214  50.361  0.00  0.00     0.012 A 
HETATM    7  C           1      25.796  45.927  51.423  0.00  0.00     0.056 A 
HETATM    8  C           1      26.571  43.865  52.614  0.00  0.00    -0.030 C 
HETATM    9  C           1      25.183  43.459  53.155  0.00  0.00     0.016 C 
HETATM   10  C           1      27.269  41.810  51.013  0.00  0.00     0.008 C 
HETATM   11  C           1      27.926  41.631  49.614  0.00  0.00     0.020 C 
HETATM   12  C           1      28.342  41.480  52.070  0.00  0.00     0.128 C 
HETATM   13  C           1      27.934  41.859  53.488  0.00  0.00     0.033 C 
HETATM   14  C           1      27.672  43.365  53.580  0.00  0.00     0.013 C 
HETATM   15  N           1      25.315  47.089  51.403  0.00  0.00    -0.227 NA
ENDROOT
BRANCH   1  16
HETATM   16  C           1      26.298  46.188  53.861  0.00  0.00     0.114 C 
BRANCH  16  17
HETATM   17  C           1      27.522  46.797  54.538  0.00  0.00     0.218 C 
HETATM   18  N           1      28.234  45.948  55.338  0.00  0.00    -0.355 N 
HETATM   19  H           1      27.878  45.011  55.541  0.00  0.00     0.162 HD
HETATM   20  O           1      27.828  47.951  54.370  0.00  0.00    -0.274 OA
BRANCH  18  21
HETATM   21  C           1      29.472  46.358  56.003  0.00  0.00     0.187 C 
BRANCH  21  22
HETATM   22  C           1      30.242  45.127  56.383  0.00  0.00     0.070 A 
HETATM   23  C           1      30.472  44.068  55.592  0.00  0.00     0.036 A 
HETATM   24  C           1      31.209  43.241  56.342  0.00  0.00     0.027 A 
HETATM   25  C           1      31.339  43.890  57.505  0.00  0.00     0.142 A 
HETATM   26  O           1      30.762  44.976  57.491  0.00  0.00    -0.325 OA
ENDBRANCH  21  22
ENDBRANCH  18  21
ENDBRANCH  16  17
ENDBRANCH   1  16
BRANCH  10  27
HETATM   27  C           1      26.092  40.818  51.095  0.00  0.00     0.176 C 
BRANCH  27  28
HETATM   28  O           1      26.434  39.554  50.554  0.00  0.00    -0.400 OA
HETATM   29  H           1      26.019  38.857  51.064  0.00  0.00     0.209 HD
ENDBRANCH  27  28
ENDBRANCH  10  27
BRANCH   4  30
HETATM   30  N           1      23.826  48.276  50.095  0.00  0.00    -0.306 N 
HETATM   31  C           1      24.059  49.282  49.201  0.00  0.00     0.219 C 
HETATM   32  C           1      22.938  50.298  49.106  0.00  0.00     0.117 C 
HETATM   33  O           1      25.071  49.363  48.551  0.00  0.00    -0.274 OA
HETATM   34  H           1      23.010  48.315  50.687  0.00  0.00     0.171 HD
ENDBRANCH   4  30
BRANCH  12  35
HETATM   35  O           1      28.658  40.109  52.060  0.00  0.00    -0.395 OA
HETATM   36  H           1      27.924  39.598  52.407  0.00  0.00     0.210 HD
ENDBRANCH  12  35
TORSDOF 8
ENDMDL
MODEL 2
REMARK VINA RESULT:      -8.5      2.453      6.637
REMARK  8 active torsions:
REMARK  status: ('A' for Active; 'I' for Inactive)
REMARK    1  A    between atoms: C_1  and  C_15 
REMARK    2  A    between atoms: C_2  and  C_5 
REMARK    3  A    between atoms: C_5  and  C_13 
REMARK       I    between atoms: C_7  and  N_8 
REMARK    4  A    between atoms: N_8  and  C_9 
REMARK       I    between atoms: C_13  and  N_14 
REMARK    5  A    between atoms: N_14  and  C_15 
REMARK    6  A    between atoms: C_23  and  C_24 
REMARK    7  A    between atoms: C_24  and  O_25 
REMARK    8  A    between atoms: C_27  and  O_28 
ROOT
HETATM    1  C           1      26.133  45.568  51.244  0.00  0.00     0.056 C 
HETATM    2  C           1      26.910  42.628  51.269  0.00  0.00     0.055 C 
HETATM    3  C           1      27.546  43.688  52.198  0.00  0.00     0.012 C 
HETATM    4  C           1      24.761  43.795  48.577  0.00  0.00     0.173 A 
HETATM    5  S           1      25.441  42.590  49.054  0.00  0.00    -0.055 SA
HETATM    6  C           1      26.068  43.263  50.200  0.00  0.00     0.012 A 
HETATM    7  C           1      25.733  44.556  50.207  0.00  0.00     0.056 A 
HETATM    8  C           1      26.535  44.828  52.564  0.00  0.00    -0.030 C 
HETATM    9  C           1      25.250  44.293  53.234  0.00  0.00     0.016 C 
HETATM   10  C           1      28.441  43.082  53.334  0.00  0.00     0.008 C 
HETATM   11  C           1      29.644  42.348  52.675  0.00  0.00     0.020 C 
HETATM   12  C           1      29.015  44.235  54.182  0.00  0.00     0.128 C 
HETATM   13  C           1      27.953  45.206  54.682  0.00  0.00     0.033 C 
HETATM   14  C           1      27.223  45.850  53.500  0.00  0.00     0.013 C 
HETATM   15  N           1      24.970  44.843  49.250  0.00  0.00    -0.227 NA
ENDROOT
BRANCH   1  16
HETATM   16  C           1      25.056  46.671  51.364  0.00  0.00     0.114 C 
BRANCH  16  17
HETATM   17  C           1      25.225  47.783  50.333  0.00  0.00     0.218 C 
HETATM   18  N           1      24.120  48.053  49.574  0.00  0.00    -0.355 N 
HETATM   19  H           1      23.294  47.454  49.636  0.00  0.00     0.162 HD
HETATM   20  O           1      26.268  48.374  50.208  0.00  0.00    -0.274 OA
BRANCH  18  21
HETATM   21  C           1      24.098  49.136  48.589  0.00  0.00     0.187 C 
BRANCH  21  22
HETATM   22  C           1      22.893  49.993  48.849  0.00  0.00     0.070 A 
HETATM   23  C           1      22.086  50.518  47.915  0.00  0.00     0.036 A 
HETATM   24  C           1      21.150  51.176  48.608  0.00  0.00     0.027 A 
HETATM   25  C           1      21.497  50.978  49.886  0.00  0.00     0.142 A 
HETATM   26  O           1      22.513  50.292  49.983  0.00  0.00    -0.325 OA
ENDBRANCH  21  22
ENDBRANCH  18  21
ENDBRANCH  16  17
ENDBRANCH   1  16
BRANCH  10  27
HETATM   27  C           1      27.712  42.055  54.223  0.00  0.00     0.176 C 
BRANCH  27  28
HETATM   28  O           1      27.751  40.755  53.661  0.00  0.00    -0.400 OA
HETATM   29  H           1      28.246  40.167  54.233  0.00  0.00     0.209 HD
ENDBRANCH  27  28
ENDBRANCH  10  27
BRANCH   4  30
HETATM   30  N           1      23.880  43.702  47.562  0.00  0.00    -0.306 N 
HETATM   31  C           1      22.527  43.533  47.635  0.00  0.00     0.219 C 
HETATM   32  C           1      21.831  43.529  46.289  0.00  0.00     0.117 C 
HETATM   33  O           1      21.937  43.390  48.676  0.00  0.00    -0.274 OA
HETATM   34  H           1      24.334  43.712  46.660  0.00  0.00     0.171 HD
ENDBRANCH   4  30
BRANCH  12  35
HETATM   35  O           1      29.715  43.743  55.300  0.00  0.00    -0.395 OA
HETATM   36  H           1      29.482  42.826  55.457  0.00  0.00     0.210 HD
ENDBRANCH  12  35
TORSDOF 8
ENDMDL
MODEL 3
REMARK VINA RESULT:      -8.5      2.715      7.497
REMARK  8 active torsions:
REMARK  status: ('A' for Active; 'I' for Inactive)
REMARK    1  A    between atoms: C_1  and  C_15 
REMARK    2  A    between atoms: C_2  and  C_5 
REMARK    3  A    between atoms: C_5  and  C_13 
REMARK       I    between atoms: C_7  and  N_8 
REMARK    4  A    between atoms: N_8  and  C_9 
REMARK       I    between atoms: C_13  and  N_14 
REMARK    5  A    between atoms: N_14  and  C_15 
REMARK    6  A    between atoms: C_23  and  C_24 
REMARK    7  A    between atoms: C_24  and  O_25 
REMARK    8  A    between atoms: C_27  and  O_28 
ROOT
HETATM    1  C           1      26.396  44.329  52.030  0.00  0.00     0.056 C 
HETATM    2  C           1      28.444  43.766  54.207  0.00  0.00     0.055 C 
HETATM    3  C           1      27.807  45.156  53.971  0.00  0.00     0.012 C 
HETATM    4  C           1      27.854  41.181  51.718  0.00  0.00     0.173 A 
HETATM    5  S           1      28.681  41.469  52.890  0.00  0.00    -0.055 SA
HETATM    6  C           1      28.127  42.816  53.089  0.00  0.00     0.012 A 
HETATM    7  C           1      27.221  43.079  52.142  0.00  0.00     0.056 A 
HETATM    8  C           1      26.344  45.044  53.423  0.00  0.00    -0.030 C 
HETATM    9  C           1      25.419  44.231  54.354  0.00  0.00     0.016 C 
HETATM   10  C           1      28.109  46.193  55.107  0.00  0.00     0.008 C 
HETATM   11  C           1      29.643  46.452  55.145  0.00  0.00     0.020 C 
HETATM   12  C           1      27.426  47.530  54.753  0.00  0.00     0.128 C 
HETATM   13  C           1      25.946  47.385  54.423  0.00  0.00     0.033 C 
HETATM   14  C           1      25.759  46.462  53.217  0.00  0.00     0.013 C 
HETATM   15  N           1      27.079  42.109  51.354  0.00  0.00    -0.227 NA
ENDROOT
BRANCH   1  16
HETATM   16  C           1      25.041  44.022  51.354  0.00  0.00     0.114 C 
BRANCH  16  17
HETATM   17  C           1      24.745  44.938  50.169  0.00  0.00     0.218 C 
HETATM   18  N           1      24.296  46.188  50.491  0.00  0.00    -0.355 N 
HETATM   19  H           1      24.071  46.421  51.460  0.00  0.00     0.162 HD
HETATM   20  O           1      24.902  44.569  49.031  0.00  0.00    -0.274 OA
BRANCH  18  21
HETATM   21  C           1      24.033  47.207  49.473  0.00  0.00     0.187 C 
BRANCH  21  22
HETATM   22  C           1      25.265  48.050  49.311  0.00  0.00     0.070 A 
HETATM   23  C           1      26.476  47.777  49.818  0.00  0.00     0.036 A 
HETATM   24  C           1      27.252  48.782  49.399  0.00  0.00     0.027 A 
HETATM   25  C           1      26.422  49.555  48.688  0.00  0.00     0.142 A 
HETATM   26  O           1      25.280  49.099  48.664  0.00  0.00    -0.325 OA
ENDBRANCH  21  22
ENDBRANCH  18  21
ENDBRANCH  16  17
ENDBRANCH   1  16
BRANCH  10  27
HETATM   27  C           1      27.693  45.718  56.513  0.00  0.00     0.176 C 
BRANCH  27  28
HETATM   28  O           1      28.576  46.197  57.512  0.00  0.00    -0.400 OA
HETATM   29  H           1      28.212  46.984  57.920  0.00  0.00     0.209 HD
ENDBRANCH  27  28
ENDBRANCH  10  27
BRANCH   4  30
HETATM   30  N           1      27.866  39.943  51.186  0.00  0.00    -0.306 N 
HETATM   31  C           1      28.276  39.567  49.939  0.00  0.00     0.219 C 
HETATM   32  C           1      28.210  38.073  49.690  0.00  0.00     0.117 C 
HETATM   33  O           1      28.651  40.352  49.105  0.00  0.00    -0.274 OA
HETATM   34  H           1      27.465  39.256  51.807  0.00  0.00     0.171 HD
ENDBRANCH   4  30
BRANCH  12  35
HETATM   35  O           1      27.549  48.456  55.806  0.00  0.00    -0.395 OA
HETATM   36  H           1      27.588  49.349  55.457  0.00  0.00     0.210 HD
ENDBRANCH  12  35
TORSDOF 8
ENDMDL
MODEL 4
REMARK VINA RESULT:      -8.2      4.886      9.927
REMARK  8 active torsions:
REMARK  status: ('A' for Active; 'I' for Inactive)
REMARK    1  A    between atoms: C_1  and  C_15 
REMARK    2  A    between atoms: C_2  and  C_5 
REMARK    3  A    between atoms: C_5  and  C_13 
REMARK       I    between atoms: C_7  and  N_8 
REMARK    4  A    between atoms: N_8  and  C_9 
REMARK       I    between atoms: C_13  and  N_14 
REMARK    5  A    between atoms: N_14  and  C_15 
REMARK    6  A    between atoms: C_23  and  C_24 
REMARK    7  A    between atoms: C_24  and  O_25 
REMARK    8  A    between atoms: C_27  and  O_28 
ROOT
HETATM    1  C           1      20.432  48.213  48.291  0.00  0.00     0.056 C 
HETATM    2  C           1      20.517  51.242  48.542  0.00  0.00     0.055 C 
HETATM    3  C           1      19.257  50.455  48.111  0.00  0.00     0.012 C 
HETATM    4  C           1      23.662  49.429  48.762  0.00  0.00     0.173 A 
HETATM    5  S           1      23.126  50.792  48.775  0.00  0.00    -0.055 SA
HETATM    6  C           1      21.735  50.365  48.567  0.00  0.00     0.012 A 
HETATM    7  C           1      21.678  49.034  48.460  0.00  0.00     0.056 A 
HETATM    8  C           1      19.195  49.040  48.779  0.00  0.00    -0.030 C 
HETATM    9  C           1      19.230  49.106  50.321  0.00  0.00     0.016 C 
HETATM   10  C           1      17.952  51.323  48.062  0.00  0.00     0.008 C 
HETATM   11  C           1      18.132  52.423  46.976  0.00  0.00     0.020 C 
HETATM   12  C           1      16.777  50.428  47.618  0.00  0.00     0.128 C 
HETATM   13  C           1      16.642  49.153  48.441  0.00  0.00     0.033 C 
HETATM   14  C           1      17.911  48.306  48.320  0.00  0.00     0.013 C 
HETATM   15  N           1      22.816  48.511  48.576  0.00  0.00    -0.227 NA
ENDROOT
BRANCH   1  16
HETATM   16  C           1      20.622  46.811  48.914  0.00  0.00     0.114 C 
BRANCH  16  17
HETATM   17  C           1      21.679  45.977  48.194  0.00  0.00     0.218 C 
HETATM   18  N           1      22.682  45.492  48.985  0.00  0.00    -0.355 N 
HETATM   19  H           1      22.755  45.783  49.962  0.00  0.00     0.162 HD
HETATM   20  O           1      21.619  45.771  47.007  0.00  0.00    -0.274 OA
BRANCH  18  21
HETATM   21  C           1      23.734  44.619  48.460  0.00  0.00     0.187 C 
BRANCH  21  22
HETATM   22  C           1      25.016  44.931  49.176  0.00  0.00     0.070 A 
HETATM   23  C           1      25.993  44.055  49.456  0.00  0.00     0.036 A 
HETATM   24  C           1      26.933  44.783  50.070  0.00  0.00     0.027 A 
HETATM   25  C           1      26.417  46.018  50.098  0.00  0.00     0.142 A 
HETATM   26  O           1      25.305  46.061  49.573  0.00  0.00    -0.325 OA
ENDBRANCH  21  22
ENDBRANCH  18  21
ENDBRANCH  16  17
ENDBRANCH   1  16
BRANCH  10  27
HETATM   27  C           1      17.628  52.040  49.387  0.00  0.00     0.176 C 
BRANCH  27  28
HETATM   28  O           1      16.980  53.280  49.168  0.00  0.00    -0.400 OA
HETATM   29  H           1      16.686  53.647  50.003  0.00  0.00     0.209 HD
ENDBRANCH  27  28
ENDBRANCH  10  27
BRANCH   4  30
HETATM   30  N           1      24.959  49.224  49.065  0.00  0.00    -0.306 N 
HETATM   31  C           1      26.060  49.612  48.357  0.00  0.00     0.219 C 
HETATM   32  C           1      27.377  49.266  49.023  0.00  0.00     0.117 C 
HETATM   33  O           1      25.994  50.172  47.292  0.00  0.00    -0.274 OA
HETATM   34  H           1      25.072  48.668  49.899  0.00  0.00     0.171 HD
ENDBRANCH   4  30
BRANCH  12  35
HETATM   35  O           1      15.555  51.123  47.690  0.00  0.00    -0.395 OA
HETATM   36  H           1      15.646  51.894  48.253  0.00  0.00     0.210 HD
ENDBRANCH  12  35
TORSDOF 8
ENDMDL
MODEL 5
REMARK VINA RESULT:      -8.1     13.359     16.631
REMARK  8 active torsions:
REMARK  status: ('A' for Active; 'I' for Inactive)
REMARK    1  A    between atoms: C_1  and  C_15 
REMARK    2  A    between atoms: C_2  and  C_5 
REMARK    3  A    between atoms: C_5  and  C_13 
REMARK       I    between atoms: C_7  and  N_8 
REMARK    4  A    between atoms: N_8  and  C_9 
REMARK       I    between atoms: C_13  and  N_14 
REMARK    5  A    between atoms: N_14  and  C_15 
REMARK    6  A    between atoms: C_23  and  C_24 
REMARK    7  A    between atoms: C_24  and  O_25 
REMARK    8  A    between atoms: C_27  and  O_28 
ROOT
HETATM    1  C           1      32.785  51.978  39.984  0.00  0.00     0.056 C 
HETATM    2  C           1      30.813  51.483  42.245  0.00  0.00     0.055 C 
HETATM    3  C           1      30.387  51.797  40.792  0.00  0.00     0.012 C 
HETATM    4  C           1      34.326  51.866  43.107  0.00  0.00     0.173 A 
HETATM    5  S           1      33.015  51.661  43.724  0.00  0.00    -0.055 SA
HETATM    6  C           1      32.284  51.705  42.450  0.00  0.00     0.012 A 
HETATM    7  C           1      33.137  51.918  41.443  0.00  0.00     0.056 A 
HETATM    8  C           1      31.419  51.251  39.748  0.00  0.00    -0.030 C 
HETATM    9  C           1      31.648  49.729  39.876  0.00  0.00     0.016 C 
HETATM   10  C           1      28.857  51.587  40.521  0.00  0.00     0.008 C 
HETATM   11  C           1      28.057  52.588  41.403  0.00  0.00     0.020 C 
HETATM   12  C           1      28.562  51.934  39.048  0.00  0.00     0.128 C 
HETATM   13  C           1      29.471  51.214  38.061  0.00  0.00     0.033 C 
HETATM   14  C           1      30.934  51.586  38.317  0.00  0.00     0.013 C 
HETATM   15  N           1      34.323  52.009  41.852  0.00  0.00    -0.227 NA
ENDROOT
BRANCH   1  16
HETATM   16  C           1      33.981  51.512  39.122  0.00  0.00     0.114 C 
BRANCH  16  17
HETATM   17  C           1      35.107  52.540  39.058  0.00  0.00     0.218 C 
HETATM   18  N           1      34.753  53.819  39.387  0.00  0.00    -0.355 N 
HETATM   19  H           1      33.771  54.057  39.546  0.00  0.00     0.162 HD
HETATM   20  O           1      36.226  52.231  38.735  0.00  0.00    -0.274 OA
BRANCH  18  21
HETATM   21  C           1      35.730  54.908  39.442  0.00  0.00     0.187 C 
BRANCH  21  22
HETATM   22  C           1      34.993  56.215  39.394  0.00  0.00     0.070 A 
HETATM   23  C           1      35.241  57.227  38.549  0.00  0.00     0.036 A 
HETATM   24  C           1      34.331  58.157  38.859  0.00  0.00     0.027 A 
HETATM   25  C           1      33.634  57.605  39.860  0.00  0.00     0.142 A 
HETATM   26  O           1      34.051  56.482  40.143  0.00  0.00    -0.325 OA
ENDBRANCH  21  22
ENDBRANCH  18  21
ENDBRANCH  16  17
ENDBRANCH   1  16
BRANCH  10  27
HETATM   27  C           1      28.351  50.172  40.864  0.00  0.00     0.176 C 
BRANCH  27  28
HETATM   28  O           1      27.498  50.180  41.995  0.00  0.00    -0.400 OA
HETATM   29  H           1      27.131  49.306  42.134  0.00  0.00     0.209 HD
ENDBRANCH  27  28
ENDBRANCH  10  27
BRANCH   4  30
HETATM   30  N           1      35.438  51.768  43.862  0.00  0.00    -0.306 N 
HETATM   31  C           1      36.511  52.612  43.893  0.00  0.00     0.219 C 
HETATM   32  C           1      37.568  52.231  44.910  0.00  0.00     0.117 C 
HETATM   33  O           1      36.615  53.572  43.171  0.00  0.00    -0.274 OA
HETATM   34  H           1      35.451  50.924  44.414  0.00  0.00     0.171 HD
ENDBRANCH   4  30
BRANCH  12  35
HETATM   35  O           1      27.229  51.631  38.712  0.00  0.00    -0.395 OA
HETATM   36  H           1      27.204  51.068  37.937  0.00  0.00     0.210 HD
ENDBRANCH  12  35
TORSDOF 8
ENDMDL
MODEL 6
REMARK VINA RESULT:      -8.0      2.404      6.638
REMARK  8 active torsions:
REMARK  status: ('A' for Active; 'I' for Inactive)
REMARK    1  A    between atoms: C_1  and  C_15 
REMARK    2  A    between atoms: C_2  and  C_5 
REMARK    3  A    between atoms: C_5  and  C_13 
REMARK       I    between atoms: C_7  and  N_8 
REMARK    4  A    between atoms: N_8  and  C_9 
REMARK       I    between atoms: C_13  and  N_14 
REMARK    5  A    between atoms: N_14  and  C_15 
REMARK    6  A    between atoms: C_23  and  C_24 
REMARK    7  A    between atoms: C_24  and  O_25 
REMARK    8  A    between atoms: C_27  and  O_28 
ROOT
HETATM    1  C           1      26.964  44.846  52.973  0.00  0.00     0.056 C 
HETATM    2  C           1      29.191  42.862  53.564  0.00  0.00     0.055 C 
HETATM    3  C           1      29.077  44.246  54.245  0.00  0.00     0.012 C 
HETATM    4  C           1      26.992  42.161  50.753  0.00  0.00     0.173 A 
HETATM    5  S           1      28.168  41.629  51.443  0.00  0.00    -0.055 SA
HETATM    6  C           1      28.236  42.731  52.414  0.00  0.00     0.012 A 
HETATM    7  C           1      27.260  43.611  52.171  0.00  0.00     0.056 A 
HETATM    8  C           1      27.585  44.699  54.403  0.00  0.00    -0.030 C 
HETATM    9  C           1      26.736  43.686  55.202  0.00  0.00     0.016 C 
HETATM   10  C           1      30.056  44.442  55.453  0.00  0.00     0.008 C 
HETATM   11  C           1      31.516  44.373  54.921  0.00  0.00     0.020 C 
HETATM   12  C           1      29.847  45.854  56.038  0.00  0.00     0.128 C 
HETATM   13  C           1      28.391  46.166  56.363  0.00  0.00     0.033 C 
HETATM   14  C           1      27.535  46.081  55.097  0.00  0.00     0.013 C 
HETATM   15  N           1      26.548  43.257  51.197  0.00  0.00    -0.227 NA
ENDROOT
BRANCH   1  16
HETATM   16  C           1      25.458  45.188  52.900  0.00  0.00     0.114 C 
BRANCH  16  17
HETATM   17  C           1      25.181  46.511  52.192  0.00  0.00     0.218 C 
HETATM   18  N           1      24.814  46.409  50.879  0.00  0.00    -0.355 N 
HETATM   19  H           1      24.848  45.505  50.404  0.00  0.00     0.162 HD
HETATM   20  O           1      25.285  47.567  52.765  0.00  0.00    -0.274 OA
BRANCH  18  21
HETATM   21  C           1      24.448  47.579  50.080  0.00  0.00     0.187 C 
BRANCH  21  22
HETATM   22  C           1      25.705  48.225  49.572  0.00  0.00     0.070 A 
HETATM   23  C           1      26.928  47.673  49.575  0.00  0.00     0.036 A 
HETATM   24  C           1      27.716  48.596  49.012  0.00  0.00     0.027 A 
HETATM   25  C           1      26.882  49.606  48.735  0.00  0.00     0.142 A 
HETATM   26  O           1      25.728  49.354  49.078  0.00  0.00    -0.325 OA
ENDBRANCH  21  22
ENDBRANCH  18  21
ENDBRANCH  16  17
ENDBRANCH   1  16
BRANCH  10  27
HETATM   27  C           1      29.919  43.367  56.549  0.00  0.00     0.176 C 
BRANCH  27  28
HETATM   28  O           1      31.168  43.063  57.145  0.00  0.00    -0.400 OA
HETATM   29  H           1      31.032  42.692  58.018  0.00  0.00     0.209 HD
ENDBRANCH  27  28
ENDBRANCH  10  27
BRANCH   4  30
HETATM   30  N           1      26.390  41.422  49.802  0.00  0.00    -0.306 N 
HETATM   31  C           1      26.789  41.225  48.510  0.00  0.00     0.219 C 
HETATM   32  C           1      25.902  40.279  47.726  0.00  0.00     0.117 C 
HETATM   33  O           1      27.756  41.762  48.032  0.00  0.00    -0.274 OA
HETATM   34  H           1      25.516  41.029  50.119  0.00  0.00     0.171 HD
ENDBRANCH   4  30
BRANCH  12  35
HETATM   35  O           1      30.603  46.034  57.211  0.00  0.00    -0.395 OA
HETATM   36  H           1      30.597  46.958  57.469  0.00  0.00     0.210 HD
ENDBRANCH  12  35
TORSDOF 8
ENDMDL
MODEL 7
REMARK VINA RESULT:      -7.9      7.274     11.895
REMARK  8 active torsions:
REMARK  status: ('A' for Active; 'I' for Inactive)
REMARK    1  A    between atoms: C_1  and  C_15 
REMARK    2  A    between atoms: C_2  and  C_5 
REMARK    3  A    between atoms: C_5  and  C_13 
REMARK       I    between atoms: C_7  and  N_8 
REMARK    4  A    between atoms: N_8  and  C_9 
REMARK       I    between atoms: C_13  and  N_14 
REMARK    5  A    between atoms: N_14  and  C_15 
REMARK    6  A    between atoms: C_23  and  C_24 
REMARK    7  A    between atoms: C_24  and  O_25 
REMARK    8  A    between atoms: C_27  and  O_28 
ROOT
HETATM    1  C           1      20.671  48.145  47.744  0.00  0.00     0.056 C 
HETATM    2  C           1      20.526  50.968  48.866  0.00  0.00     0.055 C 
HETATM    3  C           1      19.340  50.264  48.166  0.00  0.00     0.012 C 
HETATM    4  C           1      23.789  49.370  48.699  0.00  0.00     0.173 A 
HETATM    5  S           1      23.154  50.633  49.081  0.00  0.00    -0.055 SA
HETATM    6  C           1      21.804  50.200  48.693  0.00  0.00     0.012 A 
HETATM    7  C           1      21.848  48.958  48.202  0.00  0.00     0.056 A 
HETATM    8  C           1      19.363  48.714  48.392  0.00  0.00    -0.030 C 
HETATM    9  C           1      19.352  48.329  49.887  0.00  0.00     0.016 C 
HETATM   10  C           1      17.976  51.026  48.309  0.00  0.00     0.008 C 
HETATM   11  C           1      18.104  52.404  47.599  0.00  0.00     0.020 C 
HETATM   12  C           1      16.883  50.228  47.571  0.00  0.00     0.128 C 
HETATM   13  C           1      16.820  48.762  47.981  0.00  0.00     0.033 C 
HETATM   14  C           1      18.150  48.069  47.680  0.00  0.00     0.013 C 
HETATM   15  N           1      23.018  48.495  48.216  0.00  0.00    -0.227 NA
ENDROOT
BRANCH   1  16
HETATM   16  C           1      20.947  46.637  47.942  0.00  0.00     0.114 C 
BRANCH  16  17
HETATM   17  C           1      20.991  45.862  46.628  0.00  0.00     0.218 C 
HETATM   18  N           1      20.288  44.690  46.614  0.00  0.00    -0.355 N 
HETATM   19  H           1      19.871  44.329  47.475  0.00  0.00     0.162 HD
HETATM   20  O           1      21.610  46.268  45.676  0.00  0.00    -0.274 OA
BRANCH  18  21
HETATM   21  C           1      20.174  43.865  45.411  0.00  0.00     0.187 C 
BRANCH  21  22
HETATM   22  C           1      18.725  43.780  45.024  0.00  0.00     0.070 A 
HETATM   23  C           1      17.717  44.449  45.604  0.00  0.00     0.036 A 
HETATM   24  C           1      16.629  44.080  44.918  0.00  0.00     0.027 A 
HETATM   25  C           1      17.101  43.226  44.002  0.00  0.00     0.142 A 
HETATM   26  O           1      18.318  43.076  44.098  0.00  0.00    -0.325 OA
ENDBRANCH  21  22
ENDBRANCH  18  21
ENDBRANCH  16  17
ENDBRANCH   1  16
BRANCH  10  27
HETATM   27  C           1      17.565  51.302  49.769  0.00  0.00     0.176 C 
BRANCH  27  28
HETATM   28  O           1      16.730  52.442  49.871  0.00  0.00    -0.400 OA
HETATM   29  H           1      16.028  52.392  49.221  0.00  0.00     0.209 HD
ENDBRANCH  27  28
ENDBRANCH  10  27
BRANCH   4  30
HETATM   30  N           1      25.088  49.166  48.991  0.00  0.00    -0.306 N 
HETATM   31  C           1      26.184  49.635  48.324  0.00  0.00     0.219 C 
HETATM   32  C           1      27.505  49.261  48.965  0.00  0.00     0.117 C 
HETATM   33  O           1      26.110  50.282  47.310  0.00  0.00    -0.274 OA
HETATM   34  H           1      25.211  48.543  49.776  0.00  0.00     0.171 HD
ENDBRANCH   4  30
BRANCH  12  35
HETATM   35  O           1      15.611  50.794  47.782  0.00  0.00    -0.395 OA
HETATM   36  H           1      15.489  51.554  47.210  0.00  0.00     0.210 HD
ENDBRANCH  12  35
TORSDOF 8
ENDMDL
MODEL 8
REMARK VINA RESULT:      -7.8     13.156     15.823
REMARK  8 active torsions:
REMARK  status: ('A' for Active; 'I' for Inactive)
REMARK    1  A    between atoms: C_1  and  C_15 
REMARK    2  A    between atoms: C_2  and  C_5 
REMARK    3  A    between atoms: C_5  and  C_13 
REMARK       I    between atoms: C_7  and  N_8 
REMARK    4  A    between atoms: N_8  and  C_9 
REMARK       I    between atoms: C_13  and  N_14 
REMARK    5  A    between atoms: N_14  and  C_15 
REMARK    6  A    between atoms: C_23  and  C_24 
REMARK    7  A    between atoms: C_24  and  O_25 
REMARK    8  A    between atoms: C_27  and  O_28 
ROOT
HETATM    1  C           1      32.511  51.796  40.035  0.00  0.00     0.056 C 
HETATM    2  C           1      30.542  51.298  42.298  0.00  0.00     0.055 C 
HETATM    3  C           1      30.114  51.560  40.835  0.00  0.00     0.012 C 
HETATM    4  C           1      34.036  51.815  43.167  0.00  0.00     0.173 A 
HETATM    5  S           1      32.728  51.584  43.783  0.00  0.00    -0.055 SA
HETATM    6  C           1      32.003  51.572  42.505  0.00  0.00     0.012 A 
HETATM    7  C           1      32.855  51.785  41.497  0.00  0.00     0.056 A 
HETATM    8  C           1      31.170  51.019  39.811  0.00  0.00    -0.030 C 
HETATM    9  C           1      31.446  49.510  39.980  0.00  0.00     0.016 C 
HETATM   10  C           1      28.593  51.294  40.561  0.00  0.00     0.008 C 
HETATM   11  C           1      27.757  52.292  41.412  0.00  0.00     0.020 C 
HETATM   12  C           1      28.297  51.593  39.078  0.00  0.00     0.128 C 
HETATM   13  C           1      29.235  50.876  38.115  0.00  0.00     0.033 C 
HETATM   14  C           1      30.683  51.301  38.369  0.00  0.00     0.013 C 
HETATM   15  N           1      34.035  51.924  41.909  0.00  0.00    -0.227 NA
ENDROOT
BRANCH   1  16
HETATM   16  C           1      33.726  51.345  39.192  0.00  0.00     0.114 C 
BRANCH  16  17
HETATM   17  C           1      34.865  52.360  39.197  0.00  0.00     0.218 C 
HETATM   18  N           1      36.080  51.877  39.595  0.00  0.00    -0.355 N 
HETATM   19  H           1      36.160  50.929  39.969  0.00  0.00     0.162 HD
HETATM   20  O           1      34.690  53.508  38.871  0.00  0.00    -0.274 OA
BRANCH  18  21
HETATM   21  C           1      37.287  52.705  39.590  0.00  0.00     0.187 C 
BRANCH  21  22
HETATM   22  C           1      38.241  52.168  40.618  0.00  0.00     0.070 A 
HETATM   23  C           1      39.324  52.801  41.092  0.00  0.00     0.036 A 
HETATM   24  C           1      39.842  51.958  41.992  0.00  0.00     0.027 A 
HETATM   25  C           1      39.015  50.906  41.960  0.00  0.00     0.142 A 
HETATM   26  O           1      38.103  51.065  41.150  0.00  0.00    -0.325 OA
ENDBRANCH  21  22
ENDBRANCH  18  21
ENDBRANCH  16  17
ENDBRANCH   1  16
BRANCH  10  27
HETATM   27  C           1      28.130  49.873  40.939  0.00  0.00     0.176 C 
BRANCH  27  28
HETATM   28  O           1      27.328  49.877  42.107  0.00  0.00    -0.400 OA
HETATM   29  H           1      26.609  50.502  42.007  0.00  0.00     0.209 HD
ENDBRANCH  27  28
ENDBRANCH  10  27
BRANCH   4  30
HETATM   30  N           1      35.145  51.772  43.931  0.00  0.00    -0.306 N 
HETATM   31  C           1      36.238  52.589  43.873  0.00  0.00     0.219 C 
HETATM   32  C           1      37.287  52.294  44.927  0.00  0.00     0.117 C 
HETATM   33  O           1      36.365  53.462  43.052  0.00  0.00    -0.274 OA
HETATM   34  H           1      35.138  50.992  44.571  0.00  0.00     0.171 HD
ENDBRANCH   4  30
BRANCH  12  35
HETATM   35  O           1      26.976  51.239  38.743  0.00  0.00    -0.395 OA
HETATM   36  H           1      26.474  52.022  38.508  0.00  0.00     0.210 HD
ENDBRANCH  12  35
TORSDOF 8
ENDMDL
MODEL 9
REMARK VINA RESULT:      -7.8      6.252     10.636
REMARK  8 active torsions:
REMARK  status: ('A' for Active; 'I' for Inactive)
REMARK    1  A    between atoms: C_1  and  C_15 
REMARK    2  A    between atoms: C_2  and  C_5 
REMARK    3  A    between atoms: C_5  and  C_13 
REMARK       I    between atoms: C_7  and  N_8 
REMARK    4  A    between atoms: N_8  and  C_9 
REMARK       I    between atoms: C_13  and  N_14 
REMARK    5  A    between atoms: N_14  and  C_15 
REMARK    6  A    between atoms: C_23  and  C_24 
REMARK    7  A    between atoms: C_24  and  O_25 
REMARK    8  A    between atoms: C_27  and  O_28 
ROOT
HETATM    1  C           1      20.267  47.954  48.185  0.00  0.00     0.056 C 
HETATM    2  C           1      20.279  50.995  48.154  0.00  0.00     0.055 C 
HETATM    3  C           1      19.045  50.141  47.778  0.00  0.00     0.012 C 
HETATM    4  C           1      23.460  49.288  48.592  0.00  0.00     0.173 A 
HETATM    5  S           1      22.893  50.632  48.470  0.00  0.00    -0.055 SA
HETATM    6  C           1      21.516  50.154  48.281  0.00  0.00     0.012 A 
HETATM    7  C           1      21.492  48.818  48.297  0.00  0.00     0.056 A 
HETATM    8  C           1      19.003  48.792  48.575  0.00  0.00    -0.030 C 
HETATM    9  C           1      19.009  49.002  50.104  0.00  0.00     0.016 C 
HETATM   10  C           1      17.722  50.969  47.628  0.00  0.00     0.008 C 
HETATM   11  C           1      17.897  51.967  46.448  0.00  0.00     0.020 C 
HETATM   12  C           1      16.576  50.008  47.251  0.00  0.00     0.128 C 
HETATM   13  C           1      16.455  48.812  48.187  0.00  0.00     0.033 C 
HETATM   14  C           1      17.745  47.989  48.165  0.00  0.00     0.013 C 
HETATM   15  N           1      22.638  48.335  48.480  0.00  0.00    -0.227 NA
ENDROOT
BRANCH   1  16
HETATM   16  C           1      20.478  46.621  48.939  0.00  0.00     0.114 C 
BRANCH  16  17
HETATM   17  C           1      20.632  45.425  48.003  0.00  0.00     0.218 C 
HETATM   18  N           1      21.851  45.309  47.396  0.00  0.00    -0.355 N 
HETATM   19  H           1      22.548  46.051  47.491  0.00  0.00     0.162 HD
HETATM   20  O           1      19.730  44.646  47.821  0.00  0.00    -0.274 OA
BRANCH  18  21
HETATM   21  C           1      22.181  44.180  46.523  0.00  0.00     0.187 C 
BRANCH  21  22
HETATM   22  C           1      22.747  43.074  47.366  0.00  0.00     0.070 A 
HETATM   23  C           1      23.961  43.062  47.936  0.00  0.00     0.036 A 
HETATM   24  C           1      24.012  41.901  48.598  0.00  0.00     0.027 A 
HETATM   25  C           1      22.823  41.337  48.352  0.00  0.00     0.142 A 
HETATM   26  O           1      22.121  42.045  47.632  0.00  0.00    -0.325 OA
ENDBRANCH  21  22
ENDBRANCH  18  21
ENDBRANCH  16  17
ENDBRANCH   1  16
BRANCH  10  27
HETATM   27  C           1      17.358  51.797  48.875  0.00  0.00     0.176 C 
BRANCH  27  28
HETATM   28  O           1      16.680  52.992  48.532  0.00  0.00    -0.400 OA
HETATM   29  H           1      16.573  53.542  49.309  0.00  0.00     0.209 HD
ENDBRANCH  27  28
ENDBRANCH  10  27
BRANCH   4  30
HETATM   30  N           1      24.755  49.143  48.935  0.00  0.00    -0.306 N 
HETATM   31  C           1      25.855  49.638  48.294  0.00  0.00     0.219 C 
HETATM   32  C           1      27.166  49.333  48.990  0.00  0.00     0.117 C 
HETATM   33  O           1      25.792  50.257  47.261  0.00  0.00    -0.274 OA
HETATM   34  H           1      24.874  48.545  49.739  0.00  0.00     0.171 HD
ENDBRANCH   4  30
BRANCH  12  35
HETATM   35  O           1      15.338  50.677  47.238  0.00  0.00    -0.395 OA
HETATM   36  H           1      14.968  50.705  48.122  0.00  0.00     0.210 HD
ENDBRANCH  12  35
TORSDOF 8
ENDMDL
MODEL 10
REMARK VINA RESULT:      -7.7      3.641      6.519
REMARK  8 active torsions:
REMARK  status: ('A' for Active; 'I' for Inactive)
REMARK    1  A    between atoms: C_1  and  C_15 
REMARK    2  A    between atoms: C_2  and  C_5 
REMARK    3  A    between atoms: C_5  and  C_13 
REMARK       I    between atoms: C_7  and  N_8 
REMARK    4  A    between atoms: N_8  and  C_9 
REMARK       I    between atoms: C_13  and  N_14 
REMARK    5  A    between atoms: N_14  and  C_15 
REMARK    6  A    between atoms: C_23  and  C_24 
REMARK    7  A    between atoms: C_24  and  O_25 
REMARK    8  A    between atoms: C_27  and  O_28 
ROOT
HETATM    1  C           1      24.947  44.729  49.580  0.00  0.00     0.056 C 
HETATM    2  C           1      24.857  42.015  48.210  0.00  0.00     0.055 C 
HETATM    3  C           1      25.992  42.454  49.165  0.00  0.00     0.012 C 
HETATM    4  C           1      22.459  44.536  47.150  0.00  0.00     0.173 A 
HETATM    5  S           1      22.883  43.167  46.853  0.00  0.00    -0.055 SA
HETATM    6  C           1      23.963  43.166  47.849  0.00  0.00     0.012 A 
HETATM    7  C           1      24.014  44.351  48.465  0.00  0.00     0.056 A 
HETATM    8  C           1      25.478  43.430  50.276  0.00  0.00    -0.030 C 
HETATM    9  C           1      24.333  42.825  51.118  0.00  0.00     0.016 C 
HETATM   10  C           1      26.962  41.291  49.572  0.00  0.00     0.008 C 
HETATM   11  C           1      27.685  40.780  48.293  0.00  0.00     0.020 C 
HETATM   12  C           1      28.043  41.855  50.516  0.00  0.00     0.128 C 
HETATM   13  C           1      27.473  42.629  51.698  0.00  0.00     0.033 C 
HETATM   14  C           1      26.652  43.823  51.204  0.00  0.00     0.013 C 
HETATM   15  N           1      23.127  45.134  48.040  0.00  0.00    -0.227 NA
ENDROOT
BRANCH   1  16
HETATM   16  C           1      24.294  45.791  50.494  0.00  0.00     0.114 C 
BRANCH  16  17
HETATM   17  C           1      24.783  47.208  50.204  0.00  0.00     0.218 C 
HETATM   18  N           1      24.170  47.838  49.157  0.00  0.00    -0.355 N 
HETATM   19  H           1      23.518  47.326  48.558  0.00  0.00     0.162 HD
HETATM   20  O           1      25.653  47.722  50.862  0.00  0.00    -0.274 OA
BRANCH  18  21
HETATM   21  C           1      24.476  49.223  48.795  0.00  0.00     0.187 C 
BRANCH  21  22
HETATM   22  C           1      23.224  50.041  48.934  0.00  0.00     0.070 A 
HETATM   23  C           1      22.505  50.554  47.924  0.00  0.00     0.036 A 
HETATM   24  C           1      21.481  51.175  48.521  0.00  0.00     0.027 A 
HETATM   25  C           1      21.698  50.972  49.826  0.00  0.00     0.142 A 
HETATM   26  O           1      22.719  50.315  50.024  0.00  0.00    -0.325 OA
ENDBRANCH  21  22
ENDBRANCH  18  21
ENDBRANCH  16  17
ENDBRANCH   1  16
BRANCH  10  27
HETATM   27  C           1      26.253  40.080  50.210  0.00  0.00     0.176 C 
BRANCH  27  28
HETATM   28  O           1      26.328  40.114  51.624  0.00  0.00    -0.400 OA
HETATM   29  H           1      25.942  39.317  51.991  0.00  0.00     0.209 HD
ENDBRANCH  27  28
ENDBRANCH  10  27
BRANCH   4  30
HETATM   30  N           1      21.342  45.024  46.576  0.00  0.00    -0.306 N 
HETATM   31  C           1      21.218  45.628  45.357  0.00  0.00     0.219 C 
HETATM   32  C           1      19.795  46.005  44.996  0.00  0.00     0.117 C 
HETATM   33  O           1      22.156  45.850  44.634  0.00  0.00    -0.274 OA
HETATM   34  H           1      20.539  44.957  47.184  0.00  0.00     0.171 HD
ENDBRANCH   4  30
BRANCH  12  35
HETATM   35  O           1      28.860  40.827  51.024  0.00  0.00    -0.395 OA
HETATM   36  H           1      28.597  40.608  51.920  0.00  0.00     0.210 HD
ENDBRANCH  12  35
TORSDOF 8
ENDMDL
