MODEL 1
REMARK VINA RESULT:      -8.0      0.000      0.000
REMARK  5 active torsions:
REMARK  status: ('A' for Active; 'I' for Inactive)
REMARK    1  A    between atoms: C_4  and  C_5 
REMARK    2  A    between atoms: C_5  and  N_6 
REMARK    3  A    between atoms: N_6  and  C_9 
REMARK    4  A    between atoms: C_12  and  O_13 
REMARK    5  A    between atoms: O_13  and  C_14 
ROOT
HETATM    1  C   UNL     1      28.433  44.378  53.412  1.00  0.00     0.164 A 
HETATM    2  N   UNL     1      28.457  45.177  54.499  1.00  0.00    -0.236 NA
HETATM    3  C   UNL     1      29.371  44.871  55.455  1.00  0.00     0.142 A 
HETATM    4  C   UNL     1      30.250  43.799  55.376  1.00  0.00     0.062 A 
HETATM    5  C   UNL     1      31.185  43.544  56.424  1.00  0.00     0.101 C 
HETATM    6  N   UNL     1      31.942  43.339  57.278  1.00  0.00    -0.191 NA
HETATM    7  C   UNL     1      30.187  42.986  54.244  1.00  0.00     0.028 A 
HETATM    8  C   UNL     1      29.261  43.278  53.245  1.00  0.00     0.059 A 
ENDROOT
BRANCH   1   9
HETATM    9  O   UNL     1      27.526  44.619  52.402  1.00  0.00    -0.329 OA
BRANCH   9  10
HETATM   10  C   UNL     1      26.279  45.188  52.822  1.00  0.00     0.130 C 
HETATM   11  C   UNL     1      26.265  46.634  52.302  1.00  0.00     0.034 C 
HETATM   12  C   UNL     1      26.322  46.692  50.772  1.00  0.00     0.035 C 
HETATM   13  C   UNL     1      25.225  45.863  50.095  1.00  0.00     0.186 C 
HETATM   14  C   UNL     1      25.139  44.445  50.672  1.00  0.00     0.035 C 
HETATM   15  C   UNL     1      25.109  44.409  52.203  1.00  0.00     0.034 C 
BRANCH  13  16
HETATM   16  N   UNL     1      23.895  46.530  50.251  1.00  0.00    -0.065 N 
HETATM   17  H   UNL     1      23.918  47.343  50.880  1.00  0.00     0.278 HD
HETATM   18  H   UNL     1      23.223  45.899  50.718  1.00  0.00     0.278 HD
BRANCH  16  19
HETATM   19  C   UNL     1      23.200  46.954  48.980  1.00  0.00     0.299 C 
BRANCH  19  20
HETATM   20  C   UNL     1      22.963  48.430  48.986  1.00  0.00     0.101 A 
HETATM   21  N   UNL     1      21.777  48.959  49.216  1.00  0.00    -0.249 NA
HETATM   22  C   UNL     1      21.870  50.345  49.149  1.00  0.00     0.038 A 
HETATM   23  C   UNL     1      20.653  51.170  49.377  1.00  0.00     0.071 C 
HETATM   24  C   UNL     1      23.135  50.826  48.865  1.00  0.00     0.078 A 
HETATM   25  S   UNL     1      24.237  49.528  48.679  1.00  0.00    -0.083 SA
ENDBRANCH  19  20
ENDBRANCH  16  19
ENDBRANCH  13  16
ENDBRANCH   9  10
ENDBRANCH   1   9
TORSDOF 5
ENDMDL
MODEL 2
REMARK VINA RESULT:      -7.8      1.326      1.536
REMARK  5 active torsions:
REMARK  status: ('A' for Active; 'I' for Inactive)
REMARK    1  A    between atoms: C_4  and  C_5 
REMARK    2  A    between atoms: C_5  and  N_6 
REMARK    3  A    between atoms: N_6  and  C_9 
REMARK    4  A    between atoms: C_12  and  O_13 
REMARK    5  A    between atoms: O_13  and  C_14 
ROOT
HETATM    1  C   UNL     1      28.360  44.155  53.061  1.00  0.00     0.164 A 
HETATM    2  N   UNL     1      28.259  44.878  54.197  1.00  0.00    -0.236 NA
HETATM    3  C   UNL     1      29.165  44.607  55.170  1.00  0.00     0.142 A 
HETATM    4  C   UNL     1      30.157  43.641  55.061  1.00  0.00     0.062 A 
HETATM    5  C   UNL     1      31.076  43.417  56.131  1.00  0.00     0.101 C 
HETATM    6  N   UNL     1      31.819  43.236  57.002  1.00  0.00    -0.191 NA
HETATM    7  C   UNL     1      30.223  42.903  53.880  1.00  0.00     0.028 A 
HETATM    8  C   UNL     1      29.307  43.162  52.862  1.00  0.00     0.059 A 
ENDROOT
BRANCH   1   9
HETATM    9  O   UNL     1      27.469  44.366  52.031  1.00  0.00    -0.329 OA
BRANCH   9  10
HETATM   10  C   UNL     1      26.363  45.223  52.343  1.00  0.00     0.130 C 
HETATM   11  C   UNL     1      26.297  46.272  51.222  1.00  0.00     0.034 C 
HETATM   12  C   UNL     1      26.031  45.632  49.856  1.00  0.00     0.035 C 
HETATM   13  C   UNL     1      24.783  44.744  49.838  1.00  0.00     0.186 C 
HETATM   14  C   UNL     1      24.765  43.758  51.013  1.00  0.00     0.035 C 
HETATM   15  C   UNL     1      25.058  44.414  52.365  1.00  0.00     0.034 C 
BRANCH  13  16
HETATM   16  N   UNL     1      23.545  45.581  49.889  1.00  0.00    -0.065 N 
HETATM   17  H   UNL     1      23.715  46.541  50.215  1.00  0.00     0.278 HD
HETATM   18  H   UNL     1      22.885  45.213  50.595  1.00  0.00     0.278 HD
BRANCH  16  19
HETATM   19  C   UNL     1      22.734  45.663  48.619  1.00  0.00     0.299 C 
BRANCH  19  20
HETATM   20  C   UNL     1      22.297  47.072  48.374  1.00  0.00     0.101 A 
HETATM   21  N   UNL     1      23.149  48.064  48.207  1.00  0.00    -0.249 NA
HETATM   22  C   UNL     1      22.448  49.247  48.008  1.00  0.00     0.038 A 
HETATM   23  C   UNL     1      23.198  50.514  47.792  1.00  0.00     0.071 C 
HETATM   24  C   UNL     1      21.071  49.114  48.033  1.00  0.00     0.078 A 
HETATM   25  S   UNL     1      20.637  47.480  48.309  1.00  0.00    -0.083 SA
ENDBRANCH  19  20
ENDBRANCH  16  19
ENDBRANCH  13  16
ENDBRANCH   9  10
ENDBRANCH   1   9
TORSDOF 5
ENDMDL
MODEL 3
REMARK VINA RESULT:      -7.6      1.480      1.934
REMARK  5 active torsions:
REMARK  status: ('A' for Active; 'I' for Inactive)
REMARK    1  A    between atoms: C_4  and  C_5 
REMARK    2  A    between atoms: C_5  and  N_6 
REMARK    3  A    between atoms: N_6  and  C_9 
REMARK    4  A    between atoms: C_12  and  O_13 
REMARK    5  A    between atoms: O_13  and  C_14 
ROOT
HETATM    1  C   UNL     1      28.349  44.516  53.599  1.00  0.00     0.164 A 
HETATM    2  N   UNL     1      28.443  45.331  54.671  1.00  0.00    -0.236 NA
HETATM    3  C   UNL     1      29.376  45.003  55.601  1.00  0.00     0.142 A 
HETATM    4  C   UNL     1      30.207  43.895  55.510  1.00  0.00     0.062 A 
HETATM    5  C   UNL     1      31.167  43.619  56.531  1.00  0.00     0.101 C 
HETATM    6  N   UNL     1      31.944  43.396  57.362  1.00  0.00    -0.191 NA
HETATM    7  C   UNL     1      30.074  43.067  54.396  1.00  0.00     0.028 A 
HETATM    8  C   UNL     1      29.126  43.381  53.424  1.00  0.00     0.059 A 
ENDROOT
BRANCH   1   9
HETATM    9  O   UNL     1      27.419  44.779  52.616  1.00  0.00    -0.329 OA
BRANCH   9  10
HETATM   10  C   UNL     1      26.255  45.495  53.050  1.00  0.00     0.130 C 
HETATM   11  C   UNL     1      26.353  46.897  52.431  1.00  0.00     0.034 C 
HETATM   12  C   UNL     1      26.337  46.849  50.900  1.00  0.00     0.035 C 
HETATM   13  C   UNL     1      25.132  46.091  50.333  1.00  0.00     0.186 C 
HETATM   14  C   UNL     1      24.940  44.729  51.012  1.00  0.00     0.035 C 
HETATM   15  C   UNL     1      24.985  44.798  52.541  1.00  0.00     0.034 C 
BRANCH  13  16
HETATM   16  N   UNL     1      23.882  46.896  50.500  1.00  0.00    -0.065 N 
HETATM   17  H   UNL     1      23.724  47.205  51.468  1.00  0.00     0.278 HD
HETATM   18  H   UNL     1      23.048  46.318  50.305  1.00  0.00     0.278 HD
BRANCH  16  19
HETATM   19  C   UNL     1      23.730  48.099  49.602  1.00  0.00     0.299 C 
BRANCH  19  20
HETATM   20  C   UNL     1      22.514  47.954  48.744  1.00  0.00     0.101 A 
HETATM   21  N   UNL     1      22.457  47.120  47.725  1.00  0.00    -0.249 NA
HETATM   22  C   UNL     1      21.209  47.215  47.120  1.00  0.00     0.038 A 
HETATM   23  C   UNL     1      20.902  46.364  45.940  1.00  0.00     0.071 C 
HETATM   24  C   UNL     1      20.352  48.130  47.705  1.00  0.00     0.078 A 
HETATM   25  S   UNL     1      21.112  48.889  49.039  1.00  0.00    -0.083 SA
ENDBRANCH  19  20
ENDBRANCH  16  19
ENDBRANCH  13  16
ENDBRANCH   9  10
ENDBRANCH   1   9
TORSDOF 5
ENDMDL
MODEL 4
REMARK VINA RESULT:      -7.5      4.610     11.732
REMARK  5 active torsions:
REMARK  status: ('A' for Active; 'I' for Inactive)
REMARK    1  A    between atoms: C_4  and  C_5 
REMARK    2  A    between atoms: C_5  and  N_6 
REMARK    3  A    between atoms: N_6  and  C_9 
REMARK    4  A    between atoms: C_12  and  O_13 
REMARK    5  A    between atoms: O_13  and  C_14 
ROOT
HETATM    1  C   UNL     1      17.574  51.680  48.945  1.00  0.00     0.164 A 
HETATM    2  N   UNL     1      16.433  50.983  48.758  1.00  0.00    -0.236 NA
HETATM    3  C   UNL     1      15.298  51.535  49.259  1.00  0.00     0.142 A 
HETATM    4  C   UNL     1      15.258  52.742  49.944  1.00  0.00     0.062 A 
HETATM    5  C   UNL     1      14.021  53.258  50.438  1.00  0.00     0.101 C 
HETATM    6  N   UNL     1      13.016  53.673  50.840  1.00  0.00    -0.191 NA
HETATM    7  C   UNL     1      16.458  53.428  50.130  1.00  0.00     0.028 A 
HETATM    8  C   UNL     1      17.638  52.886  49.624  1.00  0.00     0.059 A 
ENDROOT
BRANCH   1   9
HETATM    9  O   UNL     1      18.769  51.179  48.473  1.00  0.00    -0.329 OA
BRANCH   9  10
HETATM   10  C   UNL     1      19.871  51.265  49.385  1.00  0.00     0.130 C 
HETATM   11  C   UNL     1      19.748  50.059  50.329  1.00  0.00     0.034 C 
HETATM   12  C   UNL     1      19.858  48.730  49.576  1.00  0.00     0.035 C 
HETATM   13  C   UNL     1      21.127  48.622  48.725  1.00  0.00     0.186 C 
HETATM   14  C   UNL     1      21.339  49.864  47.851  1.00  0.00     0.035 C 
HETATM   15  C   UNL     1      21.199  51.182  48.619  1.00  0.00     0.034 C 
BRANCH  13  16
HETATM   16  N   UNL     1      22.327  48.434  49.598  1.00  0.00    -0.065 N 
HETATM   17  H   UNL     1      22.122  47.930  50.470  1.00  0.00     0.278 HD
HETATM   18  H   UNL     1      22.678  49.345  49.936  1.00  0.00     0.278 HD
BRANCH  16  19
HETATM   19  C   UNL     1      23.527  47.777  48.960  1.00  0.00     0.299 C 
BRANCH  19  20
HETATM   20  C   UNL     1      24.329  47.049  49.992  1.00  0.00     0.101 A 
HETATM   21  N   UNL     1      24.804  47.640  51.071  1.00  0.00    -0.249 NA
HETATM   22  C   UNL     1      25.508  46.714  51.832  1.00  0.00     0.038 A 
HETATM   23  C   UNL     1      26.140  47.146  53.107  1.00  0.00     0.071 C 
HETATM   24  C   UNL     1      25.547  45.438  51.298  1.00  0.00     0.078 A 
HETATM   25  S   UNL     1      24.687  45.386  49.818  1.00  0.00    -0.083 SA
ENDBRANCH  19  20
ENDBRANCH  16  19
ENDBRANCH  13  16
ENDBRANCH   9  10
ENDBRANCH   1   9
TORSDOF 5
ENDMDL
MODEL 5
REMARK VINA RESULT:      -7.2      6.807      9.863
REMARK  5 active torsions:
REMARK  status: ('A' for Active; 'I' for Inactive)
REMARK    1  A    between atoms: C_4  and  C_5 
REMARK    2  A    between atoms: C_5  and  N_6 
REMARK    3  A    between atoms: N_6  and  C_9 
REMARK    4  A    between atoms: C_12  and  O_13 
REMARK    5  A    between atoms: O_13  and  C_14 
ROOT
HETATM    1  C   UNL     1      21.774  49.613  48.628  1.00  0.00     0.164 A 
HETATM    2  N   UNL     1      22.403  48.568  49.206  1.00  0.00    -0.236 NA
HETATM    3  C   UNL     1      23.760  48.588  49.181  1.00  0.00     0.142 A 
HETATM    4  C   UNL     1      24.511  49.599  48.597  1.00  0.00     0.062 A 
HETATM    5  C   UNL     1      25.938  49.549  48.615  1.00  0.00     0.101 C 
HETATM    6  N   UNL     1      27.097  49.504  48.629  1.00  0.00    -0.191 NA
HETATM    7  C   UNL     1      23.829  50.657  47.997  1.00  0.00     0.028 A 
HETATM    8  C   UNL     1      22.435  50.663  48.010  1.00  0.00     0.059 A 
ENDROOT
BRANCH   1   9
HETATM    9  O   UNL     1      20.397  49.659  48.605  1.00  0.00    -0.329 OA
BRANCH   9  10
HETATM   10  C   UNL     1      19.773  49.965  49.859  1.00  0.00     0.130 C 
HETATM   11  C   UNL     1      19.776  51.497  49.982  1.00  0.00     0.034 C 
HETATM   12  C   UNL     1      18.958  52.161  48.870  1.00  0.00     0.035 C 
HETATM   13  C   UNL     1      17.524  51.629  48.777  1.00  0.00     0.186 C 
HETATM   14  C   UNL     1      17.480  50.097  48.765  1.00  0.00     0.035 C 
HETATM   15  C   UNL     1      18.325  49.453  49.869  1.00  0.00     0.034 C 
BRANCH  13  16
HETATM   16  N   UNL     1      16.705  52.128  49.925  1.00  0.00    -0.065 N 
HETATM   17  H   UNL     1      17.017  53.040  50.282  1.00  0.00     0.278 HD
HETATM   18  H   UNL     1      16.815  51.511  50.746  1.00  0.00     0.278 HD
BRANCH  16  19
HETATM   19  C   UNL     1      15.214  52.207  49.705  1.00  0.00     0.299 C 
BRANCH  19  20
HETATM   20  C   UNL     1      14.762  53.632  49.723  1.00  0.00     0.101 A 
HETATM   21  N   UNL     1      14.389  54.274  48.633  1.00  0.00    -0.249 NA
HETATM   22  C   UNL     1      14.032  55.576  48.965  1.00  0.00     0.038 A 
HETATM   23  C   UNL     1      13.571  56.501  47.895  1.00  0.00     0.071 C 
HETATM   24  C   UNL     1      14.152  55.884  50.308  1.00  0.00     0.078 A 
HETATM   25  S   UNL     1      14.717  54.523  51.182  1.00  0.00    -0.083 SA
ENDBRANCH  19  20
ENDBRANCH  16  19
ENDBRANCH  13  16
ENDBRANCH   9  10
ENDBRANCH   1   9
TORSDOF 5
ENDMDL
MODEL 6
REMARK VINA RESULT:      -7.2      1.838      2.494
REMARK  5 active torsions:
REMARK  status: ('A' for Active; 'I' for Inactive)
REMARK    1  A    between atoms: C_4  and  C_5 
REMARK    2  A    between atoms: C_5  and  N_6 
REMARK    3  A    between atoms: N_6  and  C_9 
REMARK    4  A    between atoms: C_12  and  O_13 
REMARK    5  A    between atoms: O_13  and  C_14 
ROOT
HETATM    1  C   UNL     1      28.348  44.547  53.887  1.00  0.00     0.164 A 
HETATM    2  N   UNL     1      28.923  43.331  53.774  1.00  0.00    -0.236 NA
HETATM    3  C   UNL     1      29.878  43.025  54.689  1.00  0.00     0.142 A 
HETATM    4  C   UNL     1      30.288  43.883  55.700  1.00  0.00     0.062 A 
HETATM    5  C   UNL     1      31.299  43.486  56.627  1.00  0.00     0.101 C 
HETATM    6  N   UNL     1      32.122  43.161  57.377  1.00  0.00    -0.191 NA
HETATM    7  C   UNL     1      29.683  45.137  55.779  1.00  0.00     0.028 A 
HETATM    8  C   UNL     1      28.697  45.477  54.854  1.00  0.00     0.059 A 
ENDROOT
BRANCH   1   9
HETATM    9  O   UNL     1      27.377  44.934  52.989  1.00  0.00    -0.329 OA
BRANCH   9  10
HETATM   10  C   UNL     1      26.985  43.933  52.041  1.00  0.00     0.130 C 
HETATM   11  C   UNL     1      25.457  43.810  52.147  1.00  0.00     0.034 C 
HETATM   12  C   UNL     1      24.751  45.118  51.775  1.00  0.00     0.035 C 
HETATM   13  C   UNL     1      25.156  45.650  50.396  1.00  0.00     0.186 C 
HETATM   14  C   UNL     1      26.679  45.680  50.218  1.00  0.00     0.035 C 
HETATM   15  C   UNL     1      27.366  44.371  50.620  1.00  0.00     0.034 C 
BRANCH  13  16
HETATM   16  N   UNL     1      24.558  44.809  49.314  1.00  0.00    -0.065 N 
HETATM   17  H   UNL     1      24.971  43.869  49.253  1.00  0.00     0.278 HD
HETATM   18  H   UNL     1      24.765  45.210  48.384  1.00  0.00     0.278 HD
BRANCH  16  19
HETATM   19  C   UNL     1      23.058  44.650  49.335  1.00  0.00     0.299 C 
BRANCH  19  20
HETATM   20  C   UNL     1      22.413  45.708  48.498  1.00  0.00     0.101 A 
HETATM   21  N   UNL     1      22.563  46.995  48.738  1.00  0.00    -0.249 NA
HETATM   22  C   UNL     1      21.842  47.726  47.801  1.00  0.00     0.038 A 
HETATM   23  C   UNL     1      21.857  49.213  47.865  1.00  0.00     0.071 C 
HETATM   24  C   UNL     1      21.159  46.962  46.872  1.00  0.00     0.078 A 
HETATM   25  S   UNL     1      21.420  45.295  47.168  1.00  0.00    -0.083 SA
ENDBRANCH  19  20
ENDBRANCH  16  19
ENDBRANCH  13  16
ENDBRANCH   9  10
ENDBRANCH   1   9
TORSDOF 5
ENDMDL
MODEL 7
REMARK VINA RESULT:      -7.1      3.049      9.273
REMARK  5 active torsions:
REMARK  status: ('A' for Active; 'I' for Inactive)
REMARK    1  A    between atoms: C_4  and  C_5 
REMARK    2  A    between atoms: C_5  and  N_6 
REMARK    3  A    between atoms: N_6  and  C_9 
REMARK    4  A    between atoms: C_12  and  O_13 
REMARK    5  A    between atoms: O_13  and  C_14 
ROOT
HETATM    1  C   UNL     1      23.424  48.743  48.983  1.00  0.00     0.164 A 
HETATM    2  N   UNL     1      22.139  48.365  49.152  1.00  0.00    -0.236 NA
HETATM    3  C   UNL     1      21.199  49.333  49.001  1.00  0.00     0.142 A 
HETATM    4  C   UNL     1      21.488  50.657  48.700  1.00  0.00     0.062 A 
HETATM    5  C   UNL     1      20.440  51.616  48.554  1.00  0.00     0.101 C 
HETATM    6  N   UNL     1      19.588  52.393  48.439  1.00  0.00    -0.191 NA
HETATM    7  C   UNL     1      22.827  51.015  48.547  1.00  0.00     0.028 A 
HETATM    8  C   UNL     1      23.814  50.041  48.693  1.00  0.00     0.059 A 
ENDROOT
BRANCH   1   9
HETATM    9  O   UNL     1      24.436  47.819  49.129  1.00  0.00    -0.329 OA
BRANCH   9  10
HETATM   10  C   UNL     1      24.481  47.156  50.399  1.00  0.00     0.130 C 
HETATM   11  C   UNL     1      23.916  45.745  50.172  1.00  0.00     0.034 C 
HETATM   12  C   UNL     1      24.767  44.940  49.186  1.00  0.00     0.035 C 
HETATM   13  C   UNL     1      26.246  44.871  49.581  1.00  0.00     0.186 C 
HETATM   14  C   UNL     1      26.812  46.255  49.924  1.00  0.00     0.035 C 
HETATM   15  C   UNL     1      25.932  47.052  50.891  1.00  0.00     0.034 C 
BRANCH  13  16
HETATM   16  N   UNL     1      26.431  43.967  50.758  1.00  0.00    -0.065 N 
HETATM   17  H   UNL     1      25.707  43.242  50.832  1.00  0.00     0.278 HD
HETATM   18  H   UNL     1      26.321  44.493  51.642  1.00  0.00     0.278 HD
BRANCH  16  19
HETATM   19  C   UNL     1      27.774  43.291  50.884  1.00  0.00     0.299 C 
BRANCH  19  20
HETATM   20  C   UNL     1      28.289  43.416  52.282  1.00  0.00     0.101 A 
HETATM   21  N   UNL     1      28.010  44.448  53.053  1.00  0.00    -0.249 NA
HETATM   22  C   UNL     1      28.633  44.284  54.286  1.00  0.00     0.038 A 
HETATM   23  C   UNL     1      28.463  45.326  55.334  1.00  0.00     0.071 C 
HETATM   24  C   UNL     1      29.374  43.122  54.409  1.00  0.00     0.078 A 
HETATM   25  S   UNL     1      29.294  42.210  52.962  1.00  0.00    -0.083 SA
ENDBRANCH  19  20
ENDBRANCH  16  19
ENDBRANCH  13  16
ENDBRANCH   9  10
ENDBRANCH   1   9
TORSDOF 5
ENDMDL
MODEL 8
REMARK VINA RESULT:      -7.0      3.166      4.330
REMARK  5 active torsions:
REMARK  status: ('A' for Active; 'I' for Inactive)
REMARK    1  A    between atoms: C_4  and  C_5 
REMARK    2  A    between atoms: C_5  and  N_6 
REMARK    3  A    between atoms: N_6  and  C_9 
REMARK    4  A    between atoms: C_12  and  O_13 
REMARK    5  A    between atoms: O_13  and  C_14 
ROOT
HETATM    1  C   UNL     1      28.688  44.233  53.636  1.00  0.00     0.164 A 
HETATM    2  N   UNL     1      29.499  43.162  53.510  1.00  0.00    -0.236 NA
HETATM    3  C   UNL     1      30.376  42.944  54.524  1.00  0.00     0.142 A 
HETATM    4  C   UNL     1      30.482  43.753  55.647  1.00  0.00     0.062 A 
HETATM    5  C   UNL     1      31.429  43.454  56.673  1.00  0.00     0.101 C 
HETATM    6  N   UNL     1      32.200  43.210  57.503  1.00  0.00    -0.191 NA
HETATM    7  C   UNL     1      29.637  44.859  55.737  1.00  0.00     0.028 A 
HETATM    8  C   UNL     1      28.725  45.106  54.713  1.00  0.00     0.059 A 
ENDROOT
BRANCH   1   9
HETATM    9  O   UNL     1      27.777  44.526  52.643  1.00  0.00    -0.329 OA
BRANCH   9  10
HETATM   10  C   UNL     1      26.649  43.644  52.568  1.00  0.00     0.130 C 
HETATM   11  C   UNL     1      25.444  44.436  53.099  1.00  0.00     0.034 C 
HETATM   12  C   UNL     1      25.144  45.667  52.238  1.00  0.00     0.035 C 
HETATM   13  C   UNL     1      24.959  45.334  50.754  1.00  0.00     0.186 C 
HETATM   14  C   UNL     1      26.091  44.448  50.220  1.00  0.00     0.035 C 
HETATM   15  C   UNL     1      26.392  43.238  51.109  1.00  0.00     0.034 C 
BRANCH  13  16
HETATM   16  N   UNL     1      23.654  44.637  50.533  1.00  0.00    -0.065 N 
HETATM   17  H   UNL     1      22.966  44.816  51.275  1.00  0.00     0.278 HD
HETATM   18  H   UNL     1      23.777  43.611  50.578  1.00  0.00     0.278 HD
BRANCH  16  19
HETATM   19  C   UNL     1      22.976  44.881  49.207  1.00  0.00     0.299 C 
BRANCH  19  20
HETATM   20  C   UNL     1      22.789  43.591  48.475  1.00  0.00     0.101 A 
HETATM   21  N   UNL     1      22.219  43.522  47.288  1.00  0.00    -0.249 NA
HETATM   22  C   UNL     1      22.182  42.196  46.871  1.00  0.00     0.038 A 
HETATM   23  C   UNL     1      21.583  41.863  45.550  1.00  0.00     0.071 C 
HETATM   24  C   UNL     1      22.729  41.293  47.765  1.00  0.00     0.078 A 
HETATM   25  S   UNL     1      23.304  42.109  49.156  1.00  0.00    -0.083 SA
ENDBRANCH  19  20
ENDBRANCH  16  19
ENDBRANCH  13  16
ENDBRANCH   9  10
ENDBRANCH   1   9
TORSDOF 5
ENDMDL
MODEL 9
REMARK VINA RESULT:      -6.9      7.139     11.059
REMARK  5 active torsions:
REMARK  status: ('A' for Active; 'I' for Inactive)
REMARK    1  A    between atoms: C_4  and  C_5 
REMARK    2  A    between atoms: C_5  and  N_6 
REMARK    3  A    between atoms: N_6  and  C_9 
REMARK    4  A    between atoms: C_12  and  O_13 
REMARK    5  A    between atoms: O_13  and  C_14 
ROOT
HETATM    1  C   UNL     1      20.295  50.226  48.513  1.00  0.00     0.164 A 
HETATM    2  N   UNL     1      20.583  48.920  48.695  1.00  0.00    -0.236 NA
HETATM    3  C   UNL     1      21.892  48.609  48.880  1.00  0.00     0.142 A 
HETATM    4  C   UNL     1      22.920  49.542  48.880  1.00  0.00     0.062 A 
HETATM    5  C   UNL     1      24.273  49.135  49.085  1.00  0.00     0.101 C 
HETATM    6  N   UNL     1      25.371  48.801  49.250  1.00  0.00    -0.191 NA
HETATM    7  C   UNL     1      22.587  50.881  48.675  1.00  0.00     0.028 A 
HETATM    8  C   UNL     1      21.251  51.230  48.485  1.00  0.00     0.059 A 
ENDROOT
BRANCH   1   9
HETATM    9  O   UNL     1      18.990  50.620  48.309  1.00  0.00    -0.329 OA
BRANCH   9  10
HETATM   10  C   UNL     1      18.776  52.036  48.273  1.00  0.00     0.130 C 
HETATM   11  C   UNL     1      17.812  52.300  47.105  1.00  0.00     0.034 C 
HETATM   12  C   UNL     1      16.456  51.620  47.318  1.00  0.00     0.035 C 
HETATM   13  C   UNL     1      15.800  51.988  48.653  1.00  0.00     0.186 C 
HETATM   14  C   UNL     1      16.772  51.842  49.829  1.00  0.00     0.035 C 
HETATM   15  C   UNL     1      18.131  52.507  49.585  1.00  0.00     0.034 C 
BRANCH  13  16
HETATM   16  N   UNL     1      15.292  53.394  48.616  1.00  0.00    -0.065 N 
HETATM   17  H   UNL     1      15.024  53.706  47.674  1.00  0.00     0.278 HD
HETATM   18  H   UNL     1      16.041  54.059  48.873  1.00  0.00     0.278 HD
BRANCH  16  19
HETATM   19  C   UNL     1      14.153  53.724  49.550  1.00  0.00     0.299 C 
BRANCH  19  20
HETATM   20  C   UNL     1      14.480  54.941  50.355  1.00  0.00     0.101 A 
HETATM   21  N   UNL     1      14.852  54.879  51.618  1.00  0.00    -0.249 NA
HETATM   22  C   UNL     1      15.078  56.165  52.096  1.00  0.00     0.038 A 
HETATM   23  C   UNL     1      15.513  56.355  53.506  1.00  0.00     0.071 C 
HETATM   24  C   UNL     1      14.864  57.171  51.171  1.00  0.00     0.078 A 
HETATM   25  S   UNL     1      14.374  56.504  49.671  1.00  0.00    -0.083 SA
ENDBRANCH  19  20
ENDBRANCH  16  19
ENDBRANCH  13  16
ENDBRANCH   9  10
ENDBRANCH   1   9
TORSDOF 5
ENDMDL
MODEL 10
REMARK VINA RESULT:      -6.9     17.573     19.960
REMARK  5 active torsions:
REMARK  status: ('A' for Active; 'I' for Inactive)
REMARK    1  A    between atoms: C_4  and  C_5 
REMARK    2  A    between atoms: C_5  and  N_6 
REMARK    3  A    between atoms: N_6  and  C_9 
REMARK    4  A    between atoms: C_12  and  O_13 
REMARK    5  A    between atoms: O_13  and  C_14 
ROOT
HETATM    1  C   UNL     1      37.526  46.453  65.316  1.00  0.00     0.164 A 
HETATM    2  N   UNL     1      38.085  46.918  66.453  1.00  0.00    -0.236 NA
HETATM    3  C   UNL     1      38.149  48.267  66.589  1.00  0.00     0.142 A 
HETATM    4  C   UNL     1      37.691  49.167  65.636  1.00  0.00     0.062 A 
HETATM    5  C   UNL     1      37.792  50.574  65.855  1.00  0.00     0.101 C 
HETATM    6  N   UNL     1      37.878  51.716  66.035  1.00  0.00    -0.191 NA
HETATM    7  C   UNL     1      37.132  48.652  64.466  1.00  0.00     0.028 A 
HETATM    8  C   UNL     1      37.051  47.270  64.301  1.00  0.00     0.059 A 
ENDROOT
BRANCH   1   9
HETATM    9  O   UNL     1      37.434  45.095  65.101  1.00  0.00    -0.329 OA
BRANCH   9  10
HETATM   10  C   UNL     1      38.648  44.360  65.298  1.00  0.00     0.130 C 
HETATM   11  C   UNL     1      38.253  42.876  65.349  1.00  0.00     0.034 C 
HETATM   12  C   UNL     1      37.622  42.406  64.035  1.00  0.00     0.035 C 
HETATM   13  C   UNL     1      38.497  42.690  62.810  1.00  0.00     0.186 C 
HETATM   14  C   UNL     1      39.001  44.138  62.788  1.00  0.00     0.035 C 
HETATM   15  C   UNL     1      39.605  44.594  64.120  1.00  0.00     0.034 C 
BRANCH  13  16
HETATM   16  N   UNL     1      39.675  41.767  62.783  1.00  0.00    -0.065 N 
HETATM   17  H   UNL     1      40.374  41.978  63.506  1.00  0.00     0.278 HD
HETATM   18  H   UNL     1      40.210  41.885  61.906  1.00  0.00     0.278 HD
BRANCH  16  19
HETATM   19  C   UNL     1      39.375  40.290  62.851  1.00  0.00     0.299 C 
BRANCH  19  20
HETATM   20  C   UNL     1      40.298  39.618  63.816  1.00  0.00     0.101 A 
HETATM   21  N   UNL     1      40.506  38.316  63.814  1.00  0.00    -0.249 NA
HETATM   22  C   UNL     1      41.403  37.990  64.825  1.00  0.00     0.038 A 
HETATM   23  C   UNL     1      41.798  36.569  65.021  1.00  0.00     0.071 C 
HETATM   24  C   UNL     1      41.849  39.066  65.571  1.00  0.00     0.078 A 
HETATM   25  S   UNL     1      41.140  40.518  65.002  1.00  0.00    -0.083 SA
ENDBRANCH  19  20
ENDBRANCH  16  19
ENDBRANCH  13  16
ENDBRANCH   9  10
ENDBRANCH   1   9
TORSDOF 5
ENDMDL
