MODEL 1
REMARK VINA RESULT:      -9.3      0.000      0.000
REMARK  5 active torsions:
REMARK  status: ('A' for Active; 'I' for Inactive)
REMARK    1  A    between atoms: N_3  and  C_4 
REMARK    2  A    between atoms: C_7  and  C_8 
REMARK       I    between atoms: C_8  and  N_9 
REMARK    3  A    between atoms: N_9  and  C_10 
REMARK    4  A    between atoms: C_11  and  N_12 
REMARK    5  A    between atoms: C_15  and  O_16 
ROOT
HETATM    1  C   UNL     1      25.763  47.102  53.034  1.00  0.00     0.256 C 
HETATM    2  N   UNL     1      25.715  46.581  51.766  1.00  0.00    -0.321 N 
HETATM    3  O   UNL     1      25.060  47.966  53.536  1.00  0.00    -0.267 OA
HETATM    4  H   UNL     1      26.368  45.846  51.507  1.00  0.00     0.169 HD
ENDROOT
BRANCH   2   5
HETATM    5  C   UNL     1      24.825  46.893  50.717  1.00  0.00     0.056 A 
HETATM    6  C   UNL     1      24.377  45.790  49.941  1.00  0.00     0.037 A 
HETATM    7  C   UNL     1      23.462  46.029  48.907  1.00  0.00     0.026 A 
HETATM    8  C   UNL     1      23.004  47.324  48.646  1.00  0.00     0.002 A 
HETATM    9  C   UNL     1      23.458  48.396  49.411  1.00  0.00     0.002 A 
HETATM   10  C   UNL     1      24.370  48.183  50.446  1.00  0.00     0.031 A 
BRANCH   6  11
HETATM   11  N   UNL     1      24.910  44.499  50.228  1.00  0.00    -0.281 NA
HETATM   12  C   UNL     1      26.171  44.288  49.487  1.00  0.00     0.098 C 
HETATM   13  C   UNL     1      26.869  43.054  50.061  1.00  0.00     0.046 C 
HETATM   14  C   UNL     1      25.958  41.828  50.023  1.00  0.00     0.120 C 
HETATM   15  C   UNL     1      24.591  42.116  50.642  1.00  0.00     0.046 C 
HETATM   16  C   UNL     1      23.968  43.379  50.049  1.00  0.00     0.098 C 
BRANCH  14  17
HETATM   17  O   UNL     1      25.778  41.399  48.673  1.00  0.00    -0.395 OA
HETATM   18  H   UNL     1      24.980  41.836  48.331  1.00  0.00     0.210 HD
ENDBRANCH  14  17
ENDBRANCH   6  11
ENDBRANCH   2   5
BRANCH   1  19
HETATM   19  C   UNL     1      26.822  46.487  53.855  1.00  0.00     0.032 A 
HETATM   20  C   UNL     1      26.841  45.101  54.010  1.00  0.00     0.019 A 
HETATM   21  C   UNL     1      27.866  44.508  54.748  1.00  0.00     0.031 A 
HETATM   22  C   UNL     1      28.870  45.298  55.331  1.00  0.00     0.039 A 
HETATM   23  C   UNL     1      28.832  46.692  55.178  1.00  0.00     0.031 A 
HETATM   24  C   UNL     1      27.807  47.288  54.436  1.00  0.00     0.019 A 
BRANCH  22  25
HETATM   25  N   UNL     1      29.918  44.676  56.077  1.00  0.00    -0.320 N 
HETATM   26  C   UNL     1      30.335  45.036  57.361  1.00  0.00     0.013 A 
HETATM   27  C   UNL     1      29.654  46.039  58.232  1.00  0.00     0.068 C 
HETATM   28  C   UNL     1      31.413  44.246  57.707  1.00  0.00     0.027 A 
HETATM   29  C   UNL     1      31.640  43.347  56.654  1.00  0.00     0.027 A 
HETATM   30  C   UNL     1      30.715  43.608  55.661  1.00  0.00     0.013 A 
HETATM   31  C   UNL     1      30.640  42.946  54.327  1.00  0.00     0.068 C 
ENDBRANCH  22  25
ENDBRANCH   1  19
TORSDOF 5
ENDMDL
MODEL 2
REMARK VINA RESULT:      -9.1      2.278      8.443
REMARK  5 active torsions:
REMARK  status: ('A' for Active; 'I' for Inactive)
REMARK    1  A    between atoms: N_3  and  C_4 
REMARK    2  A    between atoms: C_7  and  C_8 
REMARK       I    between atoms: C_8  and  N_9 
REMARK    3  A    between atoms: N_9  and  C_10 
REMARK    4  A    between atoms: C_11  and  N_12 
REMARK    5  A    between atoms: C_15  and  O_16 
ROOT
HETATM    1  C   UNL     1      25.132  44.014  51.306  1.00  0.00     0.256 C 
HETATM    2  N   UNL     1      26.473  44.032  51.595  1.00  0.00    -0.321 N 
HETATM    3  O   UNL     1      24.321  43.118  51.487  1.00  0.00    -0.267 OA
HETATM    4  H   UNL     1      27.011  44.872  51.396  1.00  0.00     0.169 HD
ENDROOT
BRANCH   2   5
HETATM    5  C   UNL     1      27.260  43.028  52.196  1.00  0.00     0.056 A 
HETATM    6  C   UNL     1      27.905  43.394  53.408  1.00  0.00     0.037 A 
HETATM    7  C   UNL     1      28.673  42.429  54.074  1.00  0.00     0.026 A 
HETATM    8  C   UNL     1      28.801  41.137  53.554  1.00  0.00     0.002 A 
HETATM    9  C   UNL     1      28.168  40.796  52.361  1.00  0.00     0.002 A 
HETATM   10  C   UNL     1      27.399  41.740  51.679  1.00  0.00     0.031 A 
BRANCH   6  11
HETATM   11  N   UNL     1      27.772  44.737  53.868  1.00  0.00    -0.281 NA
HETATM   12  C   UNL     1      28.970  45.139  54.633  1.00  0.00     0.098 C 
HETATM   13  C   UNL     1      28.936  46.657  54.824  1.00  0.00     0.046 C 
HETATM   14  C   UNL     1      27.639  47.108  55.492  1.00  0.00     0.120 C 
HETATM   15  C   UNL     1      26.408  46.540  54.786  1.00  0.00     0.046 C 
HETATM   16  C   UNL     1      26.524  45.028  54.598  1.00  0.00     0.098 C 
BRANCH  14  17
HETATM   17  O   UNL     1      27.627  46.692  56.858  1.00  0.00    -0.395 OA
HETATM   18  H   UNL     1      26.851  47.099  57.281  1.00  0.00     0.210 HD
ENDBRANCH  14  17
ENDBRANCH   6  11
ENDBRANCH   2   5
BRANCH   1  19
HETATM   19  C   UNL     1      24.668  45.280  50.709  1.00  0.00     0.032 A 
HETATM   20  C   UNL     1      25.041  46.485  51.301  1.00  0.00     0.019 A 
HETATM   21  C   UNL     1      24.643  47.688  50.716  1.00  0.00     0.031 A 
HETATM   22  C   UNL     1      23.872  47.686  49.542  1.00  0.00     0.039 A 
HETATM   23  C   UNL     1      23.494  46.465  48.964  1.00  0.00     0.031 A 
HETATM   24  C   UNL     1      23.894  45.259  49.547  1.00  0.00     0.019 A 
BRANCH  22  25
HETATM   25  N   UNL     1      23.479  48.924  48.949  1.00  0.00    -0.320 N 
HETATM   26  C   UNL     1      24.341  49.906  48.453  1.00  0.00     0.013 A 
HETATM   27  C   UNL     1      25.820  49.759  48.323  1.00  0.00     0.068 C 
HETATM   28  C   UNL     1      23.582  50.978  48.029  1.00  0.00     0.027 A 
HETATM   29  C   UNL     1      22.231  50.645  48.208  1.00  0.00     0.027 A 
HETATM   30  C   UNL     1      22.173  49.381  48.764  1.00  0.00     0.013 A 
HETATM   31  C   UNL     1      20.940  48.663  49.199  1.00  0.00     0.068 C 
ENDBRANCH  22  25
ENDBRANCH   1  19
TORSDOF 5
ENDMDL
MODEL 3
REMARK VINA RESULT:      -9.0      2.263      8.435
REMARK  5 active torsions:
REMARK  status: ('A' for Active; 'I' for Inactive)
REMARK    1  A    between atoms: N_3  and  C_4 
REMARK    2  A    between atoms: C_7  and  C_8 
REMARK       I    between atoms: C_8  and  N_9 
REMARK    3  A    between atoms: N_9  and  C_10 
REMARK    4  A    between atoms: C_11  and  N_12 
REMARK    5  A    between atoms: C_15  and  O_16 
ROOT
HETATM    1  C   UNL     1      25.127  43.975  51.279  1.00  0.00     0.256 C 
HETATM    2  N   UNL     1      26.462  44.000  51.593  1.00  0.00    -0.321 N 
HETATM    3  O   UNL     1      24.315  43.077  51.449  1.00  0.00    -0.267 OA
HETATM    4  H   UNL     1      27.000  44.841  51.401  1.00  0.00     0.169 HD
ENDROOT
BRANCH   2   5
HETATM    5  C   UNL     1      27.241  43.002  52.213  1.00  0.00     0.056 A 
HETATM    6  C   UNL     1      27.890  43.386  53.417  1.00  0.00     0.037 A 
HETATM    7  C   UNL     1      28.651  42.428  54.101  1.00  0.00     0.026 A 
HETATM    8  C   UNL     1      28.768  41.125  53.607  1.00  0.00     0.002 A 
HETATM    9  C   UNL     1      28.131  40.766  52.421  1.00  0.00     0.002 A 
HETATM   10  C   UNL     1      27.369  41.703  51.722  1.00  0.00     0.031 A 
BRANCH   6  11
HETATM   11  N   UNL     1      27.768  44.738  53.851  1.00  0.00    -0.281 NA
HETATM   12  C   UNL     1      28.942  45.128  54.658  1.00  0.00     0.098 C 
HETATM   13  C   UNL     1      28.935  46.648  54.824  1.00  0.00     0.046 C 
HETATM   14  C   UNL     1      27.621  47.138  55.432  1.00  0.00     0.120 C 
HETATM   15  C   UNL     1      26.409  46.585  54.684  1.00  0.00     0.046 C 
HETATM   16  C   UNL     1      26.498  45.068  54.524  1.00  0.00     0.098 C 
BRANCH  14  17
HETATM   17  O   UNL     1      27.545  46.745  56.802  1.00  0.00    -0.395 OA
HETATM   18  H   UNL     1      27.862  45.827  56.861  1.00  0.00     0.210 HD
ENDBRANCH  14  17
ENDBRANCH   6  11
ENDBRANCH   2   5
BRANCH   1  19
HETATM   19  C   UNL     1      24.668  45.236  50.668  1.00  0.00     0.032 A 
HETATM   20  C   UNL     1      25.034  46.446  51.255  1.00  0.00     0.019 A 
HETATM   21  C   UNL     1      24.643  47.645  50.657  1.00  0.00     0.031 A 
HETATM   22  C   UNL     1      23.886  47.634  49.474  1.00  0.00     0.039 A 
HETATM   23  C   UNL     1      23.513  46.408  48.901  1.00  0.00     0.031 A 
HETATM   24  C   UNL     1      23.907  45.207  49.497  1.00  0.00     0.019 A 
BRANCH  22  25
HETATM   25  N   UNL     1      23.498  48.868  48.869  1.00  0.00    -0.320 N 
HETATM   26  C   UNL     1      22.187  49.309  48.672  1.00  0.00     0.013 A 
HETATM   27  C   UNL     1      20.968  48.629  49.199  1.00  0.00     0.068 C 
HETATM   28  C   UNL     1      22.229  50.512  47.996  1.00  0.00     0.027 A 
HETATM   29  C   UNL     1      23.577  50.856  47.815  1.00  0.00     0.027 A 
HETATM   30  C   UNL     1      24.352  49.849  48.361  1.00  0.00     0.013 A 
HETATM   31  C   UNL     1      25.840  49.760  48.320  1.00  0.00     0.068 C 
ENDBRANCH  22  25
ENDBRANCH   1  19
TORSDOF 5
ENDMDL
MODEL 4
REMARK VINA RESULT:      -9.0      3.810      6.288
REMARK  5 active torsions:
REMARK  status: ('A' for Active; 'I' for Inactive)
REMARK    1  A    between atoms: N_3  and  C_4 
REMARK    2  A    between atoms: C_7  and  C_8 
REMARK       I    between atoms: C_8  and  N_9 
REMARK    3  A    between atoms: N_9  and  C_10 
REMARK    4  A    between atoms: C_11  and  N_12 
REMARK    5  A    between atoms: C_15  and  O_16 
ROOT
HETATM    1  C   UNL     1      23.264  48.977  48.456  1.00  0.00     0.256 C 
HETATM    2  N   UNL     1      21.997  49.097  48.969  1.00  0.00    -0.321 N 
HETATM    3  O   UNL     1      23.762  49.554  47.501  1.00  0.00    -0.267 OA
HETATM    4  H   UNL     1      21.741  48.552  49.789  1.00  0.00     0.169 HD
ENDROOT
BRANCH   2   5
HETATM    5  C   UNL     1      20.946  49.932  48.538  1.00  0.00     0.056 A 
HETATM    6  C   UNL     1      19.850  49.274  47.918  1.00  0.00     0.037 A 
HETATM    7  C   UNL     1      18.757  50.045  47.501  1.00  0.00     0.026 A 
HETATM    8  C   UNL     1      18.748  51.430  47.690  1.00  0.00     0.002 A 
HETATM    9  C   UNL     1      19.833  52.062  48.292  1.00  0.00     0.002 A 
HETATM   10  C   UNL     1      20.934  51.315  48.716  1.00  0.00     0.031 A 
BRANCH   6  11
HETATM   11  N   UNL     1      19.932  47.865  47.716  1.00  0.00    -0.281 NA
HETATM   12  C   UNL     1      19.237  47.483  46.470  1.00  0.00     0.098 C 
HETATM   13  C   UNL     1      19.620  46.044  46.122  1.00  0.00     0.046 C 
HETATM   14  C   UNL     1      19.316  45.089  47.276  1.00  0.00     0.120 C 
HETATM   15  C   UNL     1      19.901  45.590  48.596  1.00  0.00     0.046 C 
HETATM   16  C   UNL     1      19.507  47.042  48.863  1.00  0.00     0.098 C 
BRANCH  14  17
HETATM   17  O   UNL     1      17.904  44.936  47.418  1.00  0.00    -0.395 OA
HETATM   18  H   UNL     1      17.673  45.188  48.328  1.00  0.00     0.210 HD
ENDBRANCH  14  17
ENDBRANCH   6  11
ENDBRANCH   2   5
BRANCH   1  19
HETATM   19  C   UNL     1      24.089  48.016  49.212  1.00  0.00     0.032 A 
HETATM   20  C   UNL     1      25.395  48.365  49.553  1.00  0.00     0.019 A 
HETATM   21  C   UNL     1      26.166  47.480  50.307  1.00  0.00     0.031 A 
HETATM   22  C   UNL     1      25.633  46.247  50.718  1.00  0.00     0.039 A 
HETATM   23  C   UNL     1      24.322  45.904  50.357  1.00  0.00     0.031 A 
HETATM   24  C   UNL     1      23.546  46.791  49.605  1.00  0.00     0.019 A 
BRANCH  22  25
HETATM   25  N   UNL     1      26.432  45.354  51.496  1.00  0.00    -0.320 N 
HETATM   26  C   UNL     1      26.763  45.513  52.845  1.00  0.00     0.013 A 
HETATM   27  C   UNL     1      26.212  46.572  53.741  1.00  0.00     0.068 C 
HETATM   28  C   UNL     1      27.602  44.481  53.212  1.00  0.00     0.027 A 
HETATM   29  C   UNL     1      27.755  43.637  52.102  1.00  0.00     0.027 A 
HETATM   30  C   UNL     1      27.028  44.171  51.055  1.00  0.00     0.013 A 
HETATM   31  C   UNL     1      26.972  43.647  49.660  1.00  0.00     0.068 C 
ENDBRANCH  22  25
ENDBRANCH   1  19
TORSDOF 5
ENDMDL
MODEL 5
REMARK VINA RESULT:      -8.9      2.353      4.961
REMARK  5 active torsions:
REMARK  status: ('A' for Active; 'I' for Inactive)
REMARK    1  A    between atoms: N_3  and  C_4 
REMARK    2  A    between atoms: C_7  and  C_8 
REMARK       I    between atoms: C_8  and  N_9 
REMARK    3  A    between atoms: N_9  and  C_10 
REMARK    4  A    between atoms: C_11  and  N_12 
REMARK    5  A    between atoms: C_15  and  O_16 
ROOT
HETATM    1  C   UNL     1      28.609  41.086  51.635  1.00  0.00     0.256 C 
HETATM    2  N   UNL     1      28.006  41.762  50.605  1.00  0.00    -0.321 N 
HETATM    3  O   UNL     1      28.917  39.905  51.700  1.00  0.00    -0.267 OA
HETATM    4  H   UNL     1      27.832  42.760  50.703  1.00  0.00     0.169 HD
ENDROOT
BRANCH   2   5
HETATM    5  C   UNL     1      27.604  41.275  49.345  1.00  0.00     0.056 A 
HETATM    6  C   UNL     1      26.369  41.779  48.855  1.00  0.00     0.037 A 
HETATM    7  C   UNL     1      25.931  41.361  47.591  1.00  0.00     0.026 A 
HETATM    8  C   UNL     1      26.693  40.468  46.832  1.00  0.00     0.002 A 
HETATM    9  C   UNL     1      27.899  39.977  47.329  1.00  0.00     0.002 A 
HETATM   10  C   UNL     1      28.355  40.378  48.586  1.00  0.00     0.031 A 
BRANCH   6  11
HETATM   11  N   UNL     1      25.616  42.655  49.690  1.00  0.00    -0.281 NA
HETATM   12  C   UNL     1      24.170  42.388  49.544  1.00  0.00     0.098 C 
HETATM   13  C   UNL     1      23.428  43.103  50.674  1.00  0.00     0.046 C 
HETATM   14  C   UNL     1      23.746  44.598  50.695  1.00  0.00     0.120 C 
HETATM   15  C   UNL     1      25.252  44.858  50.673  1.00  0.00     0.046 C 
HETATM   16  C   UNL     1      25.933  44.087  49.543  1.00  0.00     0.098 C 
BRANCH  14  17
HETATM   17  O   UNL     1      23.145  45.236  49.568  1.00  0.00    -0.395 OA
HETATM   18  H   UNL     1      23.746  45.944  49.277  1.00  0.00     0.210 HD
ENDBRANCH  14  17
ENDBRANCH   6  11
ENDBRANCH   2   5
BRANCH   1  19
HETATM   19  C   UNL     1      28.910  41.960  52.784  1.00  0.00     0.032 A 
HETATM   20  C   UNL     1      30.223  42.380  52.991  1.00  0.00     0.019 A 
HETATM   21  C   UNL     1      30.508  43.244  54.049  1.00  0.00     0.031 A 
HETATM   22  C   UNL     1      29.482  43.687  54.900  1.00  0.00     0.039 A 
HETATM   23  C   UNL     1      28.167  43.246  54.687  1.00  0.00     0.031 A 
HETATM   24  C   UNL     1      27.879  42.383  53.626  1.00  0.00     0.019 A 
BRANCH  22  25
HETATM   25  N   UNL     1      29.787  44.577  55.974  1.00  0.00    -0.320 N 
HETATM   26  C   UNL     1      30.658  44.314  57.035  1.00  0.00     0.013 A 
HETATM   27  C   UNL     1      31.533  43.111  57.144  1.00  0.00     0.068 C 
HETATM   28  C   UNL     1      30.629  45.391  57.899  1.00  0.00     0.027 A 
HETATM   29  C   UNL     1      29.777  46.360  57.348  1.00  0.00     0.027 A 
HETATM   30  C   UNL     1      29.270  45.860  56.163  1.00  0.00     0.013 A 
HETATM   31  C   UNL     1      28.260  46.520  55.287  1.00  0.00     0.068 C 
ENDBRANCH  22  25
ENDBRANCH   1  19
TORSDOF 5
ENDMDL
MODEL 6
REMARK VINA RESULT:      -8.8      2.988      7.829
REMARK  5 active torsions:
REMARK  status: ('A' for Active; 'I' for Inactive)
REMARK    1  A    between atoms: N_3  and  C_4 
REMARK    2  A    between atoms: C_7  and  C_8 
REMARK       I    between atoms: C_8  and  N_9 
REMARK    3  A    between atoms: N_9  and  C_10 
REMARK    4  A    between atoms: C_11  and  N_12 
REMARK    5  A    between atoms: C_15  and  O_16 
ROOT
HETATM    1  C   UNL     1      25.369  44.395  51.854  1.00  0.00     0.256 C 
HETATM    2  N   UNL     1      26.669  44.047  51.587  1.00  0.00    -0.321 N 
HETATM    3  O   UNL     1      24.588  43.891  52.646  1.00  0.00    -0.267 OA
HETATM    4  H   UNL     1      27.195  44.586  50.903  1.00  0.00     0.169 HD
ENDROOT
BRANCH   2   5
HETATM    5  C   UNL     1      27.448  43.029  52.172  1.00  0.00     0.056 A 
HETATM    6  C   UNL     1      27.594  41.844  51.401  1.00  0.00     0.037 A 
HETATM    7  C   UNL     1      28.387  40.808  51.913  1.00  0.00     0.026 A 
HETATM    8  C   UNL     1      29.018  40.939  53.153  1.00  0.00     0.002 A 
HETATM    9  C   UNL     1      28.860  42.104  53.900  1.00  0.00     0.002 A 
HETATM   10  C   UNL     1      28.074  43.149  53.413  1.00  0.00     0.031 A 
BRANCH   6  11
HETATM   11  N   UNL     1      26.895  41.752  50.163  1.00  0.00    -0.281 NA
HETATM   12  C   UNL     1      25.554  41.167  50.372  1.00  0.00     0.098 C 
HETATM   13  C   UNL     1      24.727  41.384  49.104  1.00  0.00     0.046 C 
HETATM   14  C   UNL     1      25.428  40.810  47.874  1.00  0.00     0.120 C 
HETATM   15  C   UNL     1      26.874  41.293  47.767  1.00  0.00     0.046 C 
HETATM   16  C   UNL     1      27.630  41.078  49.077  1.00  0.00     0.098 C 
BRANCH  14  17
HETATM   17  O   UNL     1      25.415  39.384  47.930  1.00  0.00    -0.395 OA
HETATM   18  H   UNL     1      25.304  39.128  48.862  1.00  0.00     0.210 HD
ENDBRANCH  14  17
ENDBRANCH   6  11
ENDBRANCH   2   5
BRANCH   1  19
HETATM   19  C   UNL     1      24.919  45.548  51.052  1.00  0.00     0.032 A 
HETATM   20  C   UNL     1      24.163  45.320  49.903  1.00  0.00     0.019 A 
HETATM   21  C   UNL     1      23.694  46.407  49.164  1.00  0.00     0.031 A 
HETATM   22  C   UNL     1      23.981  47.719  49.572  1.00  0.00     0.039 A 
HETATM   23  C   UNL     1      24.753  47.934  50.723  1.00  0.00     0.031 A 
HETATM   24  C   UNL     1      25.221  46.846  51.467  1.00  0.00     0.019 A 
BRANCH  22  25
HETATM   25  N   UNL     1      23.488  48.823  48.810  1.00  0.00    -0.320 N 
HETATM   26  C   UNL     1      24.266  49.805  48.192  1.00  0.00     0.013 A 
HETATM   27  C   UNL     1      25.756  49.784  48.099  1.00  0.00     0.068 C 
HETATM   28  C   UNL     1      23.421  50.732  47.616  1.00  0.00     0.027 A 
HETATM   29  C   UNL     1      22.103  50.299  47.826  1.00  0.00     0.027 A 
HETATM   30  C   UNL     1      22.150  49.123  48.550  1.00  0.00     0.013 A 
HETATM   31  C   UNL     1      20.979  48.357  49.068  1.00  0.00     0.068 C 
ENDBRANCH  22  25
ENDBRANCH   1  19
TORSDOF 5
ENDMDL
MODEL 7
REMARK VINA RESULT:      -8.8      3.500      5.945
REMARK  5 active torsions:
REMARK  status: ('A' for Active; 'I' for Inactive)
REMARK    1  A    between atoms: N_3  and  C_4 
REMARK    2  A    between atoms: C_7  and  C_8 
REMARK       I    between atoms: C_8  and  N_9 
REMARK    3  A    between atoms: N_9  and  C_10 
REMARK    4  A    between atoms: C_11  and  N_12 
REMARK    5  A    between atoms: C_15  and  O_16 
ROOT
HETATM    1  C   UNL     1      23.568  48.709  48.782  1.00  0.00     0.256 C 
HETATM    2  N   UNL     1      22.283  48.838  49.244  1.00  0.00    -0.321 N 
HETATM    3  O   UNL     1      24.096  49.250  47.822  1.00  0.00    -0.267 OA
HETATM    4  H   UNL     1      22.002  48.326  50.076  1.00  0.00     0.169 HD
ENDROOT
BRANCH   2   5
HETATM    5  C   UNL     1      21.242  49.647  48.742  1.00  0.00     0.056 A 
HETATM    6  C   UNL     1      20.228  48.965  48.017  1.00  0.00     0.037 A 
HETATM    7  C   UNL     1      19.146  49.708  47.524  1.00  0.00     0.026 A 
HETATM    8  C   UNL     1      19.071  51.087  47.740  1.00  0.00     0.002 A 
HETATM    9  C   UNL     1      20.077  51.742  48.447  1.00  0.00     0.002 A 
HETATM   10  C   UNL     1      21.164  51.024  48.947  1.00  0.00     0.031 A 
BRANCH   6  11
HETATM   11  N   UNL     1      20.379  47.566  47.793  1.00  0.00    -0.281 NA
HETATM   12  C   UNL     1      19.741  47.177  46.519  1.00  0.00     0.098 C 
HETATM   13  C   UNL     1      20.199  45.763  46.158  1.00  0.00     0.046 C 
HETATM   14  C   UNL     1      19.901  44.774  47.285  1.00  0.00     0.120 C 
HETATM   15  C   UNL     1      20.420  45.275  48.632  1.00  0.00     0.046 C 
HETATM   16  C   UNL     1      19.954  46.703  48.912  1.00  0.00     0.098 C 
BRANCH  14  17
HETATM   17  O   UNL     1      18.493  44.557  47.379  1.00  0.00    -0.395 OA
HETATM   18  H   UNL     1      18.348  43.596  47.434  1.00  0.00     0.210 HD
ENDBRANCH  14  17
ENDBRANCH   6  11
ENDBRANCH   2   5
BRANCH   1  19
HETATM   19  C   UNL     1      24.372  47.786  49.605  1.00  0.00     0.032 A 
HETATM   20  C   UNL     1      25.656  48.167  49.992  1.00  0.00     0.019 A 
HETATM   21  C   UNL     1      26.406  47.319  50.809  1.00  0.00     0.031 A 
HETATM   22  C   UNL     1      25.873  46.092  51.237  1.00  0.00     0.039 A 
HETATM   23  C   UNL     1      24.584  45.717  50.830  1.00  0.00     0.031 A 
HETATM   24  C   UNL     1      23.830  46.566  50.014  1.00  0.00     0.019 A 
BRANCH  22  25
HETATM   25  N   UNL     1      26.648  45.238  52.079  1.00  0.00    -0.320 N 
HETATM   26  C   UNL     1      27.273  44.050  51.690  1.00  0.00     0.013 A 
HETATM   27  C   UNL     1      27.359  43.550  50.287  1.00  0.00     0.068 C 
HETATM   28  C   UNL     1      27.863  43.483  52.802  1.00  0.00     0.027 A 
HETATM   29  C   UNL     1      27.654  44.349  53.886  1.00  0.00     0.027 A 
HETATM   30  C   UNL     1      26.917  45.428  53.436  1.00  0.00     0.013 A 
HETATM   31  C   UNL     1      26.397  46.551  54.268  1.00  0.00     0.068 C 
ENDBRANCH  22  25
ENDBRANCH   1  19
TORSDOF 5
ENDMDL
MODEL 8
REMARK VINA RESULT:      -8.8      3.189      7.409
REMARK  5 active torsions:
REMARK  status: ('A' for Active; 'I' for Inactive)
REMARK    1  A    between atoms: N_3  and  C_4 
REMARK    2  A    between atoms: C_7  and  C_8 
REMARK       I    between atoms: C_8  and  N_9 
REMARK    3  A    between atoms: N_9  and  C_10 
REMARK    4  A    between atoms: C_11  and  N_12 
REMARK    5  A    between atoms: C_15  and  O_16 
ROOT
HETATM    1  C   UNL     1      27.614  42.478  53.146  1.00  0.00     0.256 C 
HETATM    2  N   UNL     1      27.649  43.804  52.796  1.00  0.00    -0.321 N 
HETATM    3  O   UNL     1      27.593  41.980  54.262  1.00  0.00    -0.267 OA
HETATM    4  H   UNL     1      27.646  44.056  51.810  1.00  0.00     0.169 HD
ENDROOT
BRANCH   2   5
HETATM    5  C   UNL     1      27.648  44.938  53.633  1.00  0.00     0.056 A 
HETATM    6  C   UNL     1      26.833  46.020  53.203  1.00  0.00     0.037 A 
HETATM    7  C   UNL     1      26.761  47.163  54.010  1.00  0.00     0.026 A 
HETATM    8  C   UNL     1      27.475  47.236  55.210  1.00  0.00     0.002 A 
HETATM    9  C   UNL     1      28.275  46.169  55.614  1.00  0.00     0.002 A 
HETATM   10  C   UNL     1      28.364  45.020  54.826  1.00  0.00     0.031 A 
BRANCH   6  11
HETATM   11  N   UNL     1      26.161  45.906  51.951  1.00  0.00    -0.281 NA
HETATM   12  C   UNL     1      26.229  47.183  51.212  1.00  0.00     0.098 C 
HETATM   13  C   UNL     1      25.794  46.932  49.767  1.00  0.00     0.046 C 
HETATM   14  C   UNL     1      24.407  46.295  49.703  1.00  0.00     0.120 C 
HETATM   15  C   UNL     1      24.303  45.068  50.610  1.00  0.00     0.046 C 
HETATM   16  C   UNL     1      24.784  45.381  52.026  1.00  0.00     0.098 C 
BRANCH  14  17
HETATM   17  O   UNL     1      23.418  47.248  50.091  1.00  0.00    -0.395 OA
HETATM   18  H   UNL     1      23.598  48.071  49.607  1.00  0.00     0.210 HD
ENDBRANCH  14  17
ENDBRANCH   6  11
ENDBRANCH   2   5
BRANCH   1  19
HETATM   19  C   UNL     1      27.590  41.585  51.973  1.00  0.00     0.032 A 
HETATM   20  C   UNL     1      26.500  41.636  51.105  1.00  0.00     0.019 A 
HETATM   21  C   UNL     1      26.491  40.827  49.968  1.00  0.00     0.031 A 
HETATM   22  C   UNL     1      27.569  39.968  49.699  1.00  0.00     0.039 A 
HETATM   23  C   UNL     1      28.654  39.919  50.587  1.00  0.00     0.031 A 
HETATM   24  C   UNL     1      28.667  40.730  51.725  1.00  0.00     0.019 A 
BRANCH  22  25
HETATM   25  N   UNL     1      27.550  39.152  48.527  1.00  0.00    -0.320 N 
HETATM   26  C   UNL     1      27.264  37.785  48.485  1.00  0.00     0.013 A 
HETATM   27  C   UNL     1      26.783  36.976  49.642  1.00  0.00     0.068 C 
HETATM   28  C   UNL     1      27.416  37.348  47.184  1.00  0.00     0.027 A 
HETATM   29  C   UNL     1      27.746  38.460  46.394  1.00  0.00     0.027 A 
HETATM   30  C   UNL     1      27.817  39.565  47.220  1.00  0.00     0.013 A 
HETATM   31  C   UNL     1      28.219  40.944  46.818  1.00  0.00     0.068 C 
ENDBRANCH  22  25
ENDBRANCH   1  19
TORSDOF 5
ENDMDL
MODEL 9
REMARK VINA RESULT:      -8.5      2.787      4.518
REMARK  5 active torsions:
REMARK  status: ('A' for Active; 'I' for Inactive)
REMARK    1  A    between atoms: N_3  and  C_4 
REMARK    2  A    between atoms: C_7  and  C_8 
REMARK       I    between atoms: C_8  and  N_9 
REMARK    3  A    between atoms: N_9  and  C_10 
REMARK    4  A    between atoms: C_11  and  N_12 
REMARK    5  A    between atoms: C_15  and  O_16 
ROOT
HETATM    1  C   UNL     1      24.639  43.333  50.985  1.00  0.00     0.256 C 
HETATM    2  N   UNL     1      25.093  42.427  50.060  1.00  0.00    -0.321 N 
HETATM    3  O   UNL     1      23.514  43.790  51.122  1.00  0.00    -0.267 OA
HETATM    4  H   UNL     1      26.066  42.133  50.092  1.00  0.00     0.169 HD
ENDROOT
BRANCH   2   5
HETATM    5  C   UNL     1      24.374  41.772  49.040  1.00  0.00     0.056 A 
HETATM    6  C   UNL     1      25.075  40.741  48.356  1.00  0.00     0.037 A 
HETATM    7  C   UNL     1      24.402  40.027  47.356  1.00  0.00     0.026 A 
HETATM    8  C   UNL     1      23.074  40.324  47.038  1.00  0.00     0.002 A 
HETATM    9  C   UNL     1      22.403  41.341  47.712  1.00  0.00     0.002 A 
HETATM   10  C   UNL     1      23.052  42.068  48.711  1.00  0.00     0.031 A 
BRANCH   6  11
HETATM   11  N   UNL     1      26.440  40.511  48.696  1.00  0.00    -0.281 NA
HETATM   12  C   UNL     1      27.271  40.460  47.475  1.00  0.00     0.098 C 
HETATM   13  C   UNL     1      28.742  40.541  47.887  1.00  0.00     0.046 C 
HETATM   14  C   UNL     1      29.105  39.442  48.885  1.00  0.00     0.120 C 
HETATM   15  C   UNL     1      28.129  39.398  50.060  1.00  0.00     0.046 C 
HETATM   16  C   UNL     1      26.679  39.354  49.578  1.00  0.00     0.098 C 
BRANCH  14  17
HETATM   17  O   UNL     1      29.105  38.173  48.230  1.00  0.00    -0.395 OA
HETATM   18  H   UNL     1      29.020  38.337  47.275  1.00  0.00     0.210 HD
ENDBRANCH  14  17
ENDBRANCH   6  11
ENDBRANCH   2   5
BRANCH   1  19
HETATM   19  C   UNL     1      25.697  43.765  51.916  1.00  0.00     0.032 A 
HETATM   20  C   UNL     1      25.362  44.043  53.241  1.00  0.00     0.019 A 
HETATM   21  C   UNL     1      26.365  44.409  54.139  1.00  0.00     0.031 A 
HETATM   22  C   UNL     1      27.701  44.499  53.714  1.00  0.00     0.039 A 
HETATM   23  C   UNL     1      28.022  44.229  52.375  1.00  0.00     0.031 A 
HETATM   24  C   UNL     1      27.018  43.859  51.474  1.00  0.00     0.019 A 
BRANCH  22  25
HETATM   25  N   UNL     1      28.719  44.867  54.646  1.00  0.00    -0.320 N 
HETATM   26  C   UNL     1      29.711  44.023  55.152  1.00  0.00     0.013 A 
HETATM   27  C   UNL     1      29.967  42.629  54.687  1.00  0.00     0.068 C 
HETATM   28  C   UNL     1      30.456  44.731  56.075  1.00  0.00     0.027 A 
HETATM   29  C   UNL     1      29.962  46.044  56.108  1.00  0.00     0.027 A 
HETATM   30  C   UNL     1      28.903  46.125  55.223  1.00  0.00     0.013 A 
HETATM   31  C   UNL     1      28.029  47.312  54.998  1.00  0.00     0.068 C 
ENDBRANCH  22  25
ENDBRANCH   1  19
TORSDOF 5
ENDMDL
MODEL 10
REMARK VINA RESULT:      -8.5      2.535      8.227
REMARK  5 active torsions:
REMARK  status: ('A' for Active; 'I' for Inactive)
REMARK    1  A    between atoms: N_3  and  C_4 
REMARK    2  A    between atoms: C_7  and  C_8 
REMARK       I    between atoms: C_8  and  N_9 
REMARK    3  A    between atoms: N_9  and  C_10 
REMARK    4  A    between atoms: C_11  and  N_12 
REMARK    5  A    between atoms: C_15  and  O_16 
ROOT
HETATM    1  C   UNL     1      25.648  46.671  51.602  1.00  0.00     0.256 C 
HETATM    2  N   UNL     1      25.910  45.842  52.664  1.00  0.00    -0.321 N 
HETATM    3  O   UNL     1      26.140  47.759  51.339  1.00  0.00    -0.267 OA
HETATM    4  H   UNL     1      25.421  44.952  52.729  1.00  0.00     0.169 HD
ENDROOT
BRANCH   2   5
HETATM    5  C   UNL     1      26.830  46.021  53.716  1.00  0.00     0.056 A 
HETATM    6  C   UNL     1      27.674  44.911  53.991  1.00  0.00     0.037 A 
HETATM    7  C   UNL     1      28.637  45.038  55.002  1.00  0.00     0.026 A 
HETATM    8  C   UNL     1      28.760  46.229  55.723  1.00  0.00     0.002 A 
HETATM    9  C   UNL     1      27.920  47.305  55.447  1.00  0.00     0.002 A 
HETATM   10  C   UNL     1      26.954  47.203  54.445  1.00  0.00     0.031 A 
BRANCH   6  11
HETATM   11  N   UNL     1      27.475  43.709  53.251  1.00  0.00    -0.281 NA
HETATM   12  C   UNL     1      28.024  42.553  53.990  1.00  0.00     0.098 C 
HETATM   13  C   UNL     1      27.510  41.270  53.335  1.00  0.00     0.046 C 
HETATM   14  C   UNL     1      27.852  41.226  51.846  1.00  0.00     0.120 C 
HETATM   15  C   UNL     1      27.429  42.507  51.128  1.00  0.00     0.046 C 
HETATM   16  C   UNL     1      27.946  43.748  51.854  1.00  0.00     0.098 C 
BRANCH  14  17
HETATM   17  O   UNL     1      29.257  41.038  51.677  1.00  0.00    -0.395 OA
HETATM   18  H   UNL     1      29.385  40.202  51.197  1.00  0.00     0.210 HD
ENDBRANCH  14  17
ENDBRANCH   6  11
ENDBRANCH   2   5
BRANCH   1  19
HETATM   19  C   UNL     1      24.636  46.112  50.687  1.00  0.00     0.032 A 
HETATM   20  C   UNL     1      24.180  46.890  49.623  1.00  0.00     0.019 A 
HETATM   21  C   UNL     1      23.257  46.351  48.726  1.00  0.00     0.031 A 
HETATM   22  C   UNL     1      22.788  45.038  48.894  1.00  0.00     0.039 A 
HETATM   23  C   UNL     1      23.245  44.271  49.976  1.00  0.00     0.031 A 
HETATM   24  C   UNL     1      24.173  44.808  50.874  1.00  0.00     0.019 A 
BRANCH  22  25
HETATM   25  N   UNL     1      21.848  44.497  47.964  1.00  0.00    -0.320 N 
HETATM   26  C   UNL     1      22.115  43.516  47.005  1.00  0.00     0.013 A 
HETATM   27  C   UNL     1      23.396  42.758  46.891  1.00  0.00     0.068 C 
HETATM   28  C   UNL     1      20.972  43.314  46.258  1.00  0.00     0.027 A 
HETATM   29  C   UNL     1      19.964  44.134  46.787  1.00  0.00     0.027 A 
HETATM   30  C   UNL     1      20.503  44.850  47.838  1.00  0.00     0.013 A 
HETATM   31  C   UNL     1      19.812  45.903  48.636  1.00  0.00     0.068 C 
ENDBRANCH  22  25
ENDBRANCH   1  19
TORSDOF 5
ENDMDL
