MODEL 1
REMARK VINA RESULT:      -9.4      0.000      0.000
REMARK  8 active torsions:
REMARK  status: ('A' for Active; 'I' for Inactive)
REMARK    1  A    between atoms: C_10  and  C_11 
REMARK    2  A    between atoms: C_11  and  C_12 
REMARK       I    between atoms: C_12  and  N_13 
REMARK    3  A    between atoms: N_13  and  N_14 
REMARK       I    between atoms: N_14  and  C_15 
REMARK    4  A    between atoms: C_15  and  C_16 
REMARK    5  A    between atoms: C_16  and  C_17 
REMARK    6  A    between atoms: C_17  and  C_18 
REMARK       I    between atoms: C_18  and  N_19 
REMARK    7  A    between atoms: N_19  and  C_20 
REMARK    8  A    between atoms: C_20  and  C_21 
ROOT
HETATM    1  C   UNL     1      26.742  44.636  50.519  1.00  0.00     0.240 C 
HETATM    2  N   UNL     1      26.232  45.873  50.865  1.00  0.00    -0.267 N 
HETATM    3  O   UNL     1      27.248  44.423  49.417  1.00  0.00    -0.272 OA
HETATM    4  H   UNL     1      25.964  46.123  51.817  1.00  0.00     0.190 HD
ENDROOT
BRANCH   2   5
HETATM    5  N   UNL     1      26.339  46.911  49.937  1.00  0.00    -0.268 N 
HETATM    6  C   UNL     1      25.365  47.885  49.921  1.00  0.00     0.236 C 
HETATM    7  O   UNL     1      24.499  47.984  50.789  1.00  0.00    -0.272 OA
HETATM    8  H   UNL     1      27.003  46.766  49.175  1.00  0.00     0.190 HD
BRANCH   6   9
HETATM    9  C   UNL     1      25.487  48.828  48.742  1.00  0.00     0.114 C 
BRANCH   9  10
HETATM   10  C   UNL     1      24.430  49.922  48.766  1.00  0.00     0.112 C 
BRANCH  10  11
HETATM   11  C   UNL     1      23.055  49.339  48.536  1.00  0.00     0.218 C 
HETATM   12  N   UNL     1      22.158  49.589  49.542  1.00  0.00    -0.355 N 
HETATM   13  H   UNL     1      22.384  50.316  50.222  1.00  0.00     0.162 HD
HETATM   14  O   UNL     1      22.775  48.721  47.513  1.00  0.00    -0.274 OA
BRANCH  12  15
HETATM   15  C   UNL     1      20.769  49.222  49.397  1.00  0.00     0.187 C 
BRANCH  15  16
HETATM   16  C   UNL     1      19.966  50.454  49.231  1.00  0.00     0.070 A 
HETATM   17  O   UNL     1      18.784  50.512  49.910  1.00  0.00    -0.325 OA
HETATM   18  C   UNL     1      18.217  51.710  49.613  1.00  0.00     0.142 A 
HETATM   19  C   UNL     1      19.015  52.421  48.749  1.00  0.00     0.027 A 
HETATM   20  C   UNL     1      20.147  51.611  48.500  1.00  0.00     0.036 A 
ENDBRANCH  15  16
ENDBRANCH  12  15
ENDBRANCH  10  11
ENDBRANCH   9  10
ENDBRANCH   6   9
ENDBRANCH   2   5
BRANCH   1  21
HETATM   21  C   UNL     1      26.572  43.576  51.580  1.00  0.00     0.146 C 
BRANCH  21  22
HETATM   22  C   UNL     1      27.821  43.100  52.263  1.00  0.00    -0.015 A 
HETATM   23  C   UNL     1      28.522  43.631  53.405  1.00  0.00    -0.000 A 
HETATM   24  C   UNL     1      28.353  44.741  54.265  1.00  0.00     0.021 A 
HETATM   25  C   UNL     1      29.605  42.786  53.655  1.00  0.00     0.043 A 
HETATM   26  C   UNL     1      29.249  44.970  55.325  1.00  0.00    -0.061 A 
HETATM   27  C   UNL     1      29.045  46.133  56.253  1.00  0.00     0.048 C 
HETATM   28  C   UNL     1      30.305  44.084  55.543  1.00  0.00     0.009 A 
HETATM   29  C   UNL     1      30.505  42.983  54.709  1.00  0.00     0.031 A 
HETATM   30  N   UNL     1      29.584  41.798  52.704  1.00  0.00    -0.359 N 
HETATM   31  H   UNL     1      30.264  41.053  52.647  1.00  0.00     0.166 HD
HETATM   32  C   UNL     1      28.518  41.964  51.863  1.00  0.00     0.013 A 
HETATM   33  C   UNL     1      28.261  41.015  50.746  1.00  0.00     0.068 C 
ENDBRANCH  21  22
ENDBRANCH   1  21
TORSDOF 8
ENDMDL
MODEL 2
REMARK VINA RESULT:      -9.1      2.719      4.495
REMARK  8 active torsions:
REMARK  status: ('A' for Active; 'I' for Inactive)
REMARK    1  A    between atoms: C_10  and  C_11 
REMARK    2  A    between atoms: C_11  and  C_12 
REMARK       I    between atoms: C_12  and  N_13 
REMARK    3  A    between atoms: N_13  and  N_14 
REMARK       I    between atoms: N_14  and  C_15 
REMARK    4  A    between atoms: C_15  and  C_16 
REMARK    5  A    between atoms: C_16  and  C_17 
REMARK    6  A    between atoms: C_17  and  C_18 
REMARK       I    between atoms: C_18  and  N_19 
REMARK    7  A    between atoms: N_19  and  C_20 
REMARK    8  A    between atoms: C_20  and  C_21 
ROOT
HETATM    1  C   UNL     1      25.188  46.035  52.914  1.00  0.00     0.240 C 
HETATM    2  N   UNL     1      24.680  45.025  52.120  1.00  0.00    -0.267 N 
HETATM    3  O   UNL     1      25.369  47.175  52.486  1.00  0.00    -0.272 OA
HETATM    4  H   UNL     1      24.365  44.127  52.488  1.00  0.00     0.190 HD
ENDROOT
BRANCH   2   5
HETATM    5  N   UNL     1      24.329  45.337  50.805  1.00  0.00    -0.268 N 
HETATM    6  C   UNL     1      23.464  44.498  50.137  1.00  0.00     0.236 C 
HETATM    7  O   UNL     1      22.853  43.584  50.688  1.00  0.00    -0.272 OA
HETATM    8  H   UNL     1      24.908  46.036  50.339  1.00  0.00     0.190 HD
BRANCH   6   9
HETATM    9  C   UNL     1      23.331  44.832  48.666  1.00  0.00     0.114 C 
BRANCH   9  10
HETATM   10  C   UNL     1      21.985  45.461  48.337  1.00  0.00     0.112 C 
BRANCH  10  11
HETATM   11  C   UNL     1      22.144  46.936  48.046  1.00  0.00     0.218 C 
HETATM   12  N   UNL     1      22.456  47.700  49.141  1.00  0.00    -0.355 N 
HETATM   13  H   UNL     1      22.787  47.226  49.982  1.00  0.00     0.162 HD
HETATM   14  O   UNL     1      22.028  47.389  46.911  1.00  0.00    -0.274 OA
BRANCH  12  15
HETATM   15  C   UNL     1      22.781  49.099  48.992  1.00  0.00     0.187 C 
BRANCH  15  16
HETATM   16  C   UNL     1      24.246  49.232  48.830  1.00  0.00     0.070 A 
HETATM   17  O   UNL     1      25.026  48.419  49.601  1.00  0.00    -0.325 OA
HETATM   18  C   UNL     1      26.318  48.709  49.299  1.00  0.00     0.142 A 
HETATM   19  C   UNL     1      26.381  49.699  48.348  1.00  0.00     0.027 A 
HETATM   20  C   UNL     1      25.042  50.040  48.043  1.00  0.00     0.036 A 
ENDBRANCH  15  16
ENDBRANCH  12  15
ENDBRANCH  10  11
ENDBRANCH   9  10
ENDBRANCH   6   9
ENDBRANCH   2   5
BRANCH   1  21
HETATM   21  C   UNL     1      25.548  45.602  54.315  1.00  0.00     0.146 C 
BRANCH  21  22
HETATM   22  C   UNL     1      27.009  45.439  54.615  1.00  0.00    -0.015 A 
HETATM   23  C   UNL     1      27.890  44.320  54.395  1.00  0.00    -0.000 A 
HETATM   24  C   UNL     1      27.747  43.013  53.873  1.00  0.00     0.021 A 
HETATM   25  C   UNL     1      29.163  44.705  54.817  1.00  0.00     0.043 A 
HETATM   26  C   UNL     1      28.855  42.149  53.790  1.00  0.00    -0.061 A 
HETATM   27  C   UNL     1      28.701  40.774  53.206  1.00  0.00     0.048 C 
HETATM   28  C   UNL     1      30.110  42.590  54.209  1.00  0.00     0.009 A 
HETATM   29  C   UNL     1      30.285  43.871  54.736  1.00  0.00     0.031 A 
HETATM   30  N   UNL     1      29.068  45.988  55.294  1.00  0.00    -0.359 N 
HETATM   31  H   UNL     1      29.845  46.511  55.671  1.00  0.00     0.166 HD
HETATM   32  C   UNL     1      27.785  46.450  55.175  1.00  0.00     0.013 A 
HETATM   33  C   UNL     1      27.417  47.824  55.611  1.00  0.00     0.068 C 
ENDBRANCH  21  22
ENDBRANCH   1  21
TORSDOF 8
ENDMDL
MODEL 3
REMARK VINA RESULT:      -9.0      1.694      2.206
REMARK  8 active torsions:
REMARK  status: ('A' for Active; 'I' for Inactive)
REMARK    1  A    between atoms: C_10  and  C_11 
REMARK    2  A    between atoms: C_11  and  C_12 
REMARK       I    between atoms: C_12  and  N_13 
REMARK    3  A    between atoms: N_13  and  N_14 
REMARK       I    between atoms: N_14  and  C_15 
REMARK    4  A    between atoms: C_15  and  C_16 
REMARK    5  A    between atoms: C_16  and  C_17 
REMARK    6  A    between atoms: C_17  and  C_18 
REMARK       I    between atoms: C_18  and  N_19 
REMARK    7  A    between atoms: N_19  and  C_20 
REMARK    8  A    between atoms: C_20  and  C_21 
ROOT
HETATM    1  C   UNL     1      25.330  43.104  50.979  1.00  0.00     0.240 C 
HETATM    2  N   UNL     1      25.999  44.040  50.212  1.00  0.00    -0.267 N 
HETATM    3  O   UNL     1      24.288  43.373  51.575  1.00  0.00    -0.272 OA
HETATM    4  H   UNL     1      26.762  43.803  49.579  1.00  0.00     0.190 HD
ENDROOT
BRANCH   2   5
HETATM    5  N   UNL     1      25.437  45.313  50.091  1.00  0.00    -0.268 N 
HETATM    6  C   UNL     1      26.247  46.357  49.702  1.00  0.00     0.236 C 
HETATM    7  O   UNL     1      27.396  46.200  49.292  1.00  0.00    -0.272 OA
HETATM    8  H   UNL     1      24.519  45.441  50.519  1.00  0.00     0.190 HD
BRANCH   6   9
HETATM    9  C   UNL     1      25.569  47.706  49.811  1.00  0.00     0.114 C 
BRANCH   9  10
HETATM   10  C   UNL     1      26.420  48.828  49.234  1.00  0.00     0.112 C 
BRANCH  10  11
HETATM   11  C   UNL     1      25.601  49.691  48.301  1.00  0.00     0.218 C 
HETATM   12  N   UNL     1      24.314  49.914  48.718  1.00  0.00    -0.355 N 
HETATM   13  H   UNL     1      24.078  49.707  49.689  1.00  0.00     0.162 HD
HETATM   14  O   UNL     1      26.077  50.169  47.275  1.00  0.00    -0.274 OA
BRANCH  12  15
HETATM   15  C   UNL     1      23.461  50.836  48.007  1.00  0.00     0.187 C 
BRANCH  15  16
HETATM   16  C   UNL     1      22.152  50.900  48.695  1.00  0.00     0.070 A 
HETATM   17  O   UNL     1      21.041  50.878  47.903  1.00  0.00    -0.325 OA
HETATM   18  C   UNL     1      19.965  50.950  48.729  1.00  0.00     0.142 A 
HETATM   19  C   UNL     1      20.368  51.021  50.041  1.00  0.00     0.027 A 
HETATM   20  C   UNL     1      21.783  50.990  50.022  1.00  0.00     0.036 A 
ENDBRANCH  15  16
ENDBRANCH  12  15
ENDBRANCH  10  11
ENDBRANCH   9  10
ENDBRANCH   6   9
ENDBRANCH   2   5
BRANCH   1  21
HETATM   21  C   UNL     1      26.017  41.762  51.059  1.00  0.00     0.146 C 
BRANCH  21  22
HETATM   22  C   UNL     1      27.373  41.737  51.702  1.00  0.00    -0.015 A 
HETATM   23  C   UNL     1      27.933  42.570  52.736  1.00  0.00    -0.000 A 
HETATM   24  C   UNL     1      27.483  43.679  53.490  1.00  0.00     0.021 A 
HETATM   25  C   UNL     1      29.219  42.097  52.998  1.00  0.00     0.043 A 
HETATM   26  C   UNL     1      28.312  44.269  54.462  1.00  0.00    -0.061 A 
HETATM   27  C   UNL     1      27.816  45.427  55.280  1.00  0.00     0.048 C 
HETATM   28  C   UNL     1      29.584  43.746  54.697  1.00  0.00     0.009 A 
HETATM   29  C   UNL     1      30.062  42.658  53.965  1.00  0.00     0.031 A 
HETATM   30  N   UNL     1      29.449  41.041  52.153  1.00  0.00    -0.359 N 
HETATM   31  H   UNL     1      30.311  40.515  52.126  1.00  0.00     0.166 HD
HETATM   32  C   UNL     1      28.351  40.803  51.372  1.00  0.00     0.013 A 
HETATM   33  C   UNL     1      28.338  39.700  50.374  1.00  0.00     0.068 C 
ENDBRANCH  21  22
ENDBRANCH   1  21
TORSDOF 8
ENDMDL
MODEL 4
REMARK VINA RESULT:      -8.9      2.135      2.430
REMARK  8 active torsions:
REMARK  status: ('A' for Active; 'I' for Inactive)
REMARK    1  A    between atoms: C_10  and  C_11 
REMARK    2  A    between atoms: C_11  and  C_12 
REMARK       I    between atoms: C_12  and  N_13 
REMARK    3  A    between atoms: N_13  and  N_14 
REMARK       I    between atoms: N_14  and  C_15 
REMARK    4  A    between atoms: C_15  and  C_16 
REMARK    5  A    between atoms: C_16  and  C_17 
REMARK    6  A    between atoms: C_17  and  C_18 
REMARK       I    between atoms: C_18  and  N_19 
REMARK    7  A    between atoms: N_19  and  C_20 
REMARK    8  A    between atoms: C_20  and  C_21 
ROOT
HETATM    1  C   UNL     1      24.890  45.147  51.566  1.00  0.00     0.240 C 
HETATM    2  N   UNL     1      23.748  44.769  50.886  1.00  0.00    -0.267 N 
HETATM    3  O   UNL     1      25.534  46.150  51.256  1.00  0.00    -0.272 OA
HETATM    4  H   UNL     1      23.109  44.049  51.221  1.00  0.00     0.190 HD
ENDROOT
BRANCH   2   5
HETATM    5  N   UNL     1      23.304  45.585  49.843  1.00  0.00    -0.268 N 
HETATM    6  C   UNL     1      22.308  45.115  49.016  1.00  0.00     0.236 C 
HETATM    7  O   UNL     1      21.670  44.089  49.247  1.00  0.00    -0.272 OA
HETATM    8  H   UNL     1      23.899  46.382  49.612  1.00  0.00     0.190 HD
BRANCH   6   9
HETATM    9  C   UNL     1      22.068  46.002  47.813  1.00  0.00     0.114 C 
BRANCH   9  10
HETATM   10  C   UNL     1      21.903  47.465  48.197  1.00  0.00     0.112 C 
BRANCH  10  11
HETATM   11  C   UNL     1      20.508  47.724  48.721  1.00  0.00     0.218 C 
HETATM   12  N   UNL     1      20.451  48.613  49.763  1.00  0.00    -0.355 N 
HETATM   13  H   UNL     1      21.267  49.197  49.946  1.00  0.00     0.162 HD
HETATM   14  O   UNL     1      19.519  47.196  48.221  1.00  0.00    -0.274 OA
BRANCH  12  15
HETATM   15  C   UNL     1      19.178  49.069  50.270  1.00  0.00     0.187 C 
BRANCH  15  16
HETATM   16  C   UNL     1      18.928  50.437  49.764  1.00  0.00     0.070 A 
HETATM   17  O   UNL     1      17.853  51.098  50.285  1.00  0.00    -0.325 OA
HETATM   18  C   UNL     1      17.807  52.315  49.684  1.00  0.00     0.142 A 
HETATM   19  C   UNL     1      18.835  52.446  48.781  1.00  0.00     0.027 A 
HETATM   20  C   UNL     1      19.561  51.233  48.830  1.00  0.00     0.036 A 
ENDBRANCH  15  16
ENDBRANCH  12  15
ENDBRANCH  10  11
ENDBRANCH   9  10
ENDBRANCH   6   9
ENDBRANCH   2   5
BRANCH   1  21
HETATM   21  C   UNL     1      25.298  44.200  52.669  1.00  0.00     0.146 C 
BRANCH  21  22
HETATM   22  C   UNL     1      26.610  43.492  52.498  1.00  0.00    -0.015 A 
HETATM   23  C   UNL     1      27.837  43.603  53.246  1.00  0.00    -0.000 A 
HETATM   24  C   UNL     1      28.282  44.379  54.342  1.00  0.00     0.021 A 
HETATM   25  C   UNL     1      28.740  42.692  52.698  1.00  0.00     0.043 A 
HETATM   26  C   UNL     1      29.586  44.226  54.847  1.00  0.00    -0.061 A 
HETATM   27  C   UNL     1      30.041  45.031  56.030  1.00  0.00     0.048 C 
HETATM   28  C   UNL     1      30.444  43.286  54.274  1.00  0.00     0.009 A 
HETATM   29  C   UNL     1      30.040  42.510  53.187  1.00  0.00     0.031 A 
HETATM   30  N   UNL     1      28.111  42.067  51.652  1.00  0.00    -0.359 N 
HETATM   31  H   UNL     1      28.541  41.361  51.072  1.00  0.00     0.166 HD
HETATM   32  C   UNL     1      26.829  42.527  51.519  1.00  0.00     0.013 A 
HETATM   33  C   UNL     1      25.925  42.000  50.461  1.00  0.00     0.068 C 
ENDBRANCH  21  22
ENDBRANCH   1  21
TORSDOF 8
ENDMDL
MODEL 5
REMARK VINA RESULT:      -8.8      2.161      3.832
REMARK  8 active torsions:
REMARK  status: ('A' for Active; 'I' for Inactive)
REMARK    1  A    between atoms: C_10  and  C_11 
REMARK    2  A    between atoms: C_11  and  C_12 
REMARK       I    between atoms: C_12  and  N_13 
REMARK    3  A    between atoms: N_13  and  N_14 
REMARK       I    between atoms: N_14  and  C_15 
REMARK    4  A    between atoms: C_15  and  C_16 
REMARK    5  A    between atoms: C_16  and  C_17 
REMARK    6  A    between atoms: C_17  and  C_18 
REMARK       I    between atoms: C_18  and  N_19 
REMARK    7  A    between atoms: N_19  and  C_20 
REMARK    8  A    between atoms: C_20  and  C_21 
ROOT
HETATM    1  C   UNL     1      25.127  44.721  51.382  1.00  0.00     0.240 C 
HETATM    2  N   UNL     1      23.806  44.689  50.977  1.00  0.00    -0.267 N 
HETATM    3  O   UNL     1      25.965  45.429  50.823  1.00  0.00    -0.272 OA
HETATM    4  H   UNL     1      23.064  44.248  51.520  1.00  0.00     0.190 HD
ENDROOT
BRANCH   2   5
HETATM    5  N   UNL     1      23.421  45.524  49.925  1.00  0.00    -0.268 N 
HETATM    6  C   UNL     1      22.419  45.101  49.080  1.00  0.00     0.236 C 
HETATM    7  O   UNL     1      21.729  44.106  49.300  1.00  0.00    -0.272 OA
HETATM    8  H   UNL     1      24.057  46.291  49.705  1.00  0.00     0.190 HD
BRANCH   6   9
HETATM    9  C   UNL     1      22.244  45.996  47.872  1.00  0.00     0.114 C 
BRANCH   9  10
HETATM   10  C   UNL     1      21.159  47.042  48.081  1.00  0.00     0.112 C 
BRANCH  10  11
HETATM   11  C   UNL     1      21.764  48.356  48.521  1.00  0.00     0.218 C 
HETATM   12  N   UNL     1      23.082  48.517  48.177  1.00  0.00    -0.355 N 
HETATM   13  H   UNL     1      23.478  47.890  47.475  1.00  0.00     0.162 HD
HETATM   14  O   UNL     1      21.106  49.209  49.109  1.00  0.00    -0.274 OA
BRANCH  12  15
HETATM   15  C   UNL     1      23.751  49.776  48.400  1.00  0.00     0.187 C 
BRANCH  15  16
HETATM   16  C   UNL     1      25.181  49.512  48.677  1.00  0.00     0.070 A 
HETATM   17  O   UNL     1      25.458  48.565  49.620  1.00  0.00    -0.325 OA
HETATM   18  C   UNL     1      26.811  48.489  49.718  1.00  0.00     0.142 A 
HETATM   19  C   UNL     1      27.408  49.376  48.854  1.00  0.00     0.027 A 
HETATM   20  C   UNL     1      26.356  50.039  48.180  1.00  0.00     0.036 A 
ENDBRANCH  15  16
ENDBRANCH  12  15
ENDBRANCH  10  11
ENDBRANCH   9  10
ENDBRANCH   6   9
ENDBRANCH   2   5
BRANCH   1  21
HETATM   21  C   UNL     1      25.451  43.780  52.517  1.00  0.00     0.146 C 
BRANCH  21  22
HETATM   22  C   UNL     1      26.833  43.196  52.534  1.00  0.00    -0.015 A 
HETATM   23  C   UNL     1      27.966  43.498  53.371  1.00  0.00    -0.000 A 
HETATM   24  C   UNL     1      28.230  44.413  54.418  1.00  0.00     0.021 A 
HETATM   25  C   UNL     1      28.999  42.637  53.000  1.00  0.00     0.043 A 
HETATM   26  C   UNL     1      29.487  44.439  55.048  1.00  0.00    -0.061 A 
HETATM   27  C   UNL     1      29.749  45.392  56.180  1.00  0.00     0.048 C 
HETATM   28  C   UNL     1      30.480  43.543  54.650  1.00  0.00     0.009 A 
HETATM   29  C   UNL     1      30.256  42.633  53.616  1.00  0.00     0.031 A 
HETATM   30  N   UNL     1      28.534  41.858  51.971  1.00  0.00    -0.359 N 
HETATM   31  H   UNL     1      29.082  41.149  51.505  1.00  0.00     0.166 HD
HETATM   32  C   UNL     1      27.234  42.172  51.680  1.00  0.00     0.013 A 
HETATM   33  C   UNL     1      26.490  41.461  50.606  1.00  0.00     0.068 C 
ENDBRANCH  21  22
ENDBRANCH   1  21
TORSDOF 8
ENDMDL
MODEL 6
REMARK VINA RESULT:      -8.5      2.918      4.646
REMARK  8 active torsions:
REMARK  status: ('A' for Active; 'I' for Inactive)
REMARK    1  A    between atoms: C_10  and  C_11 
REMARK    2  A    between atoms: C_11  and  C_12 
REMARK       I    between atoms: C_12  and  N_13 
REMARK    3  A    between atoms: N_13  and  N_14 
REMARK       I    between atoms: N_14  and  C_15 
REMARK    4  A    between atoms: C_15  and  C_16 
REMARK    5  A    between atoms: C_16  and  C_17 
REMARK    6  A    between atoms: C_17  and  C_18 
REMARK       I    between atoms: C_18  and  N_19 
REMARK    7  A    between atoms: N_19  and  C_20 
REMARK    8  A    between atoms: C_20  and  C_21 
ROOT
HETATM    1  C   UNL     1      25.157  45.474  52.782  1.00  0.00     0.240 C 
HETATM    2  N   UNL     1      24.591  45.558  51.524  1.00  0.00    -0.267 N 
HETATM    3  O   UNL     1      24.906  44.546  53.550  1.00  0.00    -0.272 OA
HETATM    4  H   UNL     1      24.906  46.216  50.810  1.00  0.00     0.190 HD
ENDROOT
BRANCH   2   5
HETATM    5  N   UNL     1      23.743  44.527  51.114  1.00  0.00    -0.268 N 
HETATM    6  C   UNL     1      24.107  43.767  50.025  1.00  0.00     0.236 C 
HETATM    7  O   UNL     1      25.216  43.836  49.497  1.00  0.00    -0.272 OA
HETATM    8  H   UNL     1      22.797  44.544  51.499  1.00  0.00     0.190 HD
BRANCH   6   9
HETATM    9  C   UNL     1      23.011  42.829  49.563  1.00  0.00     0.114 C 
BRANCH   9  10
HETATM   10  C   UNL     1      22.462  43.211  48.196  1.00  0.00     0.112 C 
BRANCH  10  11
HETATM   11  C   UNL     1      21.732  44.533  48.265  1.00  0.00     0.218 C 
HETATM   12  N   UNL     1      22.321  45.544  47.550  1.00  0.00    -0.355 N 
HETATM   13  H   UNL     1      23.030  45.297  46.859  1.00  0.00     0.162 HD
HETATM   14  O   UNL     1      20.684  44.663  48.891  1.00  0.00    -0.274 OA
BRANCH  12  15
HETATM   15  C   UNL     1      21.663  46.820  47.404  1.00  0.00     0.187 C 
BRANCH  15  16
HETATM   16  C   UNL     1      22.519  47.868  48.002  1.00  0.00     0.070 A 
HETATM   17  O   UNL     1      22.466  49.106  47.429  1.00  0.00    -0.325 OA
HETATM   18  C   UNL     1      23.323  49.899  48.123  1.00  0.00     0.142 A 
HETATM   19  C   UNL     1      23.928  49.190  49.132  1.00  0.00     0.027 A 
HETATM   20  C   UNL     1      23.411  47.875  49.056  1.00  0.00     0.036 A 
ENDBRANCH  15  16
ENDBRANCH  12  15
ENDBRANCH  10  11
ENDBRANCH   9  10
ENDBRANCH   6   9
ENDBRANCH   2   5
BRANCH   1  21
HETATM   21  C   UNL     1      26.051  46.637  53.139  1.00  0.00     0.146 C 
BRANCH  21  22
HETATM   22  C   UNL     1      27.071  46.396  54.214  1.00  0.00    -0.015 A 
HETATM   23  C   UNL     1      28.084  45.378  54.331  1.00  0.00    -0.000 A 
HETATM   24  C   UNL     1      28.484  44.262  53.560  1.00  0.00     0.021 A 
HETATM   25  C   UNL     1      28.793  45.632  55.506  1.00  0.00     0.043 A 
HETATM   26  C   UNL     1      29.557  43.452  53.974  1.00  0.00    -0.061 A 
HETATM   27  C   UNL     1      29.997  42.287  53.134  1.00  0.00     0.048 C 
HETATM   28  C   UNL     1      30.245  43.761  55.149  1.00  0.00     0.009 A 
HETATM   29  C   UNL     1      29.871  44.850  55.937  1.00  0.00     0.031 A 
HETATM   30  N   UNL     1      28.233  46.737  56.094  1.00  0.00    -0.359 N 
HETATM   31  H   UNL     1      28.550  47.138  56.965  1.00  0.00     0.166 HD
HETATM   32  C   UNL     1      27.202  47.216  55.331  1.00  0.00     0.013 A 
HETATM   33  C   UNL     1      26.431  48.420  55.743  1.00  0.00     0.068 C 
ENDBRANCH  21  22
ENDBRANCH   1  21
TORSDOF 8
ENDMDL
MODEL 7
REMARK VINA RESULT:      -8.3      3.906      6.260
REMARK  8 active torsions:
REMARK  status: ('A' for Active; 'I' for Inactive)
REMARK    1  A    between atoms: C_10  and  C_11 
REMARK    2  A    between atoms: C_11  and  C_12 
REMARK       I    between atoms: C_12  and  N_13 
REMARK    3  A    between atoms: N_13  and  N_14 
REMARK       I    between atoms: N_14  and  C_15 
REMARK    4  A    between atoms: C_15  and  C_16 
REMARK    5  A    between atoms: C_16  and  C_17 
REMARK    6  A    between atoms: C_17  and  C_18 
REMARK       I    between atoms: C_18  and  N_19 
REMARK    7  A    between atoms: N_19  and  C_20 
REMARK    8  A    between atoms: C_20  and  C_21 
ROOT
HETATM    1  C   UNL     1      29.405  42.741  52.941  1.00  0.00     0.240 C 
HETATM    2  N   UNL     1      28.268  41.980  52.748  1.00  0.00    -0.267 N 
HETATM    3  O   UNL     1      29.923  43.385  52.029  1.00  0.00    -0.272 OA
HETATM    4  H   UNL     1      27.726  41.577  53.512  1.00  0.00     0.190 HD
ENDROOT
BRANCH   2   5
HETATM    5  N   UNL     1      27.680  41.987  51.480  1.00  0.00    -0.268 N 
HETATM    6  C   UNL     1      27.963  40.953  50.616  1.00  0.00     0.236 C 
HETATM    7  O   UNL     1      28.568  39.938  50.958  1.00  0.00    -0.272 OA
HETATM    8  H   UNL     1      27.262  42.870  51.185  1.00  0.00     0.190 HD
BRANCH   6   9
HETATM    9  C   UNL     1      27.434  41.187  49.217  1.00  0.00     0.114 C 
BRANCH   9  10
HETATM   10  C   UNL     1      25.944  40.899  49.107  1.00  0.00     0.112 C 
BRANCH  10  11
HETATM   11  C   UNL     1      25.136  42.086  49.580  1.00  0.00     0.218 C 
HETATM   12  N   UNL     1      25.012  43.091  48.656  1.00  0.00    -0.355 N 
HETATM   13  H   UNL     1      25.245  42.886  47.684  1.00  0.00     0.162 HD
HETATM   14  O   UNL     1      24.616  42.115  50.692  1.00  0.00    -0.274 OA
BRANCH  12  15
HETATM   15  C   UNL     1      24.150  44.221  48.911  1.00  0.00     0.187 C 
BRANCH  15  16
HETATM   16  C   UNL     1      24.982  45.366  49.344  1.00  0.00     0.070 A 
HETATM   17  O   UNL     1      24.333  46.544  49.574  1.00  0.00    -0.325 OA
HETATM   18  C   UNL     1      25.275  47.447  49.950  1.00  0.00     0.142 A 
HETATM   19  C   UNL     1      26.521  46.868  49.963  1.00  0.00     0.027 A 
HETATM   20  C   UNL     1      26.335  45.521  49.571  1.00  0.00     0.036 A 
ENDBRANCH  15  16
ENDBRANCH  12  15
ENDBRANCH  10  11
ENDBRANCH   9  10
ENDBRANCH   6   9
ENDBRANCH   2   5
BRANCH   1  21
HETATM   21  C   UNL     1      29.973  42.663  54.338  1.00  0.00     0.146 C 
BRANCH  21  22
HETATM   22  C   UNL     1      29.814  43.882  55.198  1.00  0.00    -0.015 A 
HETATM   23  C   UNL     1      28.863  44.963  55.122  1.00  0.00    -0.000 A 
HETATM   24  C   UNL     1      27.795  45.306  54.261  1.00  0.00     0.021 A 
HETATM   25  C   UNL     1      29.126  45.823  56.189  1.00  0.00     0.043 A 
HETATM   26  C   UNL     1      27.037  46.470  54.485  1.00  0.00    -0.061 A 
HETATM   27  C   UNL     1      25.885  46.811  53.585  1.00  0.00     0.048 C 
HETATM   28  C   UNL     1      27.331  47.287  55.579  1.00  0.00     0.009 A 
HETATM   29  C   UNL     1      28.383  46.982  56.443  1.00  0.00     0.031 A 
HETATM   30  N   UNL     1      30.198  45.310  56.875  1.00  0.00    -0.359 N 
HETATM   31  H   UNL     1      30.604  45.741  57.694  1.00  0.00     0.166 HD
HETATM   32  C   UNL     1      30.621  44.142  56.302  1.00  0.00     0.013 A 
HETATM   33  C   UNL     1      31.767  43.377  56.864  1.00  0.00     0.068 C 
ENDBRANCH  21  22
ENDBRANCH   1  21
TORSDOF 8
ENDMDL
MODEL 8
REMARK VINA RESULT:      -8.3      1.715      2.195
REMARK  8 active torsions:
REMARK  status: ('A' for Active; 'I' for Inactive)
REMARK    1  A    between atoms: C_10  and  C_11 
REMARK    2  A    between atoms: C_11  and  C_12 
REMARK       I    between atoms: C_12  and  N_13 
REMARK    3  A    between atoms: N_13  and  N_14 
REMARK       I    between atoms: N_14  and  C_15 
REMARK    4  A    between atoms: C_15  and  C_16 
REMARK    5  A    between atoms: C_16  and  C_17 
REMARK    6  A    between atoms: C_17  and  C_18 
REMARK       I    between atoms: C_18  and  N_19 
REMARK    7  A    between atoms: N_19  and  C_20 
REMARK    8  A    between atoms: C_20  and  C_21 
ROOT
HETATM    1  C   UNL     1      25.512  44.006  51.522  1.00  0.00     0.240 C 
HETATM    2  N   UNL     1      25.993  44.784  50.487  1.00  0.00    -0.267 N 
HETATM    3  O   UNL     1      24.378  44.156  51.980  1.00  0.00    -0.272 OA
HETATM    4  H   UNL     1      26.853  44.575  49.981  1.00  0.00     0.190 HD
ENDROOT
BRANCH   2   5
HETATM    5  N   UNL     1      25.137  45.737  49.928  1.00  0.00    -0.268 N 
HETATM    6  C   UNL     1      25.326  47.063  50.250  1.00  0.00     0.236 C 
HETATM    7  O   UNL     1      26.309  47.472  50.866  1.00  0.00    -0.272 OA
HETATM    8  H   UNL     1      24.283  45.377  49.500  1.00  0.00     0.190 HD
BRANCH   6   9
HETATM    9  C   UNL     1      24.214  47.960  49.749  1.00  0.00     0.114 C 
BRANCH   9  10
HETATM   10  C   UNL     1      24.740  49.123  48.921  1.00  0.00     0.112 C 
BRANCH  10  11
HETATM   11  C   UNL     1      23.597  49.901  48.309  1.00  0.00     0.218 C 
HETATM   12  N   UNL     1      22.567  50.169  49.173  1.00  0.00    -0.355 N 
HETATM   13  H   UNL     1      22.733  50.054  50.173  1.00  0.00     0.162 HD
HETATM   14  O   UNL     1      23.621  50.278  47.141  1.00  0.00    -0.274 OA
BRANCH  12  15
HETATM   15  C   UNL     1      21.476  51.026  48.772  1.00  0.00     0.187 C 
BRANCH  15  16
HETATM   16  C   UNL     1      20.215  50.254  48.844  1.00  0.00     0.070 A 
HETATM   17  O   UNL     1      20.173  49.228  49.742  1.00  0.00    -0.325 OA
HETATM   18  C   UNL     1      18.943  48.661  49.637  1.00  0.00     0.142 A 
HETATM   19  C   UNL     1      18.194  49.305  48.682  1.00  0.00     0.027 A 
HETATM   20  C   UNL     1      19.015  50.336  48.166  1.00  0.00     0.036 A 
ENDBRANCH  15  16
ENDBRANCH  12  15
ENDBRANCH  10  11
ENDBRANCH   9  10
ENDBRANCH   6   9
ENDBRANCH   2   5
BRANCH   1  21
HETATM   21  C   UNL     1      26.509  43.013  52.068  1.00  0.00     0.146 C 
BRANCH  21  22
HETATM   22  C   UNL     1      27.543  43.548  53.015  1.00  0.00    -0.015 A 
HETATM   23  C   UNL     1      27.575  44.776  53.768  1.00  0.00    -0.000 A 
HETATM   24  C   UNL     1      26.730  45.904  53.893  1.00  0.00     0.021 A 
HETATM   25  C   UNL     1      28.745  44.767  54.527  1.00  0.00     0.043 A 
HETATM   26  C   UNL     1      27.069  46.963  54.755  1.00  0.00    -0.061 A 
HETATM   27  C   UNL     1      26.151  48.141  54.907  1.00  0.00     0.048 C 
HETATM   28  C   UNL     1      28.243  46.894  55.507  1.00  0.00     0.009 A 
HETATM   29  C   UNL     1      29.104  45.801  55.401  1.00  0.00     0.031 A 
HETATM   30  N   UNL     1      29.411  43.602  54.242  1.00  0.00    -0.359 N 
HETATM   31  H   UNL     1      30.297  43.341  54.651  1.00  0.00     0.166 HD
HETATM   32  C   UNL     1      28.704  42.852  53.342  1.00  0.00     0.013 A 
HETATM   33  C   UNL     1      29.205  41.533  52.873  1.00  0.00     0.068 C 
ENDBRANCH  21  22
ENDBRANCH   1  21
TORSDOF 8
ENDMDL
MODEL 9
REMARK VINA RESULT:      -8.2     11.372     13.630
REMARK  8 active torsions:
REMARK  status: ('A' for Active; 'I' for Inactive)
REMARK    1  A    between atoms: C_10  and  C_11 
REMARK    2  A    between atoms: C_11  and  C_12 
REMARK       I    between atoms: C_12  and  N_13 
REMARK    3  A    between atoms: N_13  and  N_14 
REMARK       I    between atoms: N_14  and  C_15 
REMARK    4  A    between atoms: C_15  and  C_16 
REMARK    5  A    between atoms: C_16  and  C_17 
REMARK    6  A    between atoms: C_17  and  C_18 
REMARK       I    between atoms: C_18  and  N_19 
REMARK    7  A    between atoms: N_19  and  C_20 
REMARK    8  A    between atoms: C_20  and  C_21 
ROOT
HETATM    1  C   UNL     1      27.885  51.664  40.633  1.00  0.00     0.240 C 
HETATM    2  N   UNL     1      27.176  51.441  39.467  1.00  0.00    -0.267 N 
HETATM    3  O   UNL     1      27.597  51.103  41.690  1.00  0.00    -0.272 OA
HETATM    4  H   UNL     1      27.491  51.758  38.550  1.00  0.00     0.190 HD
ENDROOT
BRANCH   2   5
HETATM    5  N   UNL     1      26.130  50.516  39.501  1.00  0.00    -0.268 N 
HETATM    6  C   UNL     1      25.827  49.821  38.351  1.00  0.00     0.236 C 
HETATM    7  O   UNL     1      26.534  49.846  37.344  1.00  0.00    -0.272 OA
HETATM    8  H   UNL     1      25.504  50.575  40.305  1.00  0.00     0.190 HD
BRANCH   6   9
HETATM    9  C   UNL     1      24.553  49.012  38.465  1.00  0.00     0.114 C 
BRANCH   9  10
HETATM   10  C   UNL     1      24.624  47.975  39.577  1.00  0.00     0.112 C 
BRANCH  10  11
HETATM   11  C   UNL     1      25.819  47.070  39.385  1.00  0.00     0.218 C 
HETATM   12  N   UNL     1      26.684  47.039  40.449  1.00  0.00    -0.355 N 
HETATM   13  H   UNL     1      26.362  47.410  41.344  1.00  0.00     0.162 HD
HETATM   14  O   UNL     1      25.970  46.402  38.366  1.00  0.00    -0.274 OA
BRANCH  12  15
HETATM   15  C   UNL     1      27.790  46.112  40.471  1.00  0.00     0.187 C 
BRANCH  15  16
HETATM   16  C   UNL     1      29.055  46.881  40.439  1.00  0.00     0.070 A 
HETATM   17  O   UNL     1      30.120  46.285  39.829  1.00  0.00    -0.325 OA
HETATM   18  C   UNL     1      31.162  47.151  39.919  1.00  0.00     0.142 A 
HETATM   19  C   UNL     1      30.784  48.294  40.583  1.00  0.00     0.027 A 
HETATM   20  C   UNL     1      29.422  48.121  40.921  1.00  0.00     0.036 A 
ENDBRANCH  15  16
ENDBRANCH  12  15
ENDBRANCH  10  11
ENDBRANCH   9  10
ENDBRANCH   6   9
ENDBRANCH   2   5
BRANCH   1  21
HETATM   21  C   UNL     1      28.989  52.686  40.502  1.00  0.00     0.146 C 
BRANCH  21  22
HETATM   22  C   UNL     1      30.382  52.154  40.338  1.00  0.00    -0.015 A 
HETATM   23  C   UNL     1      31.412  51.913  41.316  1.00  0.00    -0.000 A 
HETATM   24  C   UNL     1      31.535  52.090  42.715  1.00  0.00     0.021 A 
HETATM   25  C   UNL     1      32.508  51.374  40.641  1.00  0.00     0.043 A 
HETATM   26  C   UNL     1      32.720  51.730  43.382  1.00  0.00    -0.061 A 
HETATM   27  C   UNL     1      32.831  51.892  44.871  1.00  0.00     0.048 C 
HETATM   28  C   UNL     1      33.780  51.178  42.661  1.00  0.00     0.009 A 
HETATM   29  C   UNL     1      33.696  50.997  41.280  1.00  0.00     0.031 A 
HETATM   30  N   UNL     1      32.179  51.305  39.311  1.00  0.00    -0.359 N 
HETATM   31  H   UNL     1      32.796  50.958  38.592  1.00  0.00     0.166 HD
HETATM   32  C   UNL     1      30.904  51.761  39.108  1.00  0.00     0.013 A 
HETATM   33  C   UNL     1      30.299  51.782  37.749  1.00  0.00     0.068 C 
ENDBRANCH  21  22
ENDBRANCH   1  21
TORSDOF 8
ENDMDL
MODEL 10
REMARK VINA RESULT:      -8.2      4.859      8.323
REMARK  8 active torsions:
REMARK  status: ('A' for Active; 'I' for Inactive)
REMARK    1  A    between atoms: C_10  and  C_11 
REMARK    2  A    between atoms: C_11  and  C_12 
REMARK       I    between atoms: C_12  and  N_13 
REMARK    3  A    between atoms: N_13  and  N_14 
REMARK       I    between atoms: N_14  and  C_15 
REMARK    4  A    between atoms: C_15  and  C_16 
REMARK    5  A    between atoms: C_16  and  C_17 
REMARK    6  A    between atoms: C_17  and  C_18 
REMARK       I    between atoms: C_18  and  N_19 
REMARK    7  A    between atoms: N_19  and  C_20 
REMARK    8  A    between atoms: C_20  and  C_21 
ROOT
HETATM    1  C   UNL     1      25.385  45.748  52.287  1.00  0.00     0.240 C 
HETATM    2  N   UNL     1      24.505  44.712  52.040  1.00  0.00    -0.267 N 
HETATM    3  O   UNL     1      25.987  46.324  51.380  1.00  0.00    -0.272 OA
HETATM    4  H   UNL     1      23.873  44.333  52.745  1.00  0.00     0.190 HD
ENDROOT
BRANCH   2   5
HETATM    5  N   UNL     1      24.274  44.349  50.711  1.00  0.00    -0.268 N 
HETATM    6  C   UNL     1      24.907  43.231  50.213  1.00  0.00     0.236 C 
HETATM    7  O   UNL     1      25.530  42.440  50.920  1.00  0.00    -0.272 OA
HETATM    8  H   UNL     1      23.836  45.057  50.122  1.00  0.00     0.190 HD
BRANCH   6   9
HETATM    9  C   UNL     1      24.737  43.070  48.717  1.00  0.00     0.114 C 
BRANCH   9  10
HETATM   10  C   UNL     1      24.326  41.656  48.333  1.00  0.00     0.112 C 
BRANCH  10  11
HETATM   11  C   UNL     1      25.464  40.939  47.642  1.00  0.00     0.218 C 
HETATM   12  N   UNL     1      26.692  41.522  47.820  1.00  0.00    -0.355 N 
HETATM   13  H   UNL     1      26.795  42.215  48.563  1.00  0.00     0.162 HD
HETATM   14  O   UNL     1      25.287  39.905  47.004  1.00  0.00    -0.274 OA
BRANCH  12  15
HETATM   15  C   UNL     1      27.890  40.873  47.344  1.00  0.00     0.187 C 
BRANCH  15  16
HETATM   16  C   UNL     1      28.366  39.933  48.383  1.00  0.00     0.070 A 
HETATM   17  O   UNL     1      28.822  38.721  47.953  1.00  0.00    -0.325 OA
HETATM   18  C   UNL     1      29.198  38.025  49.057  1.00  0.00     0.142 A 
HETATM   19  C   UNL     1      28.988  38.771  50.192  1.00  0.00     0.027 A 
HETATM   20  C   UNL     1      28.449  40.005  49.759  1.00  0.00     0.036 A 
ENDBRANCH  15  16
ENDBRANCH  12  15
ENDBRANCH  10  11
ENDBRANCH   9  10
ENDBRANCH   6   9
ENDBRANCH   2   5
BRANCH   1  21
HETATM   21  C   UNL     1      25.578  46.063  53.751  1.00  0.00     0.146 C 
BRANCH  21  22
HETATM   22  C   UNL     1      26.945  45.812  54.319  1.00  0.00    -0.015 A 
HETATM   23  C   UNL     1      27.767  44.629  54.290  1.00  0.00    -0.000 A 
HETATM   24  C   UNL     1      27.626  43.316  53.782  1.00  0.00     0.021 A 
HETATM   25  C   UNL     1      28.966  44.941  54.931  1.00  0.00     0.043 A 
HETATM   26  C   UNL     1      28.663  42.377  53.923  1.00  0.00    -0.061 A 
HETATM   27  C   UNL     1      28.518  40.995  53.353  1.00  0.00     0.048 C 
HETATM   28  C   UNL     1      29.850  42.747  54.557  1.00  0.00     0.009 A 
HETATM   29  C   UNL     1      30.019  44.031  55.077  1.00  0.00     0.031 A 
HETATM   30  N   UNL     1      28.880  46.244  55.352  1.00  0.00    -0.359 N 
HETATM   31  H   UNL     1      29.612  46.727  55.854  1.00  0.00     0.166 HD
HETATM   32  C   UNL     1      27.678  46.788  54.988  1.00  0.00     0.013 A 
HETATM   33  C   UNL     1      27.338  48.198  55.318  1.00  0.00     0.068 C 
ENDBRANCH  21  22
ENDBRANCH   1  21
TORSDOF 8
ENDMDL
