MODEL 1
REMARK VINA RESULT:      -9.2      0.000      0.000
REMARK  5 active torsions:
REMARK  status: ('A' for Active; 'I' for Inactive)
REMARK    1  A    between atoms: C_2  and  C_3 
REMARK    2  A    between atoms: C_3  and  N_4 
REMARK    3  A    between atoms: N_8  and  C_10 
REMARK    4  A    between atoms: C_10  and  C_11 
REMARK    5  A    between atoms: C_14  and  C_15 
ROOT
HETATM    1  N   UNL     1      27.358  43.613  53.122  1.00  0.00     0.104 N 
HETATM    2  C   UNL     1      26.944  43.354  51.684  1.00  0.00     0.206 C 
HETATM    3  C   UNL     1      27.291  44.519  50.725  1.00  0.00     0.076 C 
HETATM    4  C   UNL     1      26.587  45.808  51.139  1.00  0.00     0.238 C 
HETATM    5  N   UNL     1      25.085  45.632  51.099  1.00  0.00    -0.065 N 
HETATM    6  H   UNL     1      24.716  46.483  51.551  1.00  0.00     0.280 HD
HETATM    7  C   UNL     1      24.644  44.484  51.972  1.00  0.00     0.238 C 
HETATM    8  C   UNL     1      25.393  43.199  51.611  1.00  0.00     0.076 C 
HETATM    9  C   UNL     1      27.583  42.062  51.211  1.00  0.00     0.072 A 
HETATM   10  C   UNL     1      28.082  41.090  52.055  1.00  0.00     0.037 A 
HETATM   11  N   UNL     1      28.564  40.082  51.251  1.00  0.00    -0.354 N 
HETATM   12  H   UNL     1      29.011  39.225  51.578  1.00  0.00     0.166 HD
HETATM   13  C   UNL     1      28.389  40.387  49.961  1.00  0.00     0.181 A 
HETATM   14  N   UNL     1      27.785  41.586  49.927  1.00  0.00    -0.352 N 
HETATM   15  H   UNL     1      27.553  42.052  49.052  1.00  0.00     0.166 HD
HETATM   16  C   UNL     1      28.120  41.177  53.526  1.00  0.00     0.089 C 
HETATM   17  C   UNL     1      27.243  42.375  53.973  1.00  0.00     0.280 C 
ENDROOT
BRANCH   1  18
HETATM   18  C   UNL     1      28.713  44.216  53.280  1.00  0.00     0.273 C 
BRANCH  18  19
HETATM   19  C   UNL     1      29.158  44.489  54.726  1.00  0.00     0.026 C 
HETATM   20  C   UNL     1      30.423  43.736  55.115  1.00  0.00     0.007 C 
ENDBRANCH  18  19
ENDBRANCH   1  18
BRANCH   5  21
HETATM   21  C   UNL     1      24.425  45.654  49.716  1.00  0.00     0.301 C 
BRANCH  21  22
HETATM   22  C   UNL     1      23.824  46.959  49.384  1.00  0.00     0.107 A 
HETATM   23  O   UNL     1      24.242  47.993  50.157  1.00  0.00    -0.216 OA
HETATM   24  N   UNL     1      23.439  49.083  49.937  1.00  0.00    -0.128 NA
HETATM   25  C   UNL     1      22.573  48.735  48.971  1.00  0.00     0.097 A 
HETATM   26  C   UNL     1      22.822  47.395  48.553  1.00  0.00     0.071 A 
BRANCH  25  27
HETATM   27  C   UNL     1      21.491  49.615  48.544  1.00  0.00    -0.005 A 
HETATM   28  C   UNL     1      21.347  50.883  49.129  1.00  0.00     0.014 A 
HETATM   29  C   UNL     1      20.273  51.705  48.784  1.00  0.00     0.001 A 
HETATM   30  C   UNL     1      19.341  51.274  47.844  1.00  0.00     0.000 A 
HETATM   31  C   UNL     1      19.483  50.023  47.244  1.00  0.00     0.001 A 
HETATM   32  C   UNL     1      20.552  49.193  47.594  1.00  0.00     0.014 A 
ENDBRANCH  25  27
ENDBRANCH  21  22
ENDBRANCH   5  21
TORSDOF 5
ENDMDL
MODEL 2
REMARK VINA RESULT:      -8.7      1.852      3.593
REMARK  5 active torsions:
REMARK  status: ('A' for Active; 'I' for Inactive)
REMARK    1  A    between atoms: C_2  and  C_3 
REMARK    2  A    between atoms: C_3  and  N_4 
REMARK    3  A    between atoms: N_8  and  C_10 
REMARK    4  A    between atoms: C_10  and  C_11 
REMARK    5  A    between atoms: C_14  and  C_15 
ROOT
HETATM    1  N   UNL     1      26.157  43.152  50.390  1.00  0.00     0.104 N 
HETATM    2  C   UNL     1      25.744  44.297  51.298  1.00  0.00     0.206 C 
HETATM    3  C   UNL     1      24.261  44.710  51.133  1.00  0.00     0.076 C 
HETATM    4  C   UNL     1      23.970  45.176  49.710  1.00  0.00     0.238 C 
HETATM    5  N   UNL     1      24.808  46.386  49.362  1.00  0.00    -0.065 N 
HETATM    6  H   UNL     1      24.667  46.513  48.348  1.00  0.00     0.280 HD
HETATM    7  C   UNL     1      26.279  46.102  49.536  1.00  0.00     0.238 C 
HETATM    8  C   UNL     1      26.575  45.568  50.939  1.00  0.00     0.076 C 
HETATM    9  C   UNL     1      26.038  43.918  52.737  1.00  0.00     0.072 A 
HETATM   10  C   UNL     1      26.910  42.915  53.111  1.00  0.00     0.037 A 
HETATM   11  N   UNL     1      26.907  42.886  54.488  1.00  0.00    -0.354 N 
HETATM   12  H   UNL     1      27.443  42.240  55.069  1.00  0.00     0.166 HD
HETATM   13  C   UNL     1      26.079  43.815  54.975  1.00  0.00     0.181 A 
HETATM   14  N   UNL     1      25.551  44.454  53.917  1.00  0.00    -0.352 N 
HETATM   15  H   UNL     1      24.871  45.204  54.020  1.00  0.00     0.166 HD
HETATM   16  C   UNL     1      27.642  42.033  52.184  1.00  0.00     0.089 C 
HETATM   17  C   UNL     1      27.516  42.609  50.751  1.00  0.00     0.280 C 
ENDROOT
BRANCH   1  18
HETATM   18  C   UNL     1      25.169  42.039  50.306  1.00  0.00     0.273 C 
BRANCH  18  19
HETATM   19  C   UNL     1      24.820  41.560  48.887  1.00  0.00     0.026 C 
HETATM   20  C   UNL     1      25.616  40.336  48.455  1.00  0.00     0.007 C 
ENDBRANCH  18  19
ENDBRANCH   1  18
BRANCH   5  21
HETATM   21  C   UNL     1      24.358  47.728  49.950  1.00  0.00     0.301 C 
BRANCH  21  22
HETATM   22  C   UNL     1      23.406  48.447  49.084  1.00  0.00     0.107 A 
HETATM   23  O   UNL     1      23.969  49.103  48.038  1.00  0.00    -0.216 OA
HETATM   24  N   UNL     1      23.040  49.935  47.465  1.00  0.00    -0.128 NA
HETATM   25  C   UNL     1      21.885  49.730  48.119  1.00  0.00     0.097 A 
HETATM   26  C   UNL     1      22.067  48.744  49.133  1.00  0.00     0.071 A 
BRANCH  25  27
HETATM   27  C   UNL     1      20.690  50.521  47.851  1.00  0.00    -0.005 A 
HETATM   28  C   UNL     1      20.425  51.671  48.613  1.00  0.00     0.014 A 
HETATM   29  C   UNL     1      19.248  52.395  48.417  1.00  0.00     0.001 A 
HETATM   30  C   UNL     1      18.331  51.986  47.452  1.00  0.00     0.000 A 
HETATM   31  C   UNL     1      18.592  50.856  46.678  1.00  0.00     0.001 A 
HETATM   32  C   UNL     1      19.765  50.123  46.877  1.00  0.00     0.014 A 
ENDBRANCH  25  27
ENDBRANCH  21  22
ENDBRANCH   5  21
TORSDOF 5
ENDMDL
MODEL 3
REMARK VINA RESULT:      -8.5      4.001      7.691
REMARK  5 active torsions:
REMARK  status: ('A' for Active; 'I' for Inactive)
REMARK    1  A    between atoms: C_2  and  C_3 
REMARK    2  A    between atoms: C_3  and  N_4 
REMARK    3  A    between atoms: N_8  and  C_10 
REMARK    4  A    between atoms: C_10  and  C_11 
REMARK    5  A    between atoms: C_14  and  C_15 
ROOT
HETATM    1  N   UNL     1      26.113  41.808  48.852  1.00  0.00     0.104 N 
HETATM    2  C   UNL     1      26.439  42.358  50.229  1.00  0.00     0.206 C 
HETATM    3  C   UNL     1      25.194  42.538  51.131  1.00  0.00     0.076 C 
HETATM    4  C   UNL     1      24.197  43.514  50.513  1.00  0.00     0.238 C 
HETATM    5  N   UNL     1      24.823  44.881  50.344  1.00  0.00    -0.065 N 
HETATM    6  H   UNL     1      24.142  45.406  49.774  1.00  0.00     0.280 HD
HETATM    7  C   UNL     1      26.079  44.809  49.513  1.00  0.00     0.238 C 
HETATM    8  C   UNL     1      27.059  43.783  50.084  1.00  0.00     0.076 C 
HETATM    9  C   UNL     1      27.457  41.453  50.896  1.00  0.00     0.072 A 
HETATM   10  C   UNL     1      28.256  40.554  50.218  1.00  0.00     0.037 A 
HETATM   11  N   UNL     1      29.041  39.935  51.164  1.00  0.00    -0.354 N 
HETATM   12  H   UNL     1      29.730  39.206  50.978  1.00  0.00     0.166 HD
HETATM   13  C   UNL     1      28.762  40.404  52.384  1.00  0.00     0.181 A 
HETATM   14  N   UNL     1      27.806  41.334  52.231  1.00  0.00    -0.352 N 
HETATM   15  H   UNL     1      27.405  41.836  53.020  1.00  0.00     0.166 HD
HETATM   16  C   UNL     1      28.210  40.300  48.766  1.00  0.00     0.089 C 
HETATM   17  C   UNL     1      27.354  41.407  48.098  1.00  0.00     0.280 C 
ENDROOT
BRANCH   1  18
HETATM   18  C   UNL     1      25.130  40.687  48.848  1.00  0.00     0.273 C 
BRANCH  18  19
HETATM   19  C   UNL     1      24.138  40.672  47.672  1.00  0.00     0.026 C 
HETATM   20  C   UNL     1      22.737  41.120  48.065  1.00  0.00     0.007 C 
ENDBRANCH  18  19
ENDBRANCH   1  18
BRANCH   5  21
HETATM   21  C   UNL     1      24.959  45.738  51.608  1.00  0.00     0.301 C 
BRANCH  21  22
HETATM   22  C   UNL     1      25.883  45.159  52.600  1.00  0.00     0.107 A 
HETATM   23  O   UNL     1      25.287  44.646  53.705  1.00  0.00    -0.216 OA
HETATM   24  N   UNL     1      26.237  44.378  54.657  1.00  0.00    -0.128 NA
HETATM   25  C   UNL     1      27.428  44.661  54.103  1.00  0.00     0.097 A 
HETATM   26  C   UNL     1      27.246  45.116  52.764  1.00  0.00     0.071 A 
BRANCH  25  27
HETATM   27  C   UNL     1      28.672  44.595  54.860  1.00  0.00    -0.005 A 
HETATM   28  C   UNL     1      29.503  43.469  54.745  1.00  0.00     0.014 A 
HETATM   29  C   UNL     1      30.659  43.359  55.520  1.00  0.00     0.001 A 
HETATM   30  C   UNL     1      31.002  44.376  56.406  1.00  0.00     0.000 A 
HETATM   31  C   UNL     1      30.193  45.507  56.516  1.00  0.00     0.001 A 
HETATM   32  C   UNL     1      29.030  45.616  55.749  1.00  0.00     0.014 A 
ENDBRANCH  25  27
ENDBRANCH  21  22
ENDBRANCH   5  21
TORSDOF 5
ENDMDL
MODEL 4
REMARK VINA RESULT:      -8.1      6.364      9.185
REMARK  5 active torsions:
REMARK  status: ('A' for Active; 'I' for Inactive)
REMARK    1  A    between atoms: C_2  and  C_3 
REMARK    2  A    between atoms: C_3  and  N_4 
REMARK    3  A    between atoms: N_8  and  C_10 
REMARK    4  A    between atoms: C_10  and  C_11 
REMARK    5  A    between atoms: C_14  and  C_15 
ROOT
HETATM    1  N   UNL     1      28.166  38.687  46.633  1.00  0.00     0.104 N 
HETATM    2  C   UNL     1      27.173  38.429  47.751  1.00  0.00     0.206 C 
HETATM    3  C   UNL     1      26.228  39.624  48.024  1.00  0.00     0.076 C 
HETATM    4  C   UNL     1      27.010  40.868  48.436  1.00  0.00     0.238 C 
HETATM    5  N   UNL     1      27.784  40.614  49.711  1.00  0.00    -0.065 N 
HETATM    6  H   UNL     1      28.398  41.437  49.806  1.00  0.00     0.280 HD
HETATM    7  C   UNL     1      28.707  39.431  49.565  1.00  0.00     0.238 C 
HETATM    8  C   UNL     1      27.945  38.193  49.087  1.00  0.00     0.076 C 
HETATM    9  C   UNL     1      26.376  37.180  47.427  1.00  0.00     0.072 A 
HETATM   10  C   UNL     1      26.773  36.222  46.515  1.00  0.00     0.037 A 
HETATM   11  N   UNL     1      25.795  35.253  46.511  1.00  0.00    -0.354 N 
HETATM   12  H   UNL     1      25.792  34.416  45.928  1.00  0.00     0.166 HD
HETATM   13  C   UNL     1      24.820  35.569  47.369  1.00  0.00     0.181 A 
HETATM   14  N   UNL     1      25.168  36.735  47.938  1.00  0.00    -0.352 N 
HETATM   15  H   UNL     1      24.579  37.201  48.625  1.00  0.00     0.166 HD
HETATM   16  C   UNL     1      27.991  36.288  45.687  1.00  0.00     0.089 C 
HETATM   17  C   UNL     1      28.892  37.431  46.223  1.00  0.00     0.280 C 
ENDROOT
BRANCH   1  18
HETATM   18  C   UNL     1      27.590  39.358  45.433  1.00  0.00     0.273 C 
BRANCH  18  19
HETATM   19  C   UNL     1      28.300  40.645  44.980  1.00  0.00     0.026 C 
HETATM   20  C   UNL     1      29.119  40.461  43.710  1.00  0.00     0.007 C 
ENDBRANCH  18  19
ENDBRANCH   1  18
BRANCH   5  21
HETATM   21  C   UNL     1      26.981  40.622  51.017  1.00  0.00     0.301 C 
BRANCH  21  22
HETATM   22  C   UNL     1      27.357  41.727  51.918  1.00  0.00     0.107 A 
HETATM   23  O   UNL     1      27.204  42.969  51.394  1.00  0.00    -0.216 OA
HETATM   24  N   UNL     1      27.820  43.888  52.206  1.00  0.00    -0.128 NA
HETATM   25  C   UNL     1      28.287  43.212  53.268  1.00  0.00     0.097 A 
HETATM   26  C   UNL     1      27.965  41.829  53.146  1.00  0.00     0.071 A 
BRANCH  25  27
HETATM   27  C   UNL     1      29.095  43.850  54.301  1.00  0.00    -0.005 A 
HETATM   28  C   UNL     1      30.193  43.169  54.852  1.00  0.00     0.014 A 
HETATM   29  C   UNL     1      30.929  43.736  55.892  1.00  0.00     0.001 A 
HETATM   30  C   UNL     1      30.585  44.992  56.384  1.00  0.00     0.000 A 
HETATM   31  C   UNL     1      29.507  45.685  55.834  1.00  0.00     0.001 A 
HETATM   32  C   UNL     1      28.761  45.116  54.798  1.00  0.00     0.014 A 
ENDBRANCH  25  27
ENDBRANCH  21  22
ENDBRANCH   5  21
TORSDOF 5
ENDMDL
MODEL 5
REMARK VINA RESULT:      -8.0      3.296      8.742
REMARK  5 active torsions:
REMARK  status: ('A' for Active; 'I' for Inactive)
REMARK    1  A    between atoms: C_2  and  C_3 
REMARK    2  A    between atoms: C_3  and  N_4 
REMARK    3  A    between atoms: N_8  and  C_10 
REMARK    4  A    between atoms: C_10  and  C_11 
REMARK    5  A    between atoms: C_14  and  C_15 
ROOT
HETATM    1  N   UNL     1      24.642  42.439  49.012  1.00  0.00     0.104 N 
HETATM    2  C   UNL     1      24.446  43.905  49.355  1.00  0.00     0.206 C 
HETATM    3  C   UNL     1      25.755  44.731  49.300  1.00  0.00     0.076 C 
HETATM    4  C   UNL     1      26.788  44.201  50.291  1.00  0.00     0.238 C 
HETATM    5  N   UNL     1      26.264  44.293  51.707  1.00  0.00    -0.065 N 
HETATM    6  H   UNL     1      26.949  43.764  52.268  1.00  0.00     0.280 HD
HETATM    7  C   UNL     1      24.958  43.555  51.858  1.00  0.00     0.238 C 
HETATM    8  C   UNL     1      23.935  44.030  50.824  1.00  0.00     0.076 C 
HETATM    9  C   UNL     1      23.402  44.496  48.428  1.00  0.00     0.072 A 
HETATM   10  C   UNL     1      22.492  43.746  47.708  1.00  0.00     0.037 A 
HETATM   11  N   UNL     1      21.719  44.640  47.001  1.00  0.00    -0.354 N 
HETATM   12  H   UNL     1      20.963  44.393  46.361  1.00  0.00     0.166 HD
HETATM   13  C   UNL     1      22.109  45.894  47.247  1.00  0.00     0.181 A 
HETATM   14  N   UNL     1      23.126  45.818  48.121  1.00  0.00    -0.352 N 
HETATM   15  H   UNL     1      23.614  46.644  48.460  1.00  0.00     0.166 HD
HETATM   16  C   UNL     1      22.428  42.273  47.688  1.00  0.00     0.089 C 
HETATM   17  C   UNL     1      23.328  41.725  48.825  1.00  0.00     0.280 C 
ENDROOT
BRANCH   1  18
HETATM   18  C   UNL     1      25.529  42.189  47.840  1.00  0.00     0.273 C 
BRANCH  18  19
HETATM   19  C   UNL     1      26.638  41.144  48.053  1.00  0.00     0.026 C 
HETATM   20  C   UNL     1      26.727  40.650  49.490  1.00  0.00     0.007 C 
ENDBRANCH  18  19
ENDBRANCH   1  18
BRANCH   5  21
HETATM   21  C   UNL     1      26.275  45.681  52.357  1.00  0.00     0.301 C 
BRANCH  21  22
HETATM   22  C   UNL     1      27.059  45.727  53.606  1.00  0.00     0.107 A 
HETATM   23  O   UNL     1      27.219  46.966  54.135  1.00  0.00    -0.216 OA
HETATM   24  N   UNL     1      28.164  46.922  55.127  1.00  0.00    -0.128 NA
HETATM   25  C   UNL     1      28.529  45.636  55.255  1.00  0.00     0.097 A 
HETATM   26  C   UNL     1      27.804  44.829  54.330  1.00  0.00     0.071 A 
BRANCH  25  27
HETATM   27  C   UNL     1      29.600  45.218  56.152  1.00  0.00    -0.005 A 
HETATM   28  C   UNL     1      30.409  44.120  55.814  1.00  0.00     0.014 A 
HETATM   29  C   UNL     1      31.388  43.663  56.697  1.00  0.00     0.001 A 
HETATM   30  C   UNL     1      31.577  44.303  57.919  1.00  0.00     0.000 A 
HETATM   31  C   UNL     1      30.791  45.404  58.258  1.00  0.00     0.001 A 
HETATM   32  C   UNL     1      29.804  45.859  57.381  1.00  0.00     0.014 A 
ENDBRANCH  25  27
ENDBRANCH  21  22
ENDBRANCH   5  21
TORSDOF 5
ENDMDL
MODEL 6
REMARK VINA RESULT:      -7.9      5.624      8.794
REMARK  5 active torsions:
REMARK  status: ('A' for Active; 'I' for Inactive)
REMARK    1  A    between atoms: C_2  and  C_3 
REMARK    2  A    between atoms: C_3  and  N_4 
REMARK    3  A    between atoms: N_8  and  C_10 
REMARK    4  A    between atoms: C_10  and  C_11 
REMARK    5  A    between atoms: C_14  and  C_15 
ROOT
HETATM    1  N   UNL     1      26.365  38.837  47.722  1.00  0.00     0.104 N 
HETATM    2  C   UNL     1      26.786  40.275  47.478  1.00  0.00     0.206 C 
HETATM    3  C   UNL     1      28.082  40.673  48.227  1.00  0.00     0.076 C 
HETATM    4  C   UNL     1      27.916  40.533  49.737  1.00  0.00     0.238 C 
HETATM    5  N   UNL     1      26.817  41.443  50.239  1.00  0.00    -0.065 N 
HETATM    6  H   UNL     1      26.672  41.153  51.218  1.00  0.00     0.280 HD
HETATM    7  C   UNL     1      25.512  41.167  49.535  1.00  0.00     0.238 C 
HETATM    8  C   UNL     1      25.681  41.237  48.016  1.00  0.00     0.076 C 
HETATM    9  C   UNL     1      26.939  40.500  45.986  1.00  0.00     0.072 A 
HETATM   10  C   UNL     1      26.382  39.687  45.019  1.00  0.00     0.037 A 
HETATM   11  N   UNL     1      26.738  40.223  43.802  1.00  0.00    -0.354 N 
HETATM   12  H   UNL     1      26.490  39.841  42.890  1.00  0.00     0.166 HD
HETATM   13  C   UNL     1      27.486  41.318  43.974  1.00  0.00     0.181 A 
HETATM   14  N   UNL     1      27.607  41.499  45.299  1.00  0.00    -0.352 N 
HETATM   15  H   UNL     1      28.148  42.266  45.695  1.00  0.00     0.166 HD
HETATM   16  C   UNL     1      25.605  38.461  45.281  1.00  0.00     0.089 C 
HETATM   17  C   UNL     1      25.260  38.408  46.791  1.00  0.00     0.280 C 
ENDROOT
BRANCH   1  18
HETATM   18  C   UNL     1      27.480  37.848  47.680  1.00  0.00     0.273 C 
BRANCH  18  19
HETATM   19  C   UNL     1      27.258  36.556  48.485  1.00  0.00     0.026 C 
HETATM   20  C   UNL     1      26.904  36.812  49.943  1.00  0.00     0.007 C 
ENDBRANCH  18  19
ENDBRANCH   1  18
BRANCH   5  21
HETATM   21  C   UNL     1      27.157  42.933  50.361  1.00  0.00     0.301 C 
BRANCH  21  22
HETATM   22  C   UNL     1      27.498  43.336  51.738  1.00  0.00     0.107 A 
HETATM   23  O   UNL     1      26.848  44.440  52.187  1.00  0.00    -0.216 OA
HETATM   24  N   UNL     1      27.425  44.866  53.357  1.00  0.00    -0.128 NA
HETATM   25  C   UNL     1      28.383  43.976  53.661  1.00  0.00     0.097 A 
HETATM   26  C   UNL     1      28.427  42.949  52.672  1.00  0.00     0.071 A 
BRANCH  25  27
HETATM   27  C   UNL     1      29.284  44.160  54.793  1.00  0.00    -0.005 A 
HETATM   28  C   UNL     1      29.237  45.349  55.539  1.00  0.00     0.014 A 
HETATM   29  C   UNL     1      30.142  45.570  56.577  1.00  0.00     0.001 A 
HETATM   30  C   UNL     1      31.095  44.603  56.888  1.00  0.00     0.000 A 
HETATM   31  C   UNL     1      31.140  43.412  56.165  1.00  0.00     0.001 A 
HETATM   32  C   UNL     1      30.241  43.191  55.118  1.00  0.00     0.014 A 
ENDBRANCH  25  27
ENDBRANCH  21  22
ENDBRANCH   5  21
TORSDOF 5
ENDMDL
MODEL 7
REMARK VINA RESULT:      -7.9      3.167      9.490
REMARK  5 active torsions:
REMARK  status: ('A' for Active; 'I' for Inactive)
REMARK    1  A    between atoms: C_2  and  C_3 
REMARK    2  A    between atoms: C_3  and  N_4 
REMARK    3  A    between atoms: N_8  and  C_10 
REMARK    4  A    between atoms: C_10  and  C_11 
REMARK    5  A    between atoms: C_14  and  C_15 
ROOT
HETATM    1  N   UNL     1      22.584  43.849  47.305  1.00  0.00     0.104 N 
HETATM    2  C   UNL     1      22.410  44.673  48.569  1.00  0.00     0.206 C 
HETATM    3  C   UNL     1      23.622  45.585  48.881  1.00  0.00     0.076 C 
HETATM    4  C   UNL     1      24.894  44.767  49.083  1.00  0.00     0.238 C 
HETATM    5  N   UNL     1      24.739  43.820  50.253  1.00  0.00    -0.065 N 
HETATM    6  H   UNL     1      25.568  43.208  50.198  1.00  0.00     0.280 HD
HETATM    7  C   UNL     1      23.549  42.912  50.068  1.00  0.00     0.238 C 
HETATM    8  C   UNL     1      22.278  43.719  49.796  1.00  0.00     0.076 C 
HETATM    9  C   UNL     1      21.139  45.493  48.455  1.00  0.00     0.072 A 
HETATM   10  C   UNL     1      20.116  45.216  47.570  1.00  0.00     0.037 A 
HETATM   11  N   UNL     1      19.148  46.173  47.777  1.00  0.00    -0.354 N 
HETATM   12  H   UNL     1      18.269  46.248  47.265  1.00  0.00     0.166 HD
HETATM   13  C   UNL     1      19.527  47.022  48.738  1.00  0.00     0.181 A 
HETATM   14  N   UNL     1      20.733  46.612  49.162  1.00  0.00    -0.352 N 
HETATM   15  H   UNL     1      21.250  47.104  49.888  1.00  0.00     0.166 HD
HETATM   16  C   UNL     1      20.120  44.127  46.577  1.00  0.00     0.089 C 
HETATM   17  C   UNL     1      21.301  43.174  46.893  1.00  0.00     0.280 C 
ENDROOT
BRANCH   1  18
HETATM   18  C   UNL     1      23.160  44.597  46.151  1.00  0.00     0.273 C 
BRANCH  18  19
HETATM   19  C   UNL     1      23.388  43.776  44.870  1.00  0.00     0.026 C 
HETATM   20  C   UNL     1      23.251  44.601  43.598  1.00  0.00     0.007 C 
ENDBRANCH  18  19
ENDBRANCH   1  18
BRANCH   5  21
HETATM   21  C   UNL     1      24.846  44.431  51.654  1.00  0.00     0.301 C 
BRANCH  21  22
HETATM   22  C   UNL     1      26.204  44.338  52.222  1.00  0.00     0.107 A 
HETATM   23  O   UNL     1      26.937  43.285  51.782  1.00  0.00    -0.216 OA
HETATM   24  N   UNL     1      28.060  43.152  52.557  1.00  0.00    -0.128 NA
HETATM   25  C   UNL     1      28.050  44.174  53.428  1.00  0.00     0.097 A 
HETATM   26  C   UNL     1      26.900  44.988  53.211  1.00  0.00     0.071 A 
BRANCH  25  27
HETATM   27  C   UNL     1      29.045  44.302  54.487  1.00  0.00    -0.005 A 
HETATM   28  C   UNL     1      29.993  43.285  54.683  1.00  0.00     0.014 A 
HETATM   29  C   UNL     1      30.903  43.359  55.739  1.00  0.00     0.001 A 
HETATM   30  C   UNL     1      30.882  44.452  56.600  1.00  0.00     0.000 A 
HETATM   31  C   UNL     1      29.956  45.476  56.405  1.00  0.00     0.001 A 
HETATM   32  C   UNL     1      29.037  45.401  55.355  1.00  0.00     0.014 A 
ENDBRANCH  25  27
ENDBRANCH  21  22
ENDBRANCH   5  21
TORSDOF 5
ENDMDL
MODEL 8
REMARK VINA RESULT:      -7.7      6.034      9.324
REMARK  5 active torsions:
REMARK  status: ('A' for Active; 'I' for Inactive)
REMARK    1  A    between atoms: C_2  and  C_3 
REMARK    2  A    between atoms: C_3  and  N_4 
REMARK    3  A    between atoms: N_8  and  C_10 
REMARK    4  A    between atoms: C_10  and  C_11 
REMARK    5  A    between atoms: C_14  and  C_15 
ROOT
HETATM    1  N   UNL     1      26.185  39.744  46.374  1.00  0.00     0.104 N 
HETATM    2  C   UNL     1      27.362  39.203  47.165  1.00  0.00     0.206 C 
HETATM    3  C   UNL     1      26.952  38.536  48.501  1.00  0.00     0.076 C 
HETATM    4  C   UNL     1      26.245  39.527  49.422  1.00  0.00     0.238 C 
HETATM    5  N   UNL     1      27.159  40.682  49.765  1.00  0.00    -0.065 N 
HETATM    6  H   UNL     1      26.544  41.363  50.237  1.00  0.00     0.280 HD
HETATM    7  C   UNL     1      27.656  41.376  48.522  1.00  0.00     0.238 C 
HETATM    8  C   UNL     1      28.307  40.381  47.559  1.00  0.00     0.076 C 
HETATM    9  C   UNL     1      28.138  38.231  46.298  1.00  0.00     0.072 A 
HETATM   10  C   UNL     1      28.049  38.180  44.921  1.00  0.00     0.037 A 
HETATM   11  N   UNL     1      28.903  37.182  44.508  1.00  0.00    -0.354 N 
HETATM   12  H   UNL     1      29.051  36.890  43.542  1.00  0.00     0.166 HD
HETATM   13  C   UNL     1      29.506  36.617  45.559  1.00  0.00     0.181 A 
HETATM   14  N   UNL     1      29.054  37.254  46.652  1.00  0.00    -0.352 N 
HETATM   15  H   UNL     1      29.352  37.000  47.591  1.00  0.00     0.166 HD
HETATM   16  C   UNL     1      27.160  39.016  44.093  1.00  0.00     0.089 C 
HETATM   17  C   UNL     1      26.584  40.151  44.979  1.00  0.00     0.280 C 
ENDROOT
BRANCH   1  18
HETATM   18  C   UNL     1      25.003  38.836  46.321  1.00  0.00     0.273 C 
BRANCH  18  19
HETATM   19  C   UNL     1      23.635  39.527  46.190  1.00  0.00     0.026 C 
HETATM   20  C   UNL     1      23.348  40.506  47.321  1.00  0.00     0.007 C 
ENDBRANCH  18  19
ENDBRANCH   1  18
BRANCH   5  21
HETATM   21  C   UNL     1      28.250  40.412  50.807  1.00  0.00     0.301 C 
BRANCH  21  22
HETATM   22  C   UNL     1      28.281  41.418  51.885  1.00  0.00     0.107 A 
HETATM   23  O   UNL     1      27.534  42.527  51.652  1.00  0.00    -0.216 OA
HETATM   24  N   UNL     1      27.840  43.489  52.581  1.00  0.00    -0.128 NA
HETATM   25  C   UNL     1      28.724  42.937  53.430  1.00  0.00     0.097 A 
HETATM   26  C   UNL     1      28.993  41.591  53.046  1.00  0.00     0.071 A 
BRANCH  25  27
HETATM   27  C   UNL     1      29.358  43.703  54.497  1.00  0.00    -0.005 A 
HETATM   28  C   UNL     1      30.533  43.224  55.100  1.00  0.00     0.014 A 
HETATM   29  C   UNL     1      31.108  43.908  56.171  1.00  0.00     0.001 A 
HETATM   30  C   UNL     1      30.523  45.080  56.644  1.00  0.00     0.000 A 
HETATM   31  C   UNL     1      29.366  45.573  56.042  1.00  0.00     0.001 A 
HETATM   32  C   UNL     1      28.782  44.887  54.975  1.00  0.00     0.014 A 
ENDBRANCH  25  27
ENDBRANCH  21  22
ENDBRANCH   5  21
TORSDOF 5
ENDMDL
MODEL 9
REMARK VINA RESULT:      -7.7     13.582     16.100
REMARK  5 active torsions:
REMARK  status: ('A' for Active; 'I' for Inactive)
REMARK    1  A    between atoms: C_2  and  C_3 
REMARK    2  A    between atoms: C_3  and  N_4 
REMARK    3  A    between atoms: N_8  and  C_10 
REMARK    4  A    between atoms: C_10  and  C_11 
REMARK    5  A    between atoms: C_14  and  C_15 
ROOT
HETATM    1  N   UNL     1      31.154  51.787  40.514  1.00  0.00     0.104 N 
HETATM    2  C   UNL     1      32.066  50.574  40.532  1.00  0.00     0.206 C 
HETATM    3  C   UNL     1      32.524  50.169  41.955  1.00  0.00     0.076 C 
HETATM    4  C   UNL     1      33.306  51.294  42.627  1.00  0.00     0.238 C 
HETATM    5  N   UNL     1      34.553  51.624  41.837  1.00  0.00    -0.065 N 
HETATM    6  H   UNL     1      34.909  52.490  42.270  1.00  0.00     0.280 HD
HETATM    7  C   UNL     1      34.218  51.989  40.412  1.00  0.00     0.238 C 
HETATM    8  C   UNL     1      33.376  50.898  39.748  1.00  0.00     0.076 C 
HETATM    9  C   UNL     1      31.366  49.416  39.846  1.00  0.00     0.072 A 
HETATM   10  C   UNL     1      30.293  49.559  38.988  1.00  0.00     0.037 A 
HETATM   11  N   UNL     1      29.952  48.292  38.572  1.00  0.00    -0.354 N 
HETATM   12  H   UNL     1      29.185  48.061  37.940  1.00  0.00     0.166 HD
HETATM   13  C   UNL     1      30.756  47.382  39.132  1.00  0.00     0.181 A 
HETATM   14  N   UNL     1      31.625  48.057  39.902  1.00  0.00    -0.352 N 
HETATM   15  H   UNL     1      32.341  47.588  40.453  1.00  0.00     0.166 HD
HETATM   16  C   UNL     1      29.637  50.835  38.650  1.00  0.00     0.089 C 
HETATM   17  C   UNL     1      30.526  51.998  39.160  1.00  0.00     0.280 C 
ENDROOT
BRANCH   1  18
HETATM   18  C   UNL     1      30.101  51.788  41.570  1.00  0.00     0.273 C 
BRANCH  18  19
HETATM   19  C   UNL     1      29.009  52.861  41.423  1.00  0.00     0.026 C 
HETATM   20  C   UNL     1      27.605  52.278  41.334  1.00  0.00     0.007 C 
ENDBRANCH  18  19
ENDBRANCH   1  18
BRANCH   5  21
HETATM   21  C   UNL     1      35.732  50.653  41.972  1.00  0.00     0.301 C 
BRANCH  21  22
HETATM   22  C   UNL     1      36.805  51.166  42.843  1.00  0.00     0.107 A 
HETATM   23  O   UNL     1      37.754  50.256  43.178  1.00  0.00    -0.216 OA
HETATM   24  N   UNL     1      38.541  50.762  44.181  1.00  0.00    -0.128 NA
HETATM   25  C   UNL     1      38.116  52.015  44.409  1.00  0.00     0.097 A 
HETATM   26  C   UNL     1      37.035  52.331  43.534  1.00  0.00     0.071 A 
BRANCH  25  27
HETATM   27  C   UNL     1      38.655  52.834  45.488  1.00  0.00    -0.005 A 
HETATM   28  C   UNL     1      39.862  52.470  46.108  1.00  0.00     0.014 A 
HETATM   29  C   UNL     1      40.351  53.202  47.191  1.00  0.00     0.001 A 
HETATM   30  C   UNL     1      39.647  54.309  47.658  1.00  0.00     0.000 A 
HETATM   31  C   UNL     1      38.457  54.689  47.040  1.00  0.00     0.001 A 
HETATM   32  C   UNL     1      37.959  53.954  45.961  1.00  0.00     0.014 A 
ENDBRANCH  25  27
ENDBRANCH  21  22
ENDBRANCH   5  21
TORSDOF 5
ENDMDL
MODEL 10
REMARK VINA RESULT:      -7.6     12.712     15.321
REMARK  5 active torsions:
REMARK  status: ('A' for Active; 'I' for Inactive)
REMARK    1  A    between atoms: C_2  and  C_3 
REMARK    2  A    between atoms: C_3  and  N_4 
REMARK    3  A    between atoms: N_8  and  C_10 
REMARK    4  A    between atoms: C_10  and  C_11 
REMARK    5  A    between atoms: C_14  and  C_15 
ROOT
HETATM    1  N   UNL     1      29.002  50.704  39.749  1.00  0.00     0.104 N 
HETATM    2  C   UNL     1      29.855  49.512  40.145  1.00  0.00     0.206 C 
HETATM    3  C   UNL     1      30.334  49.559  41.616  1.00  0.00     0.076 C 
HETATM    4  C   UNL     1      31.189  50.795  41.882  1.00  0.00     0.238 C 
HETATM    5  N   UNL     1      32.427  50.784  41.012  1.00  0.00    -0.065 N 
HETATM    6  H   UNL     1      32.837  51.722  41.140  1.00  0.00     0.280 HD
HETATM    7  C   UNL     1      32.069  50.692  39.550  1.00  0.00     0.238 C 
HETATM    8  C   UNL     1      31.155  49.494  39.282  1.00  0.00     0.076 C 
HETATM    9  C   UNL     1      29.079  48.236  39.876  1.00  0.00     0.072 A 
HETATM   10  C   UNL     1      27.989  48.156  39.031  1.00  0.00     0.037 A 
HETATM   11  N   UNL     1      27.574  46.844  39.049  1.00  0.00    -0.354 N 
HETATM   12  H   UNL     1      26.778  46.466  38.534  1.00  0.00     0.166 HD
HETATM   13  C   UNL     1      28.349  46.118  39.862  1.00  0.00     0.181 A 
HETATM   14  N   UNL     1      29.272  46.955  40.363  1.00  0.00    -0.352 N 
HETATM   15  H   UNL     1      29.980  46.648  41.027  1.00  0.00     0.166 HD
HETATM   16  C   UNL     1      27.386  49.291  38.309  1.00  0.00     0.089 C 
HETATM   17  C   UNL     1      28.346  50.505  38.407  1.00  0.00     0.280 C 
ENDROOT
BRANCH   1  18
HETATM   18  C   UNL     1      27.982  51.102  40.761  1.00  0.00     0.273 C 
BRANCH  18  19
HETATM   19  C   UNL     1      28.034  52.568  41.221  1.00  0.00     0.026 C 
HETATM   20  C   UNL     1      29.063  53.397  40.464  1.00  0.00     0.007 C 
ENDBRANCH  18  19
ENDBRANCH   1  18
BRANCH   5  21
HETATM   21  C   UNL     1      33.560  49.843  41.438  1.00  0.00     0.301 C 
BRANCH  21  22
HETATM   22  C   UNL     1      34.771  50.561  41.876  1.00  0.00     0.107 A 
HETATM   23  O   UNL     1      35.926  50.135  41.305  1.00  0.00    -0.216 OA
HETATM   24  N   UNL     1      36.995  50.683  41.967  1.00  0.00    -0.128 NA
HETATM   25  C   UNL     1      36.489  51.506  42.901  1.00  0.00     0.097 A 
HETATM   26  C   UNL     1      35.064  51.494  42.840  1.00  0.00     0.071 A 
BRANCH  25  27
HETATM   27  C   UNL     1      37.333  52.190  43.873  1.00  0.00    -0.005 A 
HETATM   28  C   UNL     1      38.543  51.606  44.284  1.00  0.00     0.014 A 
HETATM   29  C   UNL     1      39.323  52.213  45.268  1.00  0.00     0.001 A 
HETATM   30  C   UNL     1      38.911  53.412  45.844  1.00  0.00     0.000 A 
HETATM   31  C   UNL     1      37.719  54.009  45.432  1.00  0.00     0.001 A 
HETATM   32  C   UNL     1      36.930  53.400  44.453  1.00  0.00     0.014 A 
ENDBRANCH  25  27
ENDBRANCH  21  22
ENDBRANCH   5  21
TORSDOF 5
ENDMDL
