MODEL 1
REMARK VINA RESULT:      -8.4      0.000      0.000
REMARK  9 active torsions:
REMARK  status: ('A' for Active; 'I' for Inactive)
REMARK    1  A    between atoms: C_2  and  C_3 
REMARK    2  A    between atoms: C_3  and  C_4 
REMARK    3  A    between atoms: C_4  and  N_5 
REMARK    4  A    between atoms: C_14  and  C_15 
REMARK    5  A    between atoms: C_15  and  C_16 
REMARK    6  A    between atoms: C_16  and  C_17 
REMARK       I    between atoms: C_17  and  N_18 
REMARK    7  A    between atoms: N_18  and  C_19 
REMARK    8  A    between atoms: N_32  and  C_33 
REMARK    9  A    between atoms: C_33  and  C_34 
ROOT
HETATM    1  N   UNL     1      25.897  45.679  53.618  1.00  0.00    -0.282 N 
HETATM    2  C   UNL     1      25.941  44.337  53.995  1.00  0.00     0.331 A 
HETATM    3  O   UNL     1      26.280  43.948  55.111  1.00  0.00    -0.246 OA
HETATM    4  N   UNL     1      25.556  43.406  53.051  1.00  0.00    -0.273 N 
HETATM    5  C   UNL     1      25.115  43.643  51.770  1.00  0.00     0.280 A 
HETATM    6  O   UNL     1      24.741  42.743  51.028  1.00  0.00    -0.265 OA
HETATM    7  C   UNL     1      25.109  45.029  51.443  1.00  0.00     0.151 A 
HETATM    8  C   UNL     1      25.470  45.988  52.344  1.00  0.00     0.168 A 
HETATM    9  N   UNL     1      25.325  47.237  51.831  1.00  0.00    -0.215 NA
HETATM   10  C   UNL     1      24.982  47.058  50.566  1.00  0.00     0.109 A 
HETATM   11  N   UNL     1      24.813  45.709  50.290  1.00  0.00    -0.327 N 
HETATM   12  H   UNL     1      25.596  42.440  53.346  1.00  0.00     0.173 HD
ENDROOT
BRANCH  10  13
HETATM   13  C   UNL     1      24.785  48.163  49.570  1.00  0.00     0.088 C 
BRANCH  13  14
HETATM   14  C   UNL     1      23.454  48.891  49.753  1.00  0.00     0.110 C 
BRANCH  14  15
HETATM   15  C   UNL     1      22.679  49.042  48.456  1.00  0.00     0.218 C 
HETATM   16  N   UNL     1      21.338  48.727  48.530  1.00  0.00    -0.356 N 
HETATM   17  H   UNL     1      20.998  48.732  49.498  1.00  0.00     0.162 HD
HETATM   18  O   UNL     1      23.232  49.395  47.421  1.00  0.00    -0.274 OA
BRANCH  16  19
HETATM   19  C   UNL     1      20.342  49.079  47.522  1.00  0.00     0.089 C 
HETATM   20  C   UNL     1      20.116  50.598  47.486  1.00  0.00     0.063 C 
HETATM   21  C   UNL     1      19.192  51.152  48.585  1.00  0.00     0.121 C 
HETATM   22  C   UNL     1      19.866  51.267  49.956  1.00  0.00     0.046 C 
HETATM   23  C   UNL     1      18.721  52.566  48.185  1.00  0.00     0.046 C 
HETATM   24  N   UNL     1      17.936  50.314  48.690  1.00  0.00    -0.059 N 
HETATM   25  H   UNL     1      17.326  50.581  47.904  1.00  0.00     0.279 HD
HETATM   26  H   UNL     1      17.408  50.601  49.526  1.00  0.00     0.279 HD
HETATM   27  C   UNL     1      18.028  48.800  48.672  1.00  0.00     0.121 C 
HETATM   28  C   UNL     1      16.605  48.294  48.343  1.00  0.00     0.046 C 
HETATM   29  C   UNL     1      18.381  48.279  50.066  1.00  0.00     0.046 C 
HETATM   30  C   UNL     1      18.980  48.372  47.551  1.00  0.00     0.063 C 
ENDBRANCH  16  19
ENDBRANCH  14  15
ENDBRANCH  13  14
ENDBRANCH  10  13
BRANCH  11  31
HETATM   31  C   UNL     1      24.348  45.136  49.039  1.00  0.00     0.134 C 
BRANCH  31  32
HETATM   32  C   UNL     1      22.839  45.288  48.794  1.00  0.00    -0.004 C 
HETATM   33  C   UNL     1      22.516  45.480  47.311  1.00  0.00     0.011 C 
HETATM   34  C   UNL     1      22.108  44.056  49.330  1.00  0.00     0.011 C 
ENDBRANCH  31  32
ENDBRANCH  11  31
BRANCH   1  35
HETATM   35  C   UNL     1      26.386  46.708  54.532  1.00  0.00     0.135 C 
BRANCH  35  36
HETATM   36  C   UNL     1      27.838  47.123  54.285  1.00  0.00     0.020 C 
BRANCH  36  37
HETATM   37  C   UNL     1      28.833  46.378  55.174  1.00  0.00    -0.003 C 
HETATM   38  C   UNL     1      28.365  46.353  56.621  1.00  0.00     0.005 C 
ENDBRANCH  36  37
ENDBRANCH  35  36
ENDBRANCH   1  35
TORSDOF 9
ENDMDL
MODEL 2
REMARK VINA RESULT:      -8.2      1.632      2.648
REMARK  9 active torsions:
REMARK  status: ('A' for Active; 'I' for Inactive)
REMARK    1  A    between atoms: C_2  and  C_3 
REMARK    2  A    between atoms: C_3  and  C_4 
REMARK    3  A    between atoms: C_4  and  N_5 
REMARK    4  A    between atoms: C_14  and  C_15 
REMARK    5  A    between atoms: C_15  and  C_16 
REMARK    6  A    between atoms: C_16  and  C_17 
REMARK       I    between atoms: C_17  and  N_18 
REMARK    7  A    between atoms: N_18  and  C_19 
REMARK    8  A    between atoms: N_32  and  C_33 
REMARK    9  A    between atoms: C_33  and  C_34 
ROOT
HETATM    1  N   UNL     1      25.384  46.199  51.715  1.00  0.00    -0.282 N 
HETATM    2  C   UNL     1      25.417  44.844  52.043  1.00  0.00     0.331 A 
HETATM    3  O   UNL     1      26.034  44.385  53.002  1.00  0.00    -0.246 OA
HETATM    4  N   UNL     1      24.691  43.985  51.243  1.00  0.00    -0.273 N 
HETATM    5  C   UNL     1      23.915  44.307  50.153  1.00  0.00     0.280 A 
HETATM    6  O   UNL     1      23.261  43.471  49.544  1.00  0.00    -0.265 OA
HETATM    7  C   UNL     1      23.936  45.702  49.862  1.00  0.00     0.151 A 
HETATM    8  C   UNL     1      24.630  46.592  50.629  1.00  0.00     0.168 A 
HETATM    9  N   UNL     1      24.452  47.867  50.199  1.00  0.00    -0.215 NA
HETATM   10  C   UNL     1      23.737  47.767  49.090  1.00  0.00     0.109 A 
HETATM   11  N   UNL     1      23.375  46.448  48.858  1.00  0.00    -0.327 N 
HETATM   12  H   UNL     1      24.730  43.009  51.499  1.00  0.00     0.173 HD
ENDROOT
BRANCH  10  13
HETATM   13  C   UNL     1      23.355  48.923  48.213  1.00  0.00     0.088 C 
BRANCH  13  14
HETATM   14  C   UNL     1      23.320  50.251  48.969  1.00  0.00     0.110 C 
BRANCH  14  15
HETATM   15  C   UNL     1      22.038  50.450  49.756  1.00  0.00     0.218 C 
HETATM   16  N   UNL     1      20.898  49.947  49.164  1.00  0.00    -0.356 N 
HETATM   17  H   UNL     1      21.118  49.254  48.440  1.00  0.00     0.162 HD
HETATM   18  O   UNL     1      22.034  51.044  50.828  1.00  0.00    -0.274 OA
BRANCH  16  19
HETATM   19  C   UNL     1      19.624  49.743  49.848  1.00  0.00     0.089 C 
HETATM   20  C   UNL     1      18.714  48.807  49.039  1.00  0.00     0.063 C 
HETATM   21  C   UNL     1      17.971  49.465  47.863  1.00  0.00     0.121 C 
HETATM   22  C   UNL     1      18.853  49.700  46.633  1.00  0.00     0.046 C 
HETATM   23  C   UNL     1      16.806  48.553  47.426  1.00  0.00     0.046 C 
HETATM   24  N   UNL     1      17.333  50.765  48.304  1.00  0.00    -0.059 N 
HETATM   25  H   UNL     1      16.483  50.522  48.834  1.00  0.00     0.279 HD
HETATM   26  H   UNL     1      16.978  51.264  47.476  1.00  0.00     0.279 HD
HETATM   27  C   UNL     1      18.114  51.744  49.161  1.00  0.00     0.121 C 
HETATM   28  C   UNL     1      17.064  52.692  49.783  1.00  0.00     0.046 C 
HETATM   29  C   UNL     1      19.029  52.598  48.281  1.00  0.00     0.046 C 
HETATM   30  C   UNL     1      18.815  50.973  50.283  1.00  0.00     0.063 C 
ENDBRANCH  16  19
ENDBRANCH  14  15
ENDBRANCH  13  14
ENDBRANCH  10  13
BRANCH  11  31
HETATM   31  C   UNL     1      22.514  45.964  47.794  1.00  0.00     0.134 C 
BRANCH  31  32
HETATM   32  C   UNL     1      21.033  46.337  47.957  1.00  0.00    -0.004 C 
HETATM   33  C   UNL     1      20.329  46.494  46.609  1.00  0.00     0.011 C 
HETATM   34  C   UNL     1      20.327  45.269  48.793  1.00  0.00     0.011 C 
ENDBRANCH  31  32
ENDBRANCH  11  31
BRANCH   1  35
HETATM   35  C   UNL     1      26.210  47.148  52.456  1.00  0.00     0.135 C 
BRANCH  35  36
HETATM   36  C   UNL     1      25.748  47.386  53.895  1.00  0.00     0.020 C 
BRANCH  36  37
HETATM   37  C   UNL     1      26.887  47.788  54.831  1.00  0.00    -0.003 C 
HETATM   38  C   UNL     1      27.928  46.684  54.934  1.00  0.00     0.005 C 
ENDBRANCH  36  37
ENDBRANCH  35  36
ENDBRANCH   1  35
TORSDOF 9
ENDMDL
MODEL 3
REMARK VINA RESULT:      -7.8      2.990      5.603
REMARK  9 active torsions:
REMARK  status: ('A' for Active; 'I' for Inactive)
REMARK    1  A    between atoms: C_2  and  C_3 
REMARK    2  A    between atoms: C_3  and  C_4 
REMARK    3  A    between atoms: C_4  and  N_5 
REMARK    4  A    between atoms: C_14  and  C_15 
REMARK    5  A    between atoms: C_15  and  C_16 
REMARK    6  A    between atoms: C_16  and  C_17 
REMARK       I    between atoms: C_17  and  N_18 
REMARK    7  A    between atoms: N_18  and  C_19 
REMARK    8  A    between atoms: N_32  and  C_33 
REMARK    9  A    between atoms: C_33  and  C_34 
ROOT
HETATM    1  N   UNL     1      24.707  47.208  49.508  1.00  0.00    -0.282 N 
HETATM    2  C   UNL     1      25.837  48.006  49.339  1.00  0.00     0.331 A 
HETATM    3  O   UNL     1      26.972  47.667  49.669  1.00  0.00    -0.246 OA
HETATM    4  N   UNL     1      25.655  49.239  48.744  1.00  0.00    -0.273 N 
HETATM    5  C   UNL     1      24.478  49.779  48.278  1.00  0.00     0.280 A 
HETATM    6  O   UNL     1      24.435  50.864  47.710  1.00  0.00    -0.265 OA
HETATM    7  C   UNL     1      23.361  48.923  48.495  1.00  0.00     0.151 A 
HETATM    8  C   UNL     1      23.492  47.691  49.068  1.00  0.00     0.168 A 
HETATM    9  N   UNL     1      22.306  47.032  49.113  1.00  0.00    -0.215 NA
HETATM   10  C   UNL     1      21.407  47.898  48.672  1.00  0.00     0.109 A 
HETATM   11  N   UNL     1      22.019  49.070  48.255  1.00  0.00    -0.327 N 
HETATM   12  H   UNL     1      26.487  49.800  48.632  1.00  0.00     0.173 HD
ENDROOT
BRANCH  10  13
HETATM   13  C   UNL     1      19.930  47.639  48.613  1.00  0.00     0.088 C 
BRANCH  13  14
HETATM   14  C   UNL     1      19.215  48.000  49.915  1.00  0.00     0.110 C 
BRANCH  14  15
HETATM   15  C   UNL     1      18.239  49.151  49.754  1.00  0.00     0.218 C 
HETATM   16  N   UNL     1      17.552  49.180  48.558  1.00  0.00    -0.356 N 
HETATM   17  H   UNL     1      17.570  48.269  48.086  1.00  0.00     0.162 HD
HETATM   18  O   UNL     1      18.108  50.001  50.627  1.00  0.00    -0.274 OA
BRANCH  16  19
HETATM   19  C   UNL     1      16.364  49.988  48.299  1.00  0.00     0.089 C 
HETATM   20  C   UNL     1      15.226  49.121  47.739  1.00  0.00     0.063 C 
HETATM   21  C   UNL     1      15.324  48.794  46.239  1.00  0.00     0.121 C 
HETATM   22  C   UNL     1      16.343  47.697  45.914  1.00  0.00     0.046 C 
HETATM   23  C   UNL     1      13.949  48.307  45.735  1.00  0.00     0.046 C 
HETATM   24  N   UNL     1      15.634  50.045  45.445  1.00  0.00    -0.059 N 
HETATM   25  H   UNL     1      14.758  50.582  45.372  1.00  0.00     0.279 HD
HETATM   26  H   UNL     1      15.849  49.783  44.473  1.00  0.00     0.279 HD
HETATM   27  C   UNL     1      16.696  51.012  45.933  1.00  0.00     0.121 C 
HETATM   28  C   UNL     1      16.440  52.336  45.179  1.00  0.00     0.046 C 
HETATM   29  C   UNL     1      18.084  50.518  45.521  1.00  0.00     0.046 C 
HETATM   30  C   UNL     1      16.503  51.248  47.434  1.00  0.00     0.063 C 
ENDBRANCH  16  19
ENDBRANCH  14  15
ENDBRANCH  13  14
ENDBRANCH  10  13
BRANCH  11  31
HETATM   31  C   UNL     1      21.369  50.206  47.626  1.00  0.00     0.134 C 
BRANCH  31  32
HETATM   32  C   UNL     1      21.198  51.426  48.544  1.00  0.00    -0.004 C 
HETATM   33  C   UNL     1      19.825  52.081  48.377  1.00  0.00     0.011 C 
HETATM   34  C   UNL     1      21.399  51.003  50.000  1.00  0.00     0.011 C 
ENDBRANCH  31  32
ENDBRANCH  11  31
BRANCH   1  35
HETATM   35  C   UNL     1      24.811  45.938  50.220  1.00  0.00     0.135 C 
BRANCH  35  36
HETATM   36  C   UNL     1      25.143  44.744  49.323  1.00  0.00     0.020 C 
BRANCH  36  37
HETATM   37  C   UNL     1      26.518  44.143  49.611  1.00  0.00    -0.003 C 
HETATM   38  C   UNL     1      26.966  44.452  51.031  1.00  0.00     0.005 C 
ENDBRANCH  36  37
ENDBRANCH  35  36
ENDBRANCH   1  35
TORSDOF 9
ENDMDL
MODEL 4
REMARK VINA RESULT:      -7.7      3.099      5.766
REMARK  9 active torsions:
REMARK  status: ('A' for Active; 'I' for Inactive)
REMARK    1  A    between atoms: C_2  and  C_3 
REMARK    2  A    between atoms: C_3  and  C_4 
REMARK    3  A    between atoms: C_4  and  N_5 
REMARK    4  A    between atoms: C_14  and  C_15 
REMARK    5  A    between atoms: C_15  and  C_16 
REMARK    6  A    between atoms: C_16  and  C_17 
REMARK       I    between atoms: C_17  and  N_18 
REMARK    7  A    between atoms: N_18  and  C_19 
REMARK    8  A    between atoms: N_32  and  C_33 
REMARK    9  A    between atoms: C_33  and  C_34 
ROOT
HETATM    1  N   UNL     1      21.904  45.535  48.373  1.00  0.00    -0.282 N 
HETATM    2  C   UNL     1      22.380  44.419  49.058  1.00  0.00     0.331 A 
HETATM    3  O   UNL     1      21.830  43.319  49.046  1.00  0.00    -0.246 OA
HETATM    4  N   UNL     1      23.551  44.571  49.773  1.00  0.00    -0.273 N 
HETATM    5  C   UNL     1      24.326  45.703  49.882  1.00  0.00     0.280 A 
HETATM    6  O   UNL     1      25.384  45.716  50.498  1.00  0.00    -0.265 OA
HETATM    7  C   UNL     1      23.777  46.810  49.173  1.00  0.00     0.151 A 
HETATM    8  C   UNL     1      22.629  46.706  48.443  1.00  0.00     0.168 A 
HETATM    9  N   UNL     1      22.335  47.867  47.805  1.00  0.00    -0.215 NA
HETATM   10  C   UNL     1      23.240  48.737  48.226  1.00  0.00     0.109 A 
HETATM   11  N   UNL     1      24.165  48.119  49.053  1.00  0.00    -0.327 N 
HETATM   12  H   UNL     1      23.877  43.750  50.263  1.00  0.00     0.173 HD
ENDROOT
BRANCH  10  13
HETATM   13  C   UNL     1      23.271  50.189  47.846  1.00  0.00     0.088 C 
BRANCH  13  14
HETATM   14  C   UNL     1      23.196  51.118  49.058  1.00  0.00     0.110 C 
BRANCH  14  15
HETATM   15  C   UNL     1      21.958  50.887  49.905  1.00  0.00     0.218 C 
HETATM   16  N   UNL     1      20.842  50.460  49.214  1.00  0.00    -0.356 N 
HETATM   17  H   UNL     1      21.087  50.073  48.297  1.00  0.00     0.162 HD
HETATM   18  O   UNL     1      21.964  51.098  51.112  1.00  0.00    -0.274 OA
BRANCH  16  19
HETATM   19  C   UNL     1      19.650  49.887  49.831  1.00  0.00     0.089 C 
HETATM   20  C   UNL     1      19.127  48.700  49.008  1.00  0.00     0.063 C 
HETATM   21  C   UNL     1      18.298  49.074  47.766  1.00  0.00     0.121 C 
HETATM   22  C   UNL     1      19.145  49.547  46.581  1.00  0.00     0.046 C 
HETATM   23  C   UNL     1      17.501  47.839  47.298  1.00  0.00     0.046 C 
HETATM   24  N   UNL     1      17.264  50.122  48.119  1.00  0.00    -0.059 N 
HETATM   25  H   UNL     1      16.496  49.639  48.608  1.00  0.00     0.279 HD
HETATM   26  H   UNL     1      16.829  50.472  47.254  1.00  0.00     0.279 HD
HETATM   27  C   UNL     1      17.648  51.310  48.982  1.00  0.00     0.121 C 
HETATM   28  C   UNL     1      16.318  51.899  49.505  1.00  0.00     0.046 C 
HETATM   29  C   UNL     1      18.313  52.388  48.124  1.00  0.00     0.046 C 
HETATM   30  C   UNL     1      18.476  50.815  50.171  1.00  0.00     0.063 C 
ENDBRANCH  16  19
ENDBRANCH  14  15
ENDBRANCH  13  14
ENDBRANCH  10  13
BRANCH  11  31
HETATM   31  C   UNL     1      25.352  48.729  49.627  1.00  0.00     0.134 C 
BRANCH  31  32
HETATM   32  C   UNL     1      26.529  48.868  48.651  1.00  0.00    -0.004 C 
HETATM   33  C   UNL     1      26.873  50.332  48.372  1.00  0.00     0.011 C 
HETATM   34  C   UNL     1      27.751  48.144  49.217  1.00  0.00     0.011 C 
ENDBRANCH  31  32
ENDBRANCH  11  31
BRANCH   1  35
HETATM   35  C   UNL     1      20.619  45.472  47.681  1.00  0.00     0.135 C 
BRANCH  35  36
HETATM   36  C   UNL     1      20.723  45.087  46.204  1.00  0.00     0.020 C 
BRANCH  36  37
HETATM   37  C   UNL     1      19.691  44.041  45.784  1.00  0.00    -0.003 C 
HETATM   38  C   UNL     1      18.306  44.400  46.299  1.00  0.00     0.005 C 
ENDBRANCH  36  37
ENDBRANCH  35  36
ENDBRANCH   1  35
TORSDOF 9
ENDMDL
MODEL 5
REMARK VINA RESULT:      -7.6     12.709     14.743
REMARK  9 active torsions:
REMARK  status: ('A' for Active; 'I' for Inactive)
REMARK    1  A    between atoms: C_2  and  C_3 
REMARK    2  A    between atoms: C_3  and  C_4 
REMARK    3  A    between atoms: C_4  and  N_5 
REMARK    4  A    between atoms: C_14  and  C_15 
REMARK    5  A    between atoms: C_15  and  C_16 
REMARK    6  A    between atoms: C_16  and  C_17 
REMARK       I    between atoms: C_17  and  N_18 
REMARK    7  A    between atoms: N_18  and  C_19 
REMARK    8  A    between atoms: N_32  and  C_33 
REMARK    9  A    between atoms: C_33  and  C_34 
ROOT
HETATM    1  N   UNL     1      36.446  51.211  41.503  1.00  0.00    -0.282 N 
HETATM    2  C   UNL     1      37.027  52.004  40.515  1.00  0.00     0.331 A 
HETATM    3  O   UNL     1      38.241  52.135  40.365  1.00  0.00    -0.246 OA
HETATM    4  N   UNL     1      36.174  52.659  39.650  1.00  0.00    -0.273 N 
HETATM    5  C   UNL     1      34.799  52.613  39.633  1.00  0.00     0.280 A 
HETATM    6  O   UNL     1      34.134  53.189  38.781  1.00  0.00    -0.265 OA
HETATM    7  C   UNL     1      34.268  51.800  40.676  1.00  0.00     0.151 A 
HETATM    8  C   UNL     1      35.070  51.125  41.548  1.00  0.00     0.168 A 
HETATM    9  N   UNL     1      34.346  50.368  42.411  1.00  0.00    -0.215 NA
HETATM   10  C   UNL     1      33.080  50.658  42.154  1.00  0.00     0.109 A 
HETATM   11  N   UNL     1      32.986  51.520  41.071  1.00  0.00    -0.327 N 
HETATM   12  H   UNL     1      36.617  53.228  38.942  1.00  0.00     0.173 HD
ENDROOT
BRANCH  10  13
HETATM   13  C   UNL     1      31.907  50.114  42.916  1.00  0.00     0.088 C 
BRANCH  13  14
HETATM   14  C   UNL     1      31.716  48.612  42.711  1.00  0.00     0.110 C 
BRANCH  14  15
HETATM   15  C   UNL     1      31.600  48.224  41.249  1.00  0.00     0.218 C 
HETATM   16  N   UNL     1      30.440  48.629  40.621  1.00  0.00    -0.356 N 
HETATM   17  H   UNL     1      29.971  49.382  41.135  1.00  0.00     0.162 HD
HETATM   18  O   UNL     1      32.476  47.573  40.691  1.00  0.00    -0.274 OA
BRANCH  16  19
HETATM   19  C   UNL     1      30.238  48.647  39.175  1.00  0.00     0.089 C 
HETATM   20  C   UNL     1      29.261  49.762  38.775  1.00  0.00     0.063 C 
HETATM   21  C   UNL     1      27.770  49.435  38.974  1.00  0.00     0.121 C 
HETATM   22  C   UNL     1      27.308  49.528  40.431  1.00  0.00     0.046 C 
HETATM   23  C   UNL     1      26.919  50.430  38.157  1.00  0.00     0.046 C 
HETATM   24  N   UNL     1      27.453  48.065  38.413  1.00  0.00    -0.059 N 
HETATM   25  H   UNL     1      27.396  48.162  37.389  1.00  0.00     0.279 HD
HETATM   26  H   UNL     1      26.498  47.799  38.692  1.00  0.00     0.279 HD
HETATM   27  C   UNL     1      28.380  46.896  38.688  1.00  0.00     0.121 C 
HETATM   28  C   UNL     1      28.026  45.819  37.638  1.00  0.00     0.046 C 
HETATM   29  C   UNL     1      28.079  46.301  40.065  1.00  0.00     0.046 C 
HETATM   30  C   UNL     1      29.827  47.347  38.470  1.00  0.00     0.063 C 
ENDBRANCH  16  19
ENDBRANCH  14  15
ENDBRANCH  13  14
ENDBRANCH  10  13
BRANCH  11  31
HETATM   31  C   UNL     1      31.762  51.982  40.441  1.00  0.00     0.134 C 
BRANCH  31  32
HETATM   32  C   UNL     1      30.959  52.990  41.278  1.00  0.00    -0.004 C 
HETATM   33  C   UNL     1      30.976  54.389  40.662  1.00  0.00     0.011 C 
HETATM   34  C   UNL     1      29.517  52.501  41.421  1.00  0.00     0.011 C 
ENDBRANCH  31  32
ENDBRANCH  11  31
BRANCH   1  35
HETATM   35  C   UNL     1      37.286  50.573  42.513  1.00  0.00     0.135 C 
BRANCH  35  36
HETATM   36  C   UNL     1      37.964  51.554  43.472  1.00  0.00     0.020 C 
BRANCH  36  37
HETATM   37  C   UNL     1      36.975  52.282  44.381  1.00  0.00    -0.003 C 
HETATM   38  C   UNL     1      37.295  53.766  44.462  1.00  0.00     0.005 C 
ENDBRANCH  36  37
ENDBRANCH  35  36
ENDBRANCH   1  35
TORSDOF 9
ENDMDL
MODEL 6
REMARK VINA RESULT:      -7.5      2.733      8.512
REMARK  9 active torsions:
REMARK  status: ('A' for Active; 'I' for Inactive)
REMARK    1  A    between atoms: C_2  and  C_3 
REMARK    2  A    between atoms: C_3  and  C_4 
REMARK    3  A    between atoms: C_4  and  N_5 
REMARK    4  A    between atoms: C_14  and  C_15 
REMARK    5  A    between atoms: C_15  and  C_16 
REMARK    6  A    between atoms: C_16  and  C_17 
REMARK       I    between atoms: C_17  and  N_18 
REMARK    7  A    between atoms: N_18  and  C_19 
REMARK    8  A    between atoms: N_32  and  C_33 
REMARK    9  A    between atoms: C_33  and  C_34 
ROOT
HETATM    1  N   UNL     1      18.365  47.840  49.000  1.00  0.00    -0.282 N 
HETATM    2  C   UNL     1      17.197  47.104  48.809  1.00  0.00     0.331 A 
HETATM    3  O   UNL     1      16.068  47.534  49.042  1.00  0.00    -0.246 OA
HETATM    4  N   UNL     1      17.334  45.824  48.309  1.00  0.00    -0.273 N 
HETATM    5  C   UNL     1      18.498  45.181  47.957  1.00  0.00     0.280 A 
HETATM    6  O   UNL     1      18.505  44.060  47.465  1.00  0.00    -0.265 OA
HETATM    7  C   UNL     1      19.654  45.980  48.191  1.00  0.00     0.151 A 
HETATM    8  C   UNL     1      19.570  47.254  48.674  1.00  0.00     0.168 A 
HETATM    9  N   UNL     1      20.791  47.840  48.754  1.00  0.00    -0.215 NA
HETATM   10  C   UNL     1      21.657  46.893  48.430  1.00  0.00     0.109 A 
HETATM   11  N   UNL     1      20.995  45.734  48.051  1.00  0.00    -0.327 N 
HETATM   12  H   UNL     1      16.475  45.309  48.179  1.00  0.00     0.173 HD
ENDROOT
BRANCH  10  13
HETATM   13  C   UNL     1      23.149  47.055  48.452  1.00  0.00     0.088 C 
BRANCH  13  14
HETATM   14  C   UNL     1      23.651  47.730  49.728  1.00  0.00     0.110 C 
BRANCH  14  15
HETATM   15  C   UNL     1      25.011  47.223  50.170  1.00  0.00     0.218 C 
HETATM   16  N   UNL     1      25.134  45.851  50.242  1.00  0.00    -0.356 N 
HETATM   17  H   UNL     1      24.403  45.374  49.704  1.00  0.00     0.162 HD
HETATM   18  O   UNL     1      25.915  47.997  50.464  1.00  0.00    -0.274 OA
BRANCH  16  19
HETATM   19  C   UNL     1      26.401  45.132  50.339  1.00  0.00     0.089 C 
HETATM   20  C   UNL     1      26.303  43.760  49.656  1.00  0.00     0.063 C 
HETATM   21  C   UNL     1      25.621  42.658  50.486  1.00  0.00     0.121 C 
HETATM   22  C   UNL     1      24.093  42.770  50.520  1.00  0.00     0.046 C 
HETATM   23  C   UNL     1      25.967  41.281  49.882  1.00  0.00     0.046 C 
HETATM   24  N   UNL     1      26.174  42.641  51.895  1.00  0.00    -0.059 N 
HETATM   25  H   UNL     1      27.094  42.178  51.854  1.00  0.00     0.279 HD
HETATM   26  H   UNL     1      25.602  42.010  52.474  1.00  0.00     0.279 HD
HETATM   27  C   UNL     1      26.375  43.941  52.649  1.00  0.00     0.121 C 
HETATM   28  C   UNL     1      27.338  43.610  53.812  1.00  0.00     0.046 C 
HETATM   29  C   UNL     1      25.055  44.397  53.272  1.00  0.00     0.046 C 
HETATM   30  C   UNL     1      27.047  44.957  51.720  1.00  0.00     0.063 C 
ENDBRANCH  16  19
ENDBRANCH  14  15
ENDBRANCH  13  14
ENDBRANCH  10  13
BRANCH  11  31
HETATM   31  C   UNL     1      21.607  44.520  47.541  1.00  0.00     0.134 C 
BRANCH  31  32
HETATM   32  C   UNL     1      22.051  44.601  46.073  1.00  0.00    -0.004 C 
HETATM   33  C   UNL     1      23.386  43.893  45.838  1.00  0.00     0.011 C 
HETATM   34  C   UNL     1      20.973  43.989  45.178  1.00  0.00     0.011 C 
ENDBRANCH  31  32
ENDBRANCH  11  31
BRANCH   1  35
HETATM   35  C   UNL     1      18.300  49.160  49.621  1.00  0.00     0.135 C 
BRANCH  35  36
HETATM   36  C   UNL     1      18.133  50.310  48.626  1.00  0.00     0.020 C 
BRANCH  36  37
HETATM   37  C   UNL     1      19.225  51.372  48.748  1.00  0.00    -0.003 C 
HETATM   38  C   UNL     1      20.044  51.174  50.013  1.00  0.00     0.005 C 
ENDBRANCH  36  37
ENDBRANCH  35  36
ENDBRANCH   1  35
TORSDOF 9
ENDMDL
MODEL 7
REMARK VINA RESULT:      -7.5      4.635      8.931
REMARK  9 active torsions:
REMARK  status: ('A' for Active; 'I' for Inactive)
REMARK    1  A    between atoms: C_2  and  C_3 
REMARK    2  A    between atoms: C_3  and  C_4 
REMARK    3  A    between atoms: C_4  and  N_5 
REMARK    4  A    between atoms: C_14  and  C_15 
REMARK    5  A    between atoms: C_15  and  C_16 
REMARK    6  A    between atoms: C_16  and  C_17 
REMARK       I    between atoms: C_17  and  N_18 
REMARK    7  A    between atoms: N_18  and  C_19 
REMARK    8  A    between atoms: N_32  and  C_33 
REMARK    9  A    between atoms: C_33  and  C_34 
ROOT
HETATM    1  N   UNL     1      26.712  45.361  53.738  1.00  0.00    -0.282 N 
HETATM    2  C   UNL     1      26.561  46.738  53.897  1.00  0.00     0.331 A 
HETATM    3  O   UNL     1      26.939  47.360  54.889  1.00  0.00    -0.246 OA
HETATM    4  N   UNL     1      25.968  47.430  52.860  1.00  0.00    -0.273 N 
HETATM    5  C   UNL     1      25.513  46.923  51.665  1.00  0.00     0.280 A 
HETATM    6  O   UNL     1      25.053  47.637  50.783  1.00  0.00    -0.265 OA
HETATM    7  C   UNL     1      25.682  45.511  51.572  1.00  0.00     0.151 A 
HETATM    8  C   UNL     1      26.272  44.785  52.565  1.00  0.00     0.168 A 
HETATM    9  N   UNL     1      26.380  43.474  52.229  1.00  0.00    -0.215 NA
HETATM   10  C   UNL     1      25.753  43.357  51.070  1.00  0.00     0.109 A 
HETATM   11  N   UNL     1      25.328  44.596  50.615  1.00  0.00    -0.327 N 
HETATM   12  H   UNL     1      25.869  48.426  52.998  1.00  0.00     0.173 HD
ENDROOT
BRANCH  10  13
HETATM   13  C   UNL     1      25.546  42.063  50.337  1.00  0.00     0.088 C 
BRANCH  13  14
HETATM   14  C   UNL     1      26.143  40.865  51.076  1.00  0.00     0.110 C 
BRANCH  14  15
HETATM   15  C   UNL     1      27.512  40.470  50.554  1.00  0.00     0.218 C 
HETATM   16  N   UNL     1      27.506  39.592  49.489  1.00  0.00    -0.356 N 
HETATM   17  H   UNL     1      26.597  39.573  49.015  1.00  0.00     0.162 HD
HETATM   18  O   UNL     1      28.538  40.891  51.074  1.00  0.00    -0.274 OA
BRANCH  16  19
HETATM   19  C   UNL     1      28.656  39.313  48.633  1.00  0.00     0.089 C 
HETATM   20  C   UNL     1      28.768  40.358  47.513  1.00  0.00     0.063 C 
HETATM   21  C   UNL     1      27.830  40.141  46.313  1.00  0.00     0.121 C 
HETATM   22  C   UNL     1      26.381  40.559  46.582  1.00  0.00     0.046 C 
HETATM   23  C   UNL     1      28.334  40.976  45.118  1.00  0.00     0.046 C 
HETATM   24  N   UNL     1      27.880  38.698  45.859  1.00  0.00    -0.059 N 
HETATM   25  H   UNL     1      28.752  38.578  45.324  1.00  0.00     0.279 HD
HETATM   26  H   UNL     1      27.137  38.537  45.165  1.00  0.00     0.279 HD
HETATM   27  C   UNL     1      27.840  37.577  46.880  1.00  0.00     0.121 C 
HETATM   28  C   UNL     1      28.353  36.318  46.145  1.00  0.00     0.046 C 
HETATM   29  C   UNL     1      26.394  37.298  47.297  1.00  0.00     0.046 C 
HETATM   30  C   UNL     1      28.800  37.911  48.025  1.00  0.00     0.063 C 
ENDBRANCH  16  19
ENDBRANCH  14  15
ENDBRANCH  13  14
ENDBRANCH  10  13
BRANCH  11  31
HETATM   31  C   UNL     1      24.689  44.875  49.341  1.00  0.00     0.134 C 
BRANCH  31  32
HETATM   32  C   UNL     1      23.167  45.062  49.422  1.00  0.00    -0.004 C 
HETATM   33  C   UNL     1      22.678  46.187  48.509  1.00  0.00     0.011 C 
HETATM   34  C   UNL     1      22.471  43.751  49.051  1.00  0.00     0.011 C 
ENDBRANCH  31  32
ENDBRANCH  11  31
BRANCH   1  35
HETATM   35  C   UNL     1      27.237  44.554  54.836  1.00  0.00     0.135 C 
BRANCH  35  36
HETATM   36  C   UNL     1      28.758  44.388  54.817  1.00  0.00     0.020 C 
BRANCH  36  37
HETATM   37  C   UNL     1      29.201  42.976  54.435  1.00  0.00    -0.003 C 
HETATM   38  C   UNL     1      30.269  43.009  53.353  1.00  0.00     0.005 C 
ENDBRANCH  36  37
ENDBRANCH  35  36
ENDBRANCH   1  35
TORSDOF 9
ENDMDL
MODEL 8
REMARK VINA RESULT:      -7.4      4.502      8.916
REMARK  9 active torsions:
REMARK  status: ('A' for Active; 'I' for Inactive)
REMARK    1  A    between atoms: C_2  and  C_3 
REMARK    2  A    between atoms: C_3  and  C_4 
REMARK    3  A    between atoms: C_4  and  N_5 
REMARK    4  A    between atoms: C_14  and  C_15 
REMARK    5  A    between atoms: C_15  and  C_16 
REMARK    6  A    between atoms: C_16  and  C_17 
REMARK       I    between atoms: C_17  and  N_18 
REMARK    7  A    between atoms: N_18  and  C_19 
REMARK    8  A    between atoms: N_32  and  C_33 
REMARK    9  A    between atoms: C_33  and  C_34 
ROOT
HETATM    1  N   UNL     1      28.214  44.847  54.998  1.00  0.00    -0.282 N 
HETATM    2  C   UNL     1      28.094  46.033  55.719  1.00  0.00     0.331 A 
HETATM    3  O   UNL     1      28.754  46.297  56.724  1.00  0.00    -0.246 OA
HETATM    4  N   UNL     1      27.190  46.966  55.251  1.00  0.00    -0.273 N 
HETATM    5  C   UNL     1      26.391  46.873  54.136  1.00  0.00     0.280 A 
HETATM    6  O   UNL     1      25.661  47.787  53.774  1.00  0.00    -0.265 OA
HETATM    7  C   UNL     1      26.549  45.632  53.454  1.00  0.00     0.151 A 
HETATM    8  C   UNL     1      27.437  44.684  53.871  1.00  0.00     0.168 A 
HETATM    9  N   UNL     1      27.460  43.616  53.032  1.00  0.00    -0.215 NA
HETATM   10  C   UNL     1      26.500  43.844  52.150  1.00  0.00     0.109 A 
HETATM   11  N   UNL     1      25.929  45.090  52.358  1.00  0.00    -0.327 N 
HETATM   12  H   UNL     1      27.120  47.818  55.790  1.00  0.00     0.173 HD
ENDROOT
BRANCH  10  13
HETATM   13  C   UNL     1      26.098  42.893  51.060  1.00  0.00     0.088 C 
BRANCH  13  14
HETATM   14  C   UNL     1      26.401  41.435  51.409  1.00  0.00     0.110 C 
BRANCH  14  15
HETATM   15  C   UNL     1      27.690  40.934  50.785  1.00  0.00     0.218 C 
HETATM   16  N   UNL     1      27.535  40.019  49.764  1.00  0.00    -0.356 N 
HETATM   17  H   UNL     1      26.587  40.040  49.374  1.00  0.00     0.162 HD
HETATM   18  O   UNL     1      28.783  41.307  51.195  1.00  0.00    -0.274 OA
BRANCH  16  19
HETATM   19  C   UNL     1      28.583  39.634  48.824  1.00  0.00     0.089 C 
HETATM   20  C   UNL     1      28.614  40.589  47.621  1.00  0.00     0.063 C 
HETATM   21  C   UNL     1      27.553  40.320  46.539  1.00  0.00     0.121 C 
HETATM   22  C   UNL     1      26.152  40.812  46.917  1.00  0.00     0.046 C 
HETATM   23  C   UNL     1      27.959  41.045  45.239  1.00  0.00     0.046 C 
HETATM   24  N   UNL     1      27.513  38.847  46.195  1.00  0.00    -0.059 N 
HETATM   25  H   UNL     1      28.323  38.655  45.587  1.00  0.00     0.279 HD
HETATM   26  H   UNL     1      26.699  38.663  45.591  1.00  0.00     0.279 HD
HETATM   27  C   UNL     1      27.542  37.806  47.298  1.00  0.00     0.121 C 
HETATM   28  C   UNL     1      27.940  36.478  46.615  1.00  0.00     0.046 C 
HETATM   29  C   UNL     1      26.139  37.614  47.875  1.00  0.00     0.046 C 
HETATM   30  C   UNL     1      28.623  38.187  48.314  1.00  0.00     0.063 C 
ENDBRANCH  16  19
ENDBRANCH  14  15
ENDBRANCH  13  14
ENDBRANCH  10  13
BRANCH  11  31
HETATM   31  C   UNL     1      24.915  45.723  51.533  1.00  0.00     0.134 C 
BRANCH  31  32
HETATM   32  C   UNL     1      25.436  46.871  50.656  1.00  0.00    -0.004 C 
HETATM   33  C   UNL     1      26.487  46.394  49.652  1.00  0.00     0.011 C 
HETATM   34  C   UNL     1      24.266  47.521  49.916  1.00  0.00     0.011 C 
ENDBRANCH  31  32
ENDBRANCH  11  31
BRANCH   1  35
HETATM   35  C   UNL     1      29.076  43.777  55.494  1.00  0.00     0.135 C 
BRANCH  35  36
HETATM   36  C   UNL     1      30.522  43.862  55.003  1.00  0.00     0.020 C 
BRANCH  36  37
HETATM   37  C   UNL     1      31.538  43.395  56.045  1.00  0.00    -0.003 C 
HETATM   38  C   UNL     1      31.198  43.938  57.424  1.00  0.00     0.005 C 
ENDBRANCH  36  37
ENDBRANCH  35  36
ENDBRANCH   1  35
TORSDOF 9
ENDMDL
MODEL 9
REMARK VINA RESULT:      -7.3      4.604      9.169
REMARK  9 active torsions:
REMARK  status: ('A' for Active; 'I' for Inactive)
REMARK    1  A    between atoms: C_2  and  C_3 
REMARK    2  A    between atoms: C_3  and  C_4 
REMARK    3  A    between atoms: C_4  and  N_5 
REMARK    4  A    between atoms: C_14  and  C_15 
REMARK    5  A    between atoms: C_15  and  C_16 
REMARK    6  A    between atoms: C_16  and  C_17 
REMARK       I    between atoms: C_17  and  N_18 
REMARK    7  A    between atoms: N_18  and  C_19 
REMARK    8  A    between atoms: N_32  and  C_33 
REMARK    9  A    between atoms: C_33  and  C_34 
ROOT
HETATM    1  N   UNL     1      27.763  44.658  54.087  1.00  0.00    -0.282 N 
HETATM    2  C   UNL     1      27.610  45.619  55.085  1.00  0.00     0.331 A 
HETATM    3  O   UNL     1      28.183  45.576  56.173  1.00  0.00    -0.246 OA
HETATM    4  N   UNL     1      26.778  46.685  54.811  1.00  0.00    -0.273 N 
HETATM    5  C   UNL     1      26.081  46.928  53.650  1.00  0.00     0.280 A 
HETATM    6  O   UNL     1      25.412  47.941  53.486  1.00  0.00    -0.265 OA
HETATM    7  C   UNL     1      26.267  45.904  52.678  1.00  0.00     0.151 A 
HETATM    8  C   UNL     1      27.087  44.836  52.898  1.00  0.00     0.168 A 
HETATM    9  N   UNL     1      27.157  44.026  51.810  1.00  0.00    -0.215 NA
HETATM   10  C   UNL     1      26.288  44.526  50.946  1.00  0.00     0.109 A 
HETATM   11  N   UNL     1      25.734  45.701  51.431  1.00  0.00    -0.327 N 
HETATM   12  H   UNL     1      26.682  47.369  55.549  1.00  0.00     0.173 HD
ENDROOT
BRANCH  10  13
HETATM   13  C   UNL     1      25.962  43.915  49.614  1.00  0.00     0.088 C 
BRANCH  13  14
HETATM   14  C   UNL     1      26.853  42.720  49.278  1.00  0.00     0.110 C 
BRANCH  14  15
HETATM   15  C   UNL     1      26.158  41.386  49.485  1.00  0.00     0.218 C 
HETATM   16  N   UNL     1      26.413  40.432  48.522  1.00  0.00    -0.356 N 
HETATM   17  H   UNL     1      27.258  40.651  47.983  1.00  0.00     0.162 HD
HETATM   18  O   UNL     1      25.404  41.201  50.433  1.00  0.00    -0.274 OA
BRANCH  16  19
HETATM   19  C   UNL     1      26.118  39.009  48.659  1.00  0.00     0.089 C 
HETATM   20  C   UNL     1      27.014  38.367  49.729  1.00  0.00     0.063 C 
HETATM   21  C   UNL     1      28.441  38.020  49.270  1.00  0.00     0.121 C 
HETATM   22  C   UNL     1      29.374  39.233  49.191  1.00  0.00     0.046 C 
HETATM   23  C   UNL     1      29.067  37.024  50.269  1.00  0.00     0.046 C 
HETATM   24  N   UNL     1      28.407  37.301  47.938  1.00  0.00    -0.059 N 
HETATM   25  H   UNL     1      28.125  36.328  48.126  1.00  0.00     0.279 HD
HETATM   26  H   UNL     1      29.367  37.218  47.575  1.00  0.00     0.279 HD
HETATM   27  C   UNL     1      27.510  37.807  46.824  1.00  0.00     0.121 C 
HETATM   28  C   UNL     1      27.376  36.634  45.826  1.00  0.00     0.046 C 
HETATM   29  C   UNL     1      28.193  38.957  46.081  1.00  0.00     0.046 C 
HETATM   30  C   UNL     1      26.129  38.128  47.403  1.00  0.00     0.063 C 
ENDBRANCH  16  19
ENDBRANCH  14  15
ENDBRANCH  13  14
ENDBRANCH  10  13
BRANCH  11  31
HETATM   31  C   UNL     1      24.817  46.578  50.725  1.00  0.00     0.134 C 
BRANCH  31  32
HETATM   32  C   UNL     1      25.462  47.858  50.173  1.00  0.00    -0.004 C 
HETATM   33  C   UNL     1      26.810  47.578  49.506  1.00  0.00     0.011 C 
HETATM   34  C   UNL     1      24.512  48.517  49.171  1.00  0.00     0.011 C 
ENDBRANCH  31  32
ENDBRANCH  11  31
BRANCH   1  35
HETATM   35  C   UNL     1      28.547  43.454  54.348  1.00  0.00     0.135 C 
BRANCH  35  36
HETATM   36  C   UNL     1      30.056  43.695  54.419  1.00  0.00     0.020 C 
BRANCH  36  37
HETATM   37  C   UNL     1      30.717  43.008  55.613  1.00  0.00    -0.003 C 
HETATM   38  C   UNL     1      31.333  44.027  56.560  1.00  0.00     0.005 C 
ENDBRANCH  36  37
ENDBRANCH  35  36
ENDBRANCH   1  35
TORSDOF 9
ENDMDL
MODEL 10
REMARK VINA RESULT:      -7.3      4.480      7.242
REMARK  9 active torsions:
REMARK  status: ('A' for Active; 'I' for Inactive)
REMARK    1  A    between atoms: C_2  and  C_3 
REMARK    2  A    between atoms: C_3  and  C_4 
REMARK    3  A    between atoms: C_4  and  N_5 
REMARK    4  A    between atoms: C_14  and  C_15 
REMARK    5  A    between atoms: C_15  and  C_16 
REMARK    6  A    between atoms: C_16  and  C_17 
REMARK       I    between atoms: C_17  and  N_18 
REMARK    7  A    between atoms: N_18  and  C_19 
REMARK    8  A    between atoms: N_32  and  C_33 
REMARK    9  A    between atoms: C_33  and  C_34 
ROOT
HETATM    1  N   UNL     1      21.086  49.790  49.458  1.00  0.00    -0.282 N 
HETATM    2  C   UNL     1      22.479  49.764  49.413  1.00  0.00     0.331 A 
HETATM    3  O   UNL     1      23.192  50.728  49.687  1.00  0.00    -0.246 OA
HETATM    4  N   UNL     1      23.075  48.571  49.058  1.00  0.00    -0.273 N 
HETATM    5  C   UNL     1      22.455  47.381  48.751  1.00  0.00     0.280 A 
HETATM    6  O   UNL     1      23.083  46.359  48.505  1.00  0.00    -0.265 OA
HETATM    7  C   UNL     1      21.035  47.479  48.800  1.00  0.00     0.151 A 
HETATM    8  C   UNL     1      20.399  48.632  49.156  1.00  0.00     0.168 A 
HETATM    9  N   UNL     1      19.052  48.470  49.193  1.00  0.00    -0.215 NA
HETATM   10  C   UNL     1      18.835  47.243  48.747  1.00  0.00     0.109 A 
HETATM   11  N   UNL     1      20.034  46.586  48.517  1.00  0.00    -0.327 N 
HETATM   12  H   UNL     1      24.085  48.576  49.032  1.00  0.00     0.173 HD
ENDROOT
BRANCH  10  13
HETATM   13  C   UNL     1      17.477  46.638  48.539  1.00  0.00     0.088 C 
BRANCH  13  14
HETATM   14  C   UNL     1      16.826  47.086  47.230  1.00  0.00     0.110 C 
BRANCH  14  15
HETATM   15  C   UNL     1      15.957  48.320  47.395  1.00  0.00     0.218 C 
HETATM   16  N   UNL     1      16.231  49.354  46.524  1.00  0.00    -0.356 N 
HETATM   17  H   UNL     1      16.762  49.034  45.707  1.00  0.00     0.162 HD
HETATM   18  O   UNL     1      15.097  48.382  48.265  1.00  0.00    -0.274 OA
BRANCH  16  19
HETATM   19  C   UNL     1      15.353  50.495  46.283  1.00  0.00     0.089 C 
HETATM   20  C   UNL     1      14.301  50.158  45.215  1.00  0.00     0.063 C 
HETATM   21  C   UNL     1      14.792  50.236  43.759  1.00  0.00     0.121 C 
HETATM   22  C   UNL     1      15.639  49.034  43.330  1.00  0.00     0.046 C 
HETATM   23  C   UNL     1      13.573  50.299  42.815  1.00  0.00     0.046 C 
HETATM   24  N   UNL     1      15.558  51.522  43.529  1.00  0.00    -0.059 N 
HETATM   25  H   UNL     1      14.863  52.277  43.439  1.00  0.00     0.279 HD
HETATM   26  H   UNL     1      16.009  51.485  42.604  1.00  0.00     0.279 HD
HETATM   27  C   UNL     1      16.580  51.991  44.547  1.00  0.00     0.121 C 
HETATM   28  C   UNL     1      16.819  53.488  44.246  1.00  0.00     0.046 C 
HETATM   29  C   UNL     1      17.910  51.268  44.328  1.00  0.00     0.046 C 
HETATM   30  C   UNL     1      15.983  51.855  45.951  1.00  0.00     0.063 C 
ENDBRANCH  16  19
ENDBRANCH  14  15
ENDBRANCH  13  14
ENDBRANCH  10  13
BRANCH  11  31
HETATM   31  C   UNL     1      20.195  45.199  48.116  1.00  0.00     0.134 C 
BRANCH  31  32
HETATM   32  C   UNL     1      20.140  44.968  46.598  1.00  0.00    -0.004 C 
HETATM   33  C   UNL     1      21.455  44.405  46.057  1.00  0.00     0.011 C 
HETATM   34  C   UNL     1      18.991  44.015  46.268  1.00  0.00     0.011 C 
ENDBRANCH  31  32
ENDBRANCH  11  31
BRANCH   1  35
HETATM   35  C   UNL     1      20.388  51.044  49.726  1.00  0.00     0.135 C 
BRANCH  35  36
HETATM   36  C   UNL     1      20.158  51.909  48.485  1.00  0.00     0.020 C 
BRANCH  36  37
HETATM   37  C   UNL     1      18.725  52.428  48.374  1.00  0.00    -0.003 C 
HETATM   38  C   UNL     1      17.995  52.311  49.703  1.00  0.00     0.005 C 
ENDBRANCH  36  37
ENDBRANCH  35  36
ENDBRANCH   1  35
TORSDOF 9
ENDMDL
