MODEL 1
REMARK VINA RESULT:      -7.7      0.000      0.000
REMARK  7 active torsions:
REMARK  status: ('A' for Active; 'I' for Inactive)
REMARK    1  A    between atoms: O_2  and  C_3 
REMARK    2  A    between atoms: C_4  and  C_5 
REMARK    3  A    between atoms: C_6  and  C_7 
REMARK       I    between atoms: C_7  and  N_8 
REMARK    4  A    between atoms: N_8  and  C_9 
REMARK    5  A    between atoms: C_9  and  C_10 
REMARK    6  A    between atoms: C_10  and  N_11 
REMARK    7  A    between atoms: C_10  and  C_18 
ROOT
HETATM    1  C   UNL     1      25.574  45.560  53.822  1.00  0.00     0.241 C 
HETATM    2  N   UNL     1      25.332  45.578  52.477  1.00  0.00    -0.355 N 
HETATM    3  O   UNL     1      26.072  46.504  54.425  1.00  0.00    -0.269 OA
HETATM    4  H   UNL     1      24.976  44.718  52.061  1.00  0.00     0.162 HD
ENDROOT
BRANCH   2   5
HETATM    5  C   UNL     1      25.787  46.639  51.584  1.00  0.00     0.163 C 
BRANCH   5   6
HETATM    6  C   UNL     1      24.842  46.947  50.379  1.00  0.00     0.262 C 
BRANCH   6   7
HETATM    7  N   UNL     1      25.449  47.980  49.421  1.00  0.00    -0.059 N 
HETATM    8  H   UNL     1      25.572  47.461  48.528  1.00  0.00     0.280 HD
HETATM    9  C   UNL     1      24.552  49.141  49.067  1.00  0.00     0.236 C 
HETATM   10  C   UNL     1      25.183  49.938  47.933  1.00  0.00     0.028 C 
HETATM   11  C   UNL     1      26.589  50.408  48.294  1.00  0.00     0.003 C 
HETATM   12  C   UNL     1      27.465  49.239  48.731  1.00  0.00     0.028 C 
HETATM   13  C   UNL     1      26.818  48.431  49.848  1.00  0.00     0.236 C 
ENDBRANCH   6   7
BRANCH   6  14
HETATM   14  C   UNL     1      24.404  45.687  49.702  1.00  0.00     0.085 A 
HETATM   15  O   UNL     1      25.319  44.675  49.637  1.00  0.00    -0.325 OA
HETATM   16  C   UNL     1      24.722  43.638  48.995  1.00  0.00     0.142 A 
HETATM   17  C   UNL     1      23.435  43.968  48.646  1.00  0.00     0.027 A 
HETATM   18  C   UNL     1      23.225  45.293  49.103  1.00  0.00     0.037 A 
ENDBRANCH   6  14
ENDBRANCH   5   6
ENDBRANCH   2   5
BRANCH   1  19
HETATM   19  C   UNL     1      25.211  44.302  54.499  1.00  0.00     0.075 C 
HETATM   20  C   UNL     1      26.065  43.283  54.681  1.00  0.00     0.020 C 
BRANCH  20  21
HETATM   21  C   UNL     1      27.450  43.246  54.190  1.00  0.00    -0.001 A 
HETATM   22  C   UNL     1      27.749  42.961  52.843  1.00  0.00     0.078 A 
HETATM   23  C   UNL     1      29.084  42.941  52.425  1.00  0.00     0.039 A 
HETATM   24  C   UNL     1      30.113  43.198  53.337  1.00  0.00     0.022 A 
HETATM   25  C   UNL     1      29.810  43.469  54.668  1.00  0.00     0.012 A 
HETATM   26  C   UNL     1      28.486  43.499  55.098  1.00  0.00     0.033 A 
HETATM   27 BR   UNL     1      31.203  43.772  55.908  1.00  0.00    -0.051 Br
BRANCH  22  28
HETATM   28  O   UNL     1      26.685  42.654  52.033  1.00  0.00    -0.355 OA
HETATM   29  C   UNL     1      26.817  41.487  51.227  1.00  0.00     0.210 C 
ENDBRANCH  22  28
ENDBRANCH  20  21
ENDBRANCH   1  19
TORSDOF 7
ENDMDL
MODEL 2
REMARK VINA RESULT:      -7.6      1.798      2.438
REMARK  7 active torsions:
REMARK  status: ('A' for Active; 'I' for Inactive)
REMARK    1  A    between atoms: O_2  and  C_3 
REMARK    2  A    between atoms: C_4  and  C_5 
REMARK    3  A    between atoms: C_6  and  C_7 
REMARK       I    between atoms: C_7  and  N_8 
REMARK    4  A    between atoms: N_8  and  C_9 
REMARK    5  A    between atoms: C_9  and  C_10 
REMARK    6  A    between atoms: C_10  and  N_11 
REMARK    7  A    between atoms: C_10  and  C_18 
ROOT
HETATM    1  C   UNL     1      25.767  45.632  53.123  1.00  0.00     0.241 C 
HETATM    2  N   UNL     1      25.201  45.136  51.982  1.00  0.00    -0.355 N 
HETATM    3  O   UNL     1      26.490  46.621  53.135  1.00  0.00    -0.269 OA
HETATM    4  H   UNL     1      24.670  44.270  52.069  1.00  0.00     0.162 HD
ENDROOT
BRANCH   2   5
HETATM    5  C   UNL     1      25.521  45.617  50.641  1.00  0.00     0.163 C 
BRANCH   5   6
HETATM    6  C   UNL     1      24.576  46.731  50.089  1.00  0.00     0.262 C 
BRANCH   6   7
HETATM    7  N   UNL     1      25.343  47.792  49.288  1.00  0.00    -0.059 N 
HETATM    8  H   UNL     1      25.487  47.355  48.355  1.00  0.00     0.280 HD
HETATM    9  C   UNL     1      24.582  49.062  49.001  1.00  0.00     0.236 C 
HETATM   10  C   UNL     1      25.365  49.905  48.002  1.00  0.00     0.028 C 
HETATM   11  C   UNL     1      26.775  50.199  48.503  1.00  0.00     0.003 C 
HETATM   12  C   UNL     1      27.508  48.914  48.871  1.00  0.00     0.028 C 
HETATM   13  C   UNL     1      26.710  48.064  49.851  1.00  0.00     0.236 C 
ENDBRANCH   6   7
BRANCH   6  14
HETATM   14  C   UNL     1      23.422  46.138  49.346  1.00  0.00     0.085 A 
HETATM   15  O   UNL     1      23.121  44.834  49.615  1.00  0.00    -0.325 OA
HETATM   16  C   UNL     1      22.053  44.501  48.847  1.00  0.00     0.142 A 
HETATM   17  C   UNL     1      21.660  45.575  48.084  1.00  0.00     0.027 A 
HETATM   18  C   UNL     1      22.542  46.636  48.406  1.00  0.00     0.037 A 
ENDBRANCH   6  14
ENDBRANCH   5   6
ENDBRANCH   2   5
BRANCH   1  19
HETATM   19  C   UNL     1      25.463  44.869  54.346  1.00  0.00     0.075 C 
HETATM   20  C   UNL     1      26.256  43.903  54.836  1.00  0.00     0.020 C 
BRANCH  20  21
HETATM   21  C   UNL     1      27.496  43.429  54.205  1.00  0.00    -0.001 A 
HETATM   22  C   UNL     1      28.750  43.975  54.540  1.00  0.00     0.078 A 
HETATM   23  C   UNL     1      29.901  43.486  53.912  1.00  0.00     0.039 A 
HETATM   24  C   UNL     1      29.807  42.466  52.959  1.00  0.00     0.022 A 
HETATM   25  C   UNL     1      28.562  41.939  52.627  1.00  0.00     0.012 A 
HETATM   26  C   UNL     1      27.408  42.410  53.247  1.00  0.00     0.033 A 
HETATM   27 BR   UNL     1      28.431  40.593  51.308  1.00  0.00    -0.051 Br
BRANCH  22  28
HETATM   28  O   UNL     1      28.745  45.016  55.433  1.00  0.00    -0.355 OA
HETATM   29  C   UNL     1      29.950  45.230  56.164  1.00  0.00     0.210 C 
ENDBRANCH  22  28
ENDBRANCH  20  21
ENDBRANCH   1  19
TORSDOF 7
ENDMDL
MODEL 3
REMARK VINA RESULT:      -7.5      5.613      9.625
REMARK  7 active torsions:
REMARK  status: ('A' for Active; 'I' for Inactive)
REMARK    1  A    between atoms: O_2  and  C_3 
REMARK    2  A    between atoms: C_4  and  C_5 
REMARK    3  A    between atoms: C_6  and  C_7 
REMARK       I    between atoms: C_7  and  N_8 
REMARK    4  A    between atoms: N_8  and  C_9 
REMARK    5  A    between atoms: C_9  and  C_10 
REMARK    6  A    between atoms: C_10  and  N_11 
REMARK    7  A    between atoms: C_10  and  C_18 
ROOT
HETATM    1  C   UNL     1      22.152  49.909  48.529  1.00  0.00     0.241 C 
HETATM    2  N   UNL     1      22.416  48.949  49.465  1.00  0.00    -0.355 N 
HETATM    3  O   UNL     1      22.353  49.748  47.331  1.00  0.00    -0.269 OA
HETATM    4  H   UNL     1      22.275  49.206  50.441  1.00  0.00     0.162 HD
ENDROOT
BRANCH   2   5
HETATM    5  C   UNL     1      23.117  47.702  49.175  1.00  0.00     0.163 C 
BRANCH   5   6
HETATM    6  C   UNL     1      24.369  47.418  50.065  1.00  0.00     0.262 C 
BRANCH   6   7
HETATM    7  N   UNL     1      24.629  45.916  50.232  1.00  0.00    -0.059 N 
HETATM    8  H   UNL     1      25.566  45.768  49.806  1.00  0.00     0.280 HD
HETATM    9  C   UNL     1      24.778  45.438  51.655  1.00  0.00     0.236 C 
HETATM   10  C   UNL     1      25.272  43.997  51.655  1.00  0.00     0.028 C 
HETATM   11  C   UNL     1      24.345  43.088  50.855  1.00  0.00     0.003 C 
HETATM   12  C   UNL     1      24.132  43.623  49.443  1.00  0.00     0.028 C 
HETATM   13  C   UNL     1      23.662  45.072  49.448  1.00  0.00     0.236 C 
ENDBRANCH   6   7
BRANCH   6  14
HETATM   14  C   UNL     1      25.560  48.181  49.577  1.00  0.00     0.085 A 
HETATM   15  O   UNL     1      25.320  49.212  48.715  1.00  0.00    -0.325 OA
HETATM   16  C   UNL     1      26.520  49.764  48.405  1.00  0.00     0.142 A 
HETATM   17  C   UNL     1      27.533  49.102  49.056  1.00  0.00     0.027 A 
HETATM   18  C   UNL     1      26.916  48.078  49.817  1.00  0.00     0.037 A 
ENDBRANCH   6  14
ENDBRANCH   5   6
ENDBRANCH   2   5
BRANCH   1  19
HETATM   19  C   UNL     1      21.624  51.173  49.071  1.00  0.00     0.075 C 
HETATM   20  C   UNL     1      20.323  51.502  49.057  1.00  0.00     0.020 C 
BRANCH  20  21
HETATM   21  C   UNL     1      19.254  50.690  48.457  1.00  0.00    -0.001 A 
HETATM   22  C   UNL     1      18.371  49.931  49.249  1.00  0.00     0.078 A 
HETATM   23  C   UNL     1      17.368  49.177  48.630  1.00  0.00     0.039 A 
HETATM   24  C   UNL     1      17.245  49.175  47.236  1.00  0.00     0.022 A 
HETATM   25  C   UNL     1      18.129  49.921  46.460  1.00  0.00     0.012 A 
HETATM   26  C   UNL     1      19.128  50.681  47.062  1.00  0.00     0.033 A 
HETATM   27 BR   UNL     1      17.990  49.883  44.576  1.00  0.00    -0.051 Br
BRANCH  22  28
HETATM   28  O   UNL     1      18.604  49.936  50.601  1.00  0.00    -0.355 OA
HETATM   29  C   UNL     1      18.637  48.664  51.244  1.00  0.00     0.210 C 
ENDBRANCH  22  28
ENDBRANCH  20  21
ENDBRANCH   1  19
TORSDOF 7
ENDMDL
MODEL 4
REMARK VINA RESULT:      -7.3      3.970      7.934
REMARK  7 active torsions:
REMARK  status: ('A' for Active; 'I' for Inactive)
REMARK    1  A    between atoms: O_2  and  C_3 
REMARK    2  A    between atoms: C_4  and  C_5 
REMARK    3  A    between atoms: C_6  and  C_7 
REMARK       I    between atoms: C_7  and  N_8 
REMARK    4  A    between atoms: N_8  and  C_9 
REMARK    5  A    between atoms: C_9  and  C_10 
REMARK    6  A    between atoms: C_10  and  N_11 
REMARK    7  A    between atoms: C_10  and  C_18 
ROOT
HETATM    1  C   UNL     1      22.761  45.023  48.827  1.00  0.00     0.241 C 
HETATM    2  N   UNL     1      23.885  45.717  49.177  1.00  0.00    -0.355 N 
HETATM    3  O   UNL     1      22.185  44.256  49.589  1.00  0.00    -0.269 OA
HETATM    4  H   UNL     1      24.325  46.278  48.449  1.00  0.00     0.162 HD
ENDROOT
BRANCH   2   5
HETATM    5  C   UNL     1      24.619  45.500  50.419  1.00  0.00     0.163 C 
BRANCH   5   6
HETATM    6  C   UNL     1      25.106  46.798  51.141  1.00  0.00     0.262 C 
BRANCH   6   7
HETATM    7  N   UNL     1      26.120  46.494  52.251  1.00  0.00    -0.059 N 
HETATM    8  H   UNL     1      27.025  46.841  51.874  1.00  0.00     0.280 HD
HETATM    9  C   UNL     1      25.923  47.259  53.536  1.00  0.00     0.236 C 
HETATM   10  C   UNL     1      27.130  47.045  54.441  1.00  0.00     0.028 C 
HETATM   11  C   UNL     1      27.374  45.563  54.705  1.00  0.00     0.003 C 
HETATM   12  C   UNL     1      27.488  44.782  53.400  1.00  0.00     0.028 C 
HETATM   13  C   UNL     1      26.291  45.019  52.489  1.00  0.00     0.236 C 
ENDBRANCH   6   7
BRANCH   6  14
HETATM   14  C   UNL     1      25.585  47.815  50.154  1.00  0.00     0.085 A 
HETATM   15  O   UNL     1      24.636  48.615  49.585  1.00  0.00    -0.325 OA
HETATM   16  C   UNL     1      25.278  49.456  48.736  1.00  0.00     0.142 A 
HETATM   17  C   UNL     1      26.630  49.210  48.749  1.00  0.00     0.027 A 
HETATM   18  C   UNL     1      26.833  48.150  49.667  1.00  0.00     0.037 A 
ENDBRANCH   6  14
ENDBRANCH   5   6
ENDBRANCH   2   5
BRANCH   1  19
HETATM   19  C   UNL     1      22.299  45.248  47.446  1.00  0.00     0.075 C 
HETATM   20  C   UNL     1      21.452  46.228  47.095  1.00  0.00     0.020 C 
BRANCH  20  21
HETATM   21  C   UNL     1      20.823  47.172  48.030  1.00  0.00    -0.001 A 
HETATM   22  C   UNL     1      19.595  46.883  48.657  1.00  0.00     0.078 A 
HETATM   23  C   UNL     1      19.039  47.815  49.541  1.00  0.00     0.039 A 
HETATM   24  C   UNL     1      19.695  49.024  49.797  1.00  0.00     0.022 A 
HETATM   25  C   UNL     1      20.904  49.305  49.166  1.00  0.00     0.012 A 
HETATM   26  C   UNL     1      21.473  48.386  48.289  1.00  0.00     0.033 A 
HETATM   27 BR   UNL     1      21.766  50.957  49.479  1.00  0.00    -0.051 Br
BRANCH  22  28
HETATM   28  O   UNL     1      18.987  45.707  48.297  1.00  0.00    -0.355 OA
HETATM   29  C   UNL     1      17.647  45.805  47.823  1.00  0.00     0.210 C 
ENDBRANCH  22  28
ENDBRANCH  20  21
ENDBRANCH   1  19
TORSDOF 7
ENDMDL
MODEL 5
REMARK VINA RESULT:      -7.0     11.743     14.073
REMARK  7 active torsions:
REMARK  status: ('A' for Active; 'I' for Inactive)
REMARK    1  A    between atoms: O_2  and  C_3 
REMARK    2  A    between atoms: C_4  and  C_5 
REMARK    3  A    between atoms: C_6  and  C_7 
REMARK       I    between atoms: C_7  and  N_8 
REMARK    4  A    between atoms: N_8  and  C_9 
REMARK    5  A    between atoms: C_9  and  C_10 
REMARK    6  A    between atoms: C_10  and  N_11 
REMARK    7  A    between atoms: C_10  and  C_18 
ROOT
HETATM    1  C   UNL     1      31.855  48.215  41.191  1.00  0.00     0.241 C 
HETATM    2  N   UNL     1      30.854  48.688  40.390  1.00  0.00    -0.355 N 
HETATM    3  O   UNL     1      32.571  47.272  40.879  1.00  0.00    -0.269 OA
HETATM    4  H   UNL     1      30.273  49.434  40.770  1.00  0.00     0.162 HD
ENDROOT
BRANCH   2   5
HETATM    5  C   UNL     1      30.414  48.029  39.165  1.00  0.00     0.163 C 
BRANCH   5   6
HETATM    6  C   UNL     1      29.044  48.520  38.598  1.00  0.00     0.262 C 
BRANCH   6   7
HETATM    7  N   UNL     1      27.858  47.963  39.395  1.00  0.00    -0.059 N 
HETATM    8  H   UNL     1      27.670  48.688  40.117  1.00  0.00     0.280 HD
HETATM    9  C   UNL     1      26.562  47.843  38.631  1.00  0.00     0.236 C 
HETATM   10  C   UNL     1      25.433  47.519  39.600  1.00  0.00     0.028 C 
HETATM   11  C   UNL     1      25.728  46.255  40.401  1.00  0.00     0.003 C 
HETATM   12  C   UNL     1      27.078  46.351  41.103  1.00  0.00     0.028 C 
HETATM   13  C   UNL     1      28.200  46.699  40.134  1.00  0.00     0.236 C 
ENDBRANCH   6   7
BRANCH   6  14
HETATM   14  C   UNL     1      29.023  50.009  38.455  1.00  0.00     0.085 A 
HETATM   15  O   UNL     1      30.120  50.587  37.882  1.00  0.00    -0.325 OA
HETATM   16  C   UNL     1      29.894  51.925  37.845  1.00  0.00     0.142 A 
HETATM   17  C   UNL     1      28.666  52.218  38.388  1.00  0.00     0.027 A 
HETATM   18  C   UNL     1      28.098  50.980  38.781  1.00  0.00     0.037 A 
ENDBRANCH   6  14
ENDBRANCH   5   6
ENDBRANCH   2   5
BRANCH   1  19
HETATM   19  C   UNL     1      31.998  48.914  42.481  1.00  0.00     0.075 C 
HETATM   20  C   UNL     1      32.578  50.116  42.615  1.00  0.00     0.020 C 
BRANCH  20  21
HETATM   21  C   UNL     1      33.199  50.879  41.523  1.00  0.00    -0.001 A 
HETATM   22  C   UNL     1      32.459  51.788  40.742  1.00  0.00     0.078 A 
HETATM   23  C   UNL     1      33.098  52.492  39.716  1.00  0.00     0.039 A 
HETATM   24  C   UNL     1      34.460  52.293  39.466  1.00  0.00     0.022 A 
HETATM   25  C   UNL     1      35.183  51.385  40.236  1.00  0.00     0.012 A 
HETATM   26  C   UNL     1      34.562  50.682  41.265  1.00  0.00     0.033 A 
HETATM   27 BR   UNL     1      37.011  51.085  39.868  1.00  0.00    -0.051 Br
BRANCH  22  28
HETATM   28  O   UNL     1      31.116  51.871  41.010  1.00  0.00    -0.355 OA
HETATM   29  C   UNL     1      30.635  53.139  41.452  1.00  0.00     0.210 C 
ENDBRANCH  22  28
ENDBRANCH  20  21
ENDBRANCH   1  19
TORSDOF 7
ENDMDL
MODEL 6
REMARK VINA RESULT:      -6.9     11.970     14.395
REMARK  7 active torsions:
REMARK  status: ('A' for Active; 'I' for Inactive)
REMARK    1  A    between atoms: O_2  and  C_3 
REMARK    2  A    between atoms: C_4  and  C_5 
REMARK    3  A    between atoms: C_6  and  C_7 
REMARK       I    between atoms: C_7  and  N_8 
REMARK    4  A    between atoms: N_8  and  C_9 
REMARK    5  A    between atoms: C_9  and  C_10 
REMARK    6  A    between atoms: C_10  and  N_11 
REMARK    7  A    between atoms: C_10  and  C_18 
ROOT
HETATM    1  C   UNL     1      30.848  48.305  40.071  1.00  0.00     0.241 C 
HETATM    2  N   UNL     1      32.135  48.753  40.165  1.00  0.00    -0.355 N 
HETATM    3  O   UNL     1      30.271  47.733  40.988  1.00  0.00    -0.269 OA
HETATM    4  H   UNL     1      32.545  49.158  39.324  1.00  0.00     0.162 HD
ENDROOT
BRANCH   2   5
HETATM    5  C   UNL     1      33.019  48.456  41.288  1.00  0.00     0.163 C 
BRANCH   5   6
HETATM    6  C   UNL     1      33.933  49.636  41.748  1.00  0.00     0.262 C 
BRANCH   6   7
HETATM    7  N   UNL     1      34.554  50.381  40.560  1.00  0.00    -0.059 N 
HETATM    8  H   UNL     1      34.231  49.850  39.726  1.00  0.00     0.280 HD
HETATM    9  C   UNL     1      34.048  51.784  40.337  1.00  0.00     0.236 C 
HETATM   10  C   UNL     1      34.561  52.299  38.998  1.00  0.00     0.028 C 
HETATM   11  C   UNL     1      36.083  52.235  38.920  1.00  0.00     0.003 C 
HETATM   12  C   UNL     1      36.592  50.831  39.229  1.00  0.00     0.028 C 
HETATM   13  C   UNL     1      36.057  50.312  40.557  1.00  0.00     0.236 C 
ENDBRANCH   6   7
BRANCH   6  14
HETATM   14  C   UNL     1      33.213  50.533  42.706  1.00  0.00     0.085 A 
HETATM   15  O   UNL     1      33.986  51.295  43.534  1.00  0.00    -0.325 OA
HETATM   16  C   UNL     1      33.144  52.026  44.307  1.00  0.00     0.142 A 
HETATM   17  C   UNL     1      31.837  51.747  43.988  1.00  0.00     0.027 A 
HETATM   18  C   UNL     1      31.878  50.782  42.951  1.00  0.00     0.037 A 
ENDBRANCH   6  14
ENDBRANCH   5   6
ENDBRANCH   2   5
BRANCH   1  19
HETATM   19  C   UNL     1      30.203  48.542  38.767  1.00  0.00     0.075 C 
HETATM   20  C   UNL     1      29.440  49.613  38.498  1.00  0.00     0.020 C 
BRANCH  20  21
HETATM   21  C   UNL     1      29.091  50.663  39.466  1.00  0.00    -0.001 A 
HETATM   22  C   UNL     1      27.872  50.641  40.172  1.00  0.00     0.078 A 
HETATM   23  C   UNL     1      27.589  51.663  41.084  1.00  0.00     0.039 A 
HETATM   24  C   UNL     1      28.506  52.700  41.291  1.00  0.00     0.022 A 
HETATM   25  C   UNL     1      29.704  52.719  40.582  1.00  0.00     0.012 A 
HETATM   26  C   UNL     1      30.003  51.705  39.675  1.00  0.00     0.033 A 
HETATM   27 BR   UNL     1      30.921  54.142  40.829  1.00  0.00    -0.051 Br
BRANCH  22  28
HETATM   28  O   UNL     1      27.003  49.627  39.859  1.00  0.00    -0.355 OA
HETATM   29  C   UNL     1      26.855  48.596  40.831  1.00  0.00     0.210 C 
ENDBRANCH  22  28
ENDBRANCH  20  21
ENDBRANCH   1  19
TORSDOF 7
ENDMDL
MODEL 7
REMARK VINA RESULT:      -6.9      3.008      7.766
REMARK  7 active torsions:
REMARK  status: ('A' for Active; 'I' for Inactive)
REMARK    1  A    between atoms: O_2  and  C_3 
REMARK    2  A    between atoms: C_4  and  C_5 
REMARK    3  A    between atoms: C_6  and  C_7 
REMARK       I    between atoms: C_7  and  N_8 
REMARK    4  A    between atoms: N_8  and  C_9 
REMARK    5  A    between atoms: C_9  and  C_10 
REMARK    6  A    between atoms: C_10  and  N_11 
REMARK    7  A    between atoms: C_10  and  C_18 
ROOT
HETATM    1  C   UNL     1      25.915  47.009  51.787  1.00  0.00     0.241 C 
HETATM    2  N   UNL     1      26.300  45.701  51.866  1.00  0.00    -0.355 N 
HETATM    3  O   UNL     1      25.131  47.524  52.576  1.00  0.00    -0.269 OA
HETATM    4  H   UNL     1      26.905  45.352  51.123  1.00  0.00     0.162 HD
ENDROOT
BRANCH   2   5
HETATM    5  C   UNL     1      25.704  44.732  52.781  1.00  0.00     0.163 C 
BRANCH   5   6
HETATM    6  C   UNL     1      26.721  43.904  53.631  1.00  0.00     0.262 C 
BRANCH   6   7
HETATM    7  N   UNL     1      27.486  42.884  52.779  1.00  0.00    -0.059 N 
HETATM    8  H   UNL     1      28.343  43.391  52.479  1.00  0.00     0.280 HD
HETATM    9  C   UNL     1      28.000  41.675  53.522  1.00  0.00     0.236 C 
HETATM   10  C   UNL     1      28.938  40.888  52.617  1.00  0.00     0.028 C 
HETATM   11  C   UNL     1      28.256  40.492  51.312  1.00  0.00     0.003 C 
HETATM   12  C   UNL     1      27.666  41.710  50.608  1.00  0.00     0.028 C 
HETATM   13  C   UNL     1      26.748  42.507  51.525  1.00  0.00     0.236 C 
ENDBRANCH   6   7
BRANCH   6  14
HETATM   14  C   UNL     1      27.609  44.802  54.432  1.00  0.00     0.085 A 
HETATM   15  O   UNL     1      27.062  45.972  54.877  1.00  0.00    -0.325 OA
HETATM   16  C   UNL     1      28.025  46.624  55.576  1.00  0.00     0.142 A 
HETATM   17  C   UNL     1      29.187  45.891  55.589  1.00  0.00     0.027 A 
HETATM   18  C   UNL     1      28.921  44.710  54.851  1.00  0.00     0.037 A 
ENDBRANCH   6  14
ENDBRANCH   5   6
ENDBRANCH   2   5
BRANCH   1  19
HETATM   19  C   UNL     1      26.496  47.759  50.659  1.00  0.00     0.075 C 
HETATM   20  C   UNL     1      25.809  48.092  49.556  1.00  0.00     0.020 C 
BRANCH  20  21
HETATM   21  C   UNL     1      24.414  47.716  49.285  1.00  0.00    -0.001 A 
HETATM   22  C   UNL     1      23.389  48.680  49.213  1.00  0.00     0.078 A 
HETATM   23  C   UNL     1      22.078  48.270  48.950  1.00  0.00     0.039 A 
HETATM   24  C   UNL     1      21.786  46.915  48.762  1.00  0.00     0.022 A 
HETATM   25  C   UNL     1      22.803  45.967  48.844  1.00  0.00     0.012 A 
HETATM   26  C   UNL     1      24.114  46.360  49.099  1.00  0.00     0.033 A 
HETATM   27 BR   UNL     1      22.399  44.133  48.635  1.00  0.00    -0.051 Br
BRANCH  22  28
HETATM   28  O   UNL     1      23.751  49.977  49.476  1.00  0.00    -0.355 OA
HETATM   29  C   UNL     1      22.797  50.982  49.143  1.00  0.00     0.210 C 
ENDBRANCH  22  28
ENDBRANCH  20  21
ENDBRANCH   1  19
TORSDOF 7
ENDMDL
MODEL 8
REMARK VINA RESULT:      -6.9     12.004     14.442
REMARK  7 active torsions:
REMARK  status: ('A' for Active; 'I' for Inactive)
REMARK    1  A    between atoms: O_2  and  C_3 
REMARK    2  A    between atoms: C_4  and  C_5 
REMARK    3  A    between atoms: C_6  and  C_7 
REMARK       I    between atoms: C_7  and  N_8 
REMARK    4  A    between atoms: N_8  and  C_9 
REMARK    5  A    between atoms: C_9  and  C_10 
REMARK    6  A    between atoms: C_10  and  N_11 
REMARK    7  A    between atoms: C_10  and  C_18 
ROOT
HETATM    1  C   UNL     1      30.846  48.464  41.609  1.00  0.00     0.241 C 
HETATM    2  N   UNL     1      31.927  49.263  41.854  1.00  0.00    -0.355 N 
HETATM    3  O   UNL     1      29.829  48.488  42.292  1.00  0.00    -0.269 OA
HETATM    4  H   UNL     1      32.749  49.119  41.268  1.00  0.00     0.162 HD
ENDROOT
BRANCH   2   5
HETATM    5  C   UNL     1      32.064  50.104  43.038  1.00  0.00     0.163 C 
BRANCH   5   6
HETATM    6  C   UNL     1      32.423  51.598  42.757  1.00  0.00     0.262 C 
BRANCH   6   7
HETATM    7  N   UNL     1      33.817  51.749  42.134  1.00  0.00    -0.059 N 
HETATM    8  H   UNL     1      33.857  52.743  41.831  1.00  0.00     0.280 HD
HETATM    9  C   UNL     1      34.974  51.595  43.089  1.00  0.00     0.236 C 
HETATM   10  C   UNL     1      36.263  52.011  42.392  1.00  0.00     0.028 C 
HETATM   11  C   UNL     1      36.487  51.216  41.110  1.00  0.00     0.003 C 
HETATM   12  C   UNL     1      35.278  51.308  40.186  1.00  0.00     0.028 C 
HETATM   13  C   UNL     1      33.989  50.915  40.895  1.00  0.00     0.236 C 
ENDBRANCH   6   7
BRANCH   6  14
HETATM   14  C   UNL     1      31.341  52.274  41.975  1.00  0.00     0.085 A 
HETATM   15  O   UNL     1      31.714  53.335  41.200  1.00  0.00    -0.325 OA
HETATM   16  C   UNL     1      30.595  53.791  40.581  1.00  0.00     0.142 A 
HETATM   17  C   UNL     1      29.505  53.039  40.948  1.00  0.00     0.027 A 
HETATM   18  C   UNL     1      29.985  52.055  41.848  1.00  0.00     0.037 A 
ENDBRANCH   6  14
ENDBRANCH   5   6
ENDBRANCH   2   5
BRANCH   1  19
HETATM   19  C   UNL     1      31.002  47.543  40.469  1.00  0.00     0.075 C 
HETATM   20  C   UNL     1      30.437  47.746  39.268  1.00  0.00     0.020 C 
BRANCH  20  21
HETATM   21  C   UNL     1      29.546  48.866  38.933  1.00  0.00    -0.001 A 
HETATM   22  C   UNL     1      30.049  50.090  38.451  1.00  0.00     0.078 A 
HETATM   23  C   UNL     1      29.158  51.125  38.144  1.00  0.00     0.039 A 
HETATM   24  C   UNL     1      27.782  50.946  38.317  1.00  0.00     0.022 A 
HETATM   25  C   UNL     1      27.294  49.736  38.803  1.00  0.00     0.012 A 
HETATM   26  C   UNL     1      28.167  48.695  39.107  1.00  0.00     0.033 A 
HETATM   27 BR   UNL     1      25.438  49.511  39.078  1.00  0.00    -0.051 Br
BRANCH  22  28
HETATM   28  O   UNL     1      31.414  50.204  38.376  1.00  0.00    -0.355 OA
HETATM   29  C   UNL     1      31.924  51.471  37.969  1.00  0.00     0.210 C 
ENDBRANCH  22  28
ENDBRANCH  20  21
ENDBRANCH   1  19
TORSDOF 7
ENDMDL
MODEL 9
REMARK VINA RESULT:      -6.9      3.237      7.638
REMARK  7 active torsions:
REMARK  status: ('A' for Active; 'I' for Inactive)
REMARK    1  A    between atoms: O_2  and  C_3 
REMARK    2  A    between atoms: C_4  and  C_5 
REMARK    3  A    between atoms: C_6  and  C_7 
REMARK       I    between atoms: C_7  and  N_8 
REMARK    4  A    between atoms: N_8  and  C_9 
REMARK    5  A    between atoms: C_9  and  C_10 
REMARK    6  A    between atoms: C_10  and  N_11 
REMARK    7  A    between atoms: C_10  and  C_18 
ROOT
HETATM    1  C   UNL     1      25.944  47.104  51.685  1.00  0.00     0.241 C 
HETATM    2  N   UNL     1      26.283  45.783  51.775  1.00  0.00    -0.355 N 
HETATM    3  O   UNL     1      25.177  47.652  52.467  1.00  0.00    -0.269 OA
HETATM    4  H   UNL     1      26.877  45.408  51.036  1.00  0.00     0.162 HD
ENDROOT
BRANCH   2   5
HETATM    5  C   UNL     1      25.651  44.844  52.696  1.00  0.00     0.163 C 
BRANCH   5   6
HETATM    6  C   UNL     1      26.634  44.009  53.577  1.00  0.00     0.262 C 
BRANCH   6   7
HETATM    7  N   UNL     1      27.408  42.973  52.753  1.00  0.00    -0.059 N 
HETATM    8  H   UNL     1      28.266  43.476  52.447  1.00  0.00     0.280 HD
HETATM    9  C   UNL     1      27.921  41.782  53.525  1.00  0.00     0.236 C 
HETATM   10  C   UNL     1      28.867  40.978  52.643  1.00  0.00     0.028 C 
HETATM   11  C   UNL     1      28.194  40.552  51.342  1.00  0.00     0.003 C 
HETATM   12  C   UNL     1      27.605  41.752  50.609  1.00  0.00     0.028 C 
HETATM   13  C   UNL     1      26.679  42.566  51.502  1.00  0.00     0.236 C 
ENDBRANCH   6   7
BRANCH   6  14
HETATM   14  C   UNL     1      27.513  44.901  54.395  1.00  0.00     0.085 A 
HETATM   15  O   UNL     1      26.960  46.067  54.843  1.00  0.00    -0.325 OA
HETATM   16  C   UNL     1      27.915  46.714  55.558  1.00  0.00     0.142 A 
HETATM   17  C   UNL     1      29.078  45.982  55.576  1.00  0.00     0.027 A 
HETATM   18  C   UNL     1      28.821  44.808  54.827  1.00  0.00     0.037 A 
ENDBRANCH   6  14
ENDBRANCH   5   6
ENDBRANCH   2   5
BRANCH   1  19
HETATM   19  C   UNL     1      26.555  47.823  50.553  1.00  0.00     0.075 C 
HETATM   20  C   UNL     1      25.860  48.270  49.495  1.00  0.00     0.020 C 
BRANCH  20  21
HETATM   21  C   UNL     1      24.421  48.062  49.282  1.00  0.00    -0.001 A 
HETATM   22  C   UNL     1      23.881  46.775  49.091  1.00  0.00     0.078 A 
HETATM   23  C   UNL     1      22.503  46.630  48.895  1.00  0.00     0.039 A 
HETATM   24  C   UNL     1      21.669  47.753  48.887  1.00  0.00     0.022 A 
HETATM   25  C   UNL     1      22.213  49.023  49.068  1.00  0.00     0.012 A 
HETATM   26  C   UNL     1      23.580  49.183  49.270  1.00  0.00     0.033 A 
HETATM   27 BR   UNL     1      21.091  50.542  49.012  1.00  0.00    -0.051 Br
BRANCH  22  28
HETATM   28  O   UNL     1      24.777  45.737  49.045  1.00  0.00    -0.355 OA
HETATM   29  C   UNL     1      24.229  44.434  48.864  1.00  0.00     0.210 C 
ENDBRANCH  22  28
ENDBRANCH  20  21
ENDBRANCH   1  19
TORSDOF 7
ENDMDL
MODEL 10
REMARK VINA RESULT:      -6.9     11.485     13.399
REMARK  7 active torsions:
REMARK  status: ('A' for Active; 'I' for Inactive)
REMARK    1  A    between atoms: O_2  and  C_3 
REMARK    2  A    between atoms: C_4  and  C_5 
REMARK    3  A    between atoms: C_6  and  C_7 
REMARK       I    between atoms: C_7  and  N_8 
REMARK    4  A    between atoms: N_8  and  C_9 
REMARK    5  A    between atoms: C_9  and  C_10 
REMARK    6  A    between atoms: C_10  and  N_11 
REMARK    7  A    between atoms: C_10  and  C_18 
ROOT
HETATM    1  C   UNL     1      31.241  48.430  40.328  1.00  0.00     0.241 C 
HETATM    2  N   UNL     1      30.820  49.508  41.054  1.00  0.00    -0.355 N 
HETATM    3  O   UNL     1      31.955  47.549  40.792  1.00  0.00    -0.269 OA
HETATM    4  H   UNL     1      30.284  50.218  40.556  1.00  0.00     0.162 HD
ENDROOT
BRANCH   2   5
HETATM    5  C   UNL     1      31.302  49.823  42.395  1.00  0.00     0.163 C 
BRANCH   5   6
HETATM    6  C   UNL     1      31.524  51.341  42.685  1.00  0.00     0.262 C 
BRANCH   6   7
HETATM    7  N   UNL     1      33.012  51.713  42.707  1.00  0.00    -0.059 N 
HETATM    8  H   UNL     1      33.036  52.697  42.372  1.00  0.00     0.280 HD
HETATM    9  C   UNL     1      33.649  51.759  44.073  1.00  0.00     0.236 C 
HETATM   10  C   UNL     1      35.038  52.375  43.962  1.00  0.00     0.028 C 
HETATM   11  C   UNL     1      35.908  51.616  42.966  1.00  0.00     0.003 C 
HETATM   12  C   UNL     1      35.220  51.500  41.610  1.00  0.00     0.028 C 
HETATM   13  C   UNL     1      33.823  50.907  41.730  1.00  0.00     0.236 C 
ENDBRANCH   6   7
BRANCH   6  14
HETATM   14  C   UNL     1      30.708  52.191  41.763  1.00  0.00     0.085 A 
HETATM   15  O   UNL     1      29.356  51.993  41.779  1.00  0.00    -0.325 OA
HETATM   16  C   UNL     1      28.815  52.857  40.883  1.00  0.00     0.142 A 
HETATM   17  C   UNL     1      29.799  53.610  40.289  1.00  0.00     0.027 A 
HETATM   18  C   UNL     1      31.025  53.183  40.857  1.00  0.00     0.037 A 
ENDBRANCH   6  14
ENDBRANCH   5   6
ENDBRANCH   2   5
BRANCH   1  19
HETATM   19  C   UNL     1      30.790  48.414  38.925  1.00  0.00     0.075 C 
HETATM   20  C   UNL     1      29.630  47.873  38.523  1.00  0.00     0.020 C 
BRANCH  20  21
HETATM   21  C   UNL     1      28.677  47.175  39.399  1.00  0.00    -0.001 A 
HETATM   22  C   UNL     1      27.754  47.880  40.196  1.00  0.00     0.078 A 
HETATM   23  C   UNL     1      26.866  47.168  41.010  1.00  0.00     0.039 A 
HETATM   24  C   UNL     1      26.896  45.769  41.035  1.00  0.00     0.022 A 
HETATM   25  C   UNL     1      27.819  45.081  40.251  1.00  0.00     0.012 A 
HETATM   26  C   UNL     1      28.704  45.775  39.430  1.00  0.00     0.033 A 
HETATM   27 BR   UNL     1      27.888  43.194  40.318  1.00  0.00    -0.051 Br
BRANCH  22  28
HETATM   28  O   UNL     1      27.838  49.248  40.163  1.00  0.00    -0.355 OA
HETATM   29  C   UNL     1      26.701  49.941  39.655  1.00  0.00     0.210 C 
ENDBRANCH  22  28
ENDBRANCH  20  21
ENDBRANCH   1  19
TORSDOF 7
ENDMDL
