MODEL 1
REMARK VINA RESULT:      -9.7      0.000      0.000
REMARK  3 active torsions:
REMARK  status: ('A' for Active; 'I' for Inactive)
REMARK    1  A    between atoms: C_6  and  N_7 
REMARK       I    between atoms: N_7  and  C_8 
REMARK       I    between atoms: C_8  and  N_9 
REMARK    2  A    between atoms: N_9  and  C_10 
REMARK    3  A    between atoms: C_11  and  C_12 
ROOT
HETATM    1  C   UNL     1      26.370  46.241  52.529  1.00  0.00     0.049 A 
HETATM    2  C   UNL     1      26.036  44.953  52.068  1.00  0.00     0.021 A 
HETATM    3  C   UNL     1      25.122  44.793  51.015  1.00  0.00     0.016 A 
HETATM    4  C   UNL     1      24.547  45.914  50.416  1.00  0.00     0.001 A 
HETATM    5  C   UNL     1      24.906  47.192  50.842  1.00  0.00     0.002 A 
HETATM    6  C   UNL     1      25.824  47.356  51.883  1.00  0.00     0.030 A 
ENDROOT
BRANCH   1   7
HETATM    7  N   UNL     1      27.257  46.479  53.602  1.00  0.00    -0.308 N 
HETATM    8  C   UNL     1      26.846  46.943  54.824  1.00  0.00     0.325 C 
HETATM    9  N   UNL     1      27.761  46.886  55.838  1.00  0.00    -0.309 N 
HETATM   10  O   UNL     1      25.767  47.499  55.025  1.00  0.00    -0.247 OA
HETATM   11  H   UNL     1      27.485  47.463  56.622  1.00  0.00     0.170 HD
HETATM   12  H   UNL     1      28.209  46.735  53.379  1.00  0.00     0.170 HD
BRANCH   9  13
HETATM   13  C   UNL     1      28.832  45.998  56.060  1.00  0.00     0.039 A 
HETATM   14  C   UNL     1      29.233  45.014  55.157  1.00  0.00     0.072 A 
HETATM   15  C   UNL     1      30.260  44.134  55.498  1.00  0.00     0.124 A 
HETATM   16  C   UNL     1      30.911  44.210  56.730  1.00  0.00    -0.023 A 
HETATM   17  F   UNL     1      30.608  43.184  54.619  1.00  0.00    -0.205 F 
HETATM   18  C   UNL     1      31.973  43.223  57.104  1.00  0.00     0.051 C 
HETATM   19  C   UNL     1      30.495  45.184  57.643  1.00  0.00     0.012 A 
HETATM   20  C   UNL     1      29.463  46.067  57.309  1.00  0.00     0.030 A 
ENDBRANCH   9  13
ENDBRANCH   1   7
BRANCH   2  21
HETATM   21  C   UNL     1      26.773  43.751  52.524  1.00  0.00     0.089 A 
HETATM   22  N   UNL     1      26.556  43.287  53.719  1.00  0.00    -0.171 NA
HETATM   23  N   UNL     1      27.260  42.175  54.079  1.00  0.00    -0.243 N 
HETATM   24  C   UNL     1      28.165  41.511  53.293  1.00  0.00     0.261 A 
HETATM   25  H   UNL     1      27.080  41.806  55.006  1.00  0.00     0.192 HD
HETATM   26  O   UNL     1      28.769  40.508  53.661  1.00  0.00    -0.267 OA
HETATM   27  C   UNL     1      28.391  42.076  51.949  1.00  0.00     0.078 A 
HETATM   28  C   UNL     1      27.731  43.168  51.556  1.00  0.00     0.040 A 
ENDBRANCH   2  21
TORSDOF 3
ENDMDL
MODEL 2
REMARK VINA RESULT:      -9.4      2.464      4.324
REMARK  3 active torsions:
REMARK  status: ('A' for Active; 'I' for Inactive)
REMARK    1  A    between atoms: C_6  and  N_7 
REMARK       I    between atoms: N_7  and  C_8 
REMARK       I    between atoms: C_8  and  N_9 
REMARK    2  A    between atoms: N_9  and  C_10 
REMARK    3  A    between atoms: C_11  and  C_12 
ROOT
HETATM    1  C   UNL     1      26.114  44.479  51.308  1.00  0.00     0.049 A 
HETATM    2  C   UNL     1      25.894  44.988  50.014  1.00  0.00     0.021 A 
HETATM    3  C   UNL     1      25.076  44.293  49.110  1.00  0.00     0.016 A 
HETATM    4  C   UNL     1      24.469  43.099  49.496  1.00  0.00     0.001 A 
HETATM    5  C   UNL     1      24.651  42.613  50.790  1.00  0.00     0.002 A 
HETATM    6  C   UNL     1      25.457  43.307  51.697  1.00  0.00     0.030 A 
ENDROOT
BRANCH   1   7
HETATM    7  N   UNL     1      26.948  45.106  52.260  1.00  0.00    -0.308 N 
HETATM    8  C   UNL     1      26.470  45.927  53.249  1.00  0.00     0.325 C 
HETATM    9  N   UNL     1      27.347  46.258  54.243  1.00  0.00    -0.309 N 
HETATM   10  O   UNL     1      25.361  46.459  53.228  1.00  0.00    -0.247 OA
HETATM   11  H   UNL     1      27.016  47.047  54.785  1.00  0.00     0.170 HD
HETATM   12  H   UNL     1      27.896  45.324  51.987  1.00  0.00     0.170 HD
BRANCH   9  13
HETATM   13  C   UNL     1      28.445  45.552  54.773  1.00  0.00     0.039 A 
HETATM   14  C   UNL     1      28.756  44.232  54.451  1.00  0.00     0.072 A 
HETATM   15  C   UNL     1      29.823  43.594  55.083  1.00  0.00     0.124 A 
HETATM   16  C   UNL     1      30.604  44.247  56.038  1.00  0.00    -0.023 A 
HETATM   17  F   UNL     1      30.083  42.317  54.770  1.00  0.00    -0.205 F 
HETATM   18  C   UNL     1      31.712  43.531  56.748  1.00  0.00     0.051 C 
HETATM   19  C   UNL     1      30.281  45.564  56.374  1.00  0.00     0.012 A 
HETATM   20  C   UNL     1      29.209  46.208  55.748  1.00  0.00     0.030 A 
ENDBRANCH   9  13
ENDBRANCH   1   7
BRANCH   2  21
HETATM   21  C   UNL     1      26.339  46.348  49.629  1.00  0.00     0.089 A 
HETATM   22  N   UNL     1      27.564  46.527  49.230  1.00  0.00    -0.171 NA
HETATM   23  N   UNL     1      27.913  47.801  48.883  1.00  0.00    -0.243 N 
HETATM   24  C   UNL     1      27.088  48.895  48.918  1.00  0.00     0.261 A 
HETATM   25  H   UNL     1      28.863  47.938  48.559  1.00  0.00     0.192 HD
HETATM   26  O   UNL     1      27.447  50.020  48.590  1.00  0.00    -0.267 OA
HETATM   27  C   UNL     1      25.710  48.651  49.388  1.00  0.00     0.078 A 
HETATM   28  C   UNL     1      25.326  47.423  49.745  1.00  0.00     0.040 A 
ENDBRANCH   2  21
TORSDOF 3
ENDMDL
MODEL 3
REMARK VINA RESULT:      -9.3      2.086      6.832
REMARK  3 active torsions:
REMARK  status: ('A' for Active; 'I' for Inactive)
REMARK    1  A    between atoms: C_6  and  N_7 
REMARK       I    between atoms: N_7  and  C_8 
REMARK       I    between atoms: C_8  and  N_9 
REMARK    2  A    between atoms: N_9  and  C_10 
REMARK    3  A    between atoms: C_11  and  C_12 
ROOT
HETATM    1  C   UNL     1      29.389  43.762  54.331  1.00  0.00     0.049 A 
HETATM    2  C   UNL     1      29.045  44.773  55.250  1.00  0.00     0.021 A 
HETATM    3  C   UNL     1      29.838  44.997  56.385  1.00  0.00     0.016 A 
HETATM    4  C   UNL     1      30.977  44.222  56.603  1.00  0.00     0.001 A 
HETATM    5  C   UNL     1      31.344  43.249  55.675  1.00  0.00     0.002 A 
HETATM    6  C   UNL     1      30.563  43.029  54.537  1.00  0.00     0.030 A 
ENDROOT
BRANCH   1   7
HETATM    7  N   UNL     1      28.624  43.460  53.183  1.00  0.00    -0.308 N 
HETATM    8  C   UNL     1      27.842  42.339  53.079  1.00  0.00     0.325 C 
HETATM    9  N   UNL     1      26.968  42.300  52.030  1.00  0.00    -0.309 N 
HETATM   10  O   UNL     1      27.962  41.344  53.794  1.00  0.00    -0.247 OA
HETATM   11  H   UNL     1      26.616  41.364  51.871  1.00  0.00     0.170 HD
HETATM   12  H   UNL     1      28.959  43.794  52.290  1.00  0.00     0.170 HD
BRANCH   9  13
HETATM   13  C   UNL     1      26.312  43.339  51.340  1.00  0.00     0.039 A 
HETATM   14  C   UNL     1      26.961  44.279  50.541  1.00  0.00     0.072 A 
HETATM   15  C   UNL     1      26.234  45.316  49.956  1.00  0.00     0.124 A 
HETATM   16  C   UNL     1      24.857  45.442  50.146  1.00  0.00    -0.023 A 
HETATM   17  F   UNL     1      26.889  46.217  49.211  1.00  0.00    -0.205 F 
HETATM   18  C   UNL     1      24.100  46.592  49.557  1.00  0.00     0.051 C 
HETATM   19  C   UNL     1      24.210  44.511  50.963  1.00  0.00     0.012 A 
HETATM   20  C   UNL     1      24.934  43.472  51.556  1.00  0.00     0.030 A 
ENDBRANCH   9  13
ENDBRANCH   1   7
BRANCH   2  21
HETATM   21  C   UNL     1      27.975  45.755  54.957  1.00  0.00     0.089 A 
HETATM   22  N   UNL     1      26.817  45.330  54.546  1.00  0.00    -0.171 NA
HETATM   23  N   UNL     1      25.870  46.282  54.298  1.00  0.00    -0.243 N 
HETATM   24  C   UNL     1      26.035  47.634  54.449  1.00  0.00     0.261 A 
HETATM   25  H   UNL     1      24.963  45.949  53.991  1.00  0.00     0.192 HD
HETATM   26  O   UNL     1      25.149  48.451  54.220  1.00  0.00    -0.267 OA
HETATM   27  C   UNL     1      27.367  48.076  54.906  1.00  0.00     0.078 A 
HETATM   28  C   UNL     1      28.327  47.181  55.152  1.00  0.00     0.040 A 
ENDBRANCH   2  21
TORSDOF 3
ENDMDL
MODEL 4
REMARK VINA RESULT:      -9.2      5.086      7.701
REMARK  3 active torsions:
REMARK  status: ('A' for Active; 'I' for Inactive)
REMARK    1  A    between atoms: C_6  and  N_7 
REMARK       I    between atoms: N_7  and  C_8 
REMARK       I    between atoms: C_8  and  N_9 
REMARK    2  A    between atoms: N_9  and  C_10 
REMARK    3  A    between atoms: C_11  and  C_12 
ROOT
HETATM    1  C   UNL     1      21.864  48.495  48.964  1.00  0.00     0.049 A 
HETATM    2  C   UNL     1      22.779  49.547  48.772  1.00  0.00     0.021 A 
HETATM    3  C   UNL     1      22.324  50.870  48.657  1.00  0.00     0.016 A 
HETATM    4  C   UNL     1      20.960  51.146  48.742  1.00  0.00     0.001 A 
HETATM    5  C   UNL     1      20.053  50.113  48.974  1.00  0.00     0.002 A 
HETATM    6  C   UNL     1      20.504  48.795  49.099  1.00  0.00     0.030 A 
ENDROOT
BRANCH   1   7
HETATM    7  N   UNL     1      22.244  47.138  49.058  1.00  0.00    -0.308 N 
HETATM    8  C   UNL     1      22.442  46.339  47.962  1.00  0.00     0.325 C 
HETATM    9  N   UNL     1      23.049  45.135  48.187  1.00  0.00    -0.309 N 
HETATM   10  O   UNL     1      22.013  46.591  46.837  1.00  0.00    -0.247 OA
HETATM   11  H   UNL     1      22.935  44.507  47.400  1.00  0.00     0.170 HD
HETATM   12  H   UNL     1      21.957  46.623  49.878  1.00  0.00     0.170 HD
BRANCH   9  13
HETATM   13  C   UNL     1      23.978  44.743  49.170  1.00  0.00     0.039 A 
HETATM   14  C   UNL     1      25.328  45.090  49.154  1.00  0.00     0.072 A 
HETATM   15  C   UNL     1      26.186  44.594  50.135  1.00  0.00     0.124 A 
HETATM   16  C   UNL     1      25.729  43.751  51.149  1.00  0.00    -0.023 A 
HETATM   17  F   UNL     1      27.483  44.926  50.080  1.00  0.00    -0.205 F 
HETATM   18  C   UNL     1      26.673  43.181  52.162  1.00  0.00     0.051 C 
HETATM   19  C   UNL     1      24.380  43.387  51.154  1.00  0.00     0.012 A 
HETATM   20  C   UNL     1      23.515  43.879  50.171  1.00  0.00     0.030 A 
ENDBRANCH   9  13
ENDBRANCH   1   7
BRANCH   2  21
HETATM   21  C   UNL     1      24.241  49.334  48.886  1.00  0.00     0.089 A 
HETATM   22  N   UNL     1      24.695  48.512  49.786  1.00  0.00    -0.171 NA
HETATM   23  N   UNL     1      26.050  48.352  49.840  1.00  0.00    -0.243 N 
HETATM   24  C   UNL     1      26.962  48.978  49.030  1.00  0.00     0.261 A 
HETATM   25  H   UNL     1      26.402  47.701  50.532  1.00  0.00     0.192 HD
HETATM   26  O   UNL     1      28.172  48.795  49.113  1.00  0.00    -0.267 OA
HETATM   27  C   UNL     1      26.407  49.911  48.031  1.00  0.00     0.078 A 
HETATM   28  C   UNL     1      25.088  50.104  47.947  1.00  0.00     0.040 A 
ENDBRANCH   2  21
TORSDOF 3
ENDMDL
MODEL 5
REMARK VINA RESULT:      -9.1      2.021      5.741
REMARK  3 active torsions:
REMARK  status: ('A' for Active; 'I' for Inactive)
REMARK    1  A    between atoms: C_6  and  N_7 
REMARK       I    between atoms: N_7  and  C_8 
REMARK       I    between atoms: C_8  and  N_9 
REMARK    2  A    between atoms: N_9  and  C_10 
REMARK    3  A    between atoms: C_11  and  C_12 
ROOT
HETATM    1  C   UNL     1      28.674  45.171  55.113  1.00  0.00     0.049 A 
HETATM    2  C   UNL     1      29.420  44.083  54.619  1.00  0.00     0.021 A 
HETATM    3  C   UNL     1      30.588  43.668  55.276  1.00  0.00     0.016 A 
HETATM    4  C   UNL     1      31.010  44.329  56.429  1.00  0.00     0.001 A 
HETATM    5  C   UNL     1      30.254  45.380  56.946  1.00  0.00     0.002 A 
HETATM    6  C   UNL     1      29.084  45.790  56.299  1.00  0.00     0.030 A 
ENDROOT
BRANCH   1   7
HETATM    7  N   UNL     1      27.507  45.664  54.489  1.00  0.00    -0.308 N 
HETATM    8  C   UNL     1      27.276  46.999  54.281  1.00  0.00     0.325 C 
HETATM    9  N   UNL     1      26.240  47.316  53.448  1.00  0.00    -0.309 N 
HETATM   10  O   UNL     1      27.863  47.902  54.876  1.00  0.00    -0.247 OA
HETATM   11  H   UNL     1      25.973  48.289  53.540  1.00  0.00     0.170 HD
HETATM   12  H   UNL     1      26.658  45.124  54.583  1.00  0.00     0.170 HD
BRANCH   9  13
HETATM   13  C   UNL     1      25.691  46.616  52.357  1.00  0.00     0.039 A 
HETATM   14  C   UNL     1      25.157  45.330  52.440  1.00  0.00     0.072 A 
HETATM   15  C   UNL     1      24.701  44.690  51.288  1.00  0.00     0.124 A 
HETATM   16  C   UNL     1      24.759  45.305  50.037  1.00  0.00    -0.023 A 
HETATM   17  F   UNL     1      24.214  43.446  51.397  1.00  0.00    -0.205 F 
HETATM   18  C   UNL     1      24.317  44.584  48.801  1.00  0.00     0.051 C 
HETATM   19  C   UNL     1      25.312  46.586  49.951  1.00  0.00     0.012 A 
HETATM   20  C   UNL     1      25.775  47.232  51.102  1.00  0.00     0.030 A 
ENDBRANCH   9  13
ENDBRANCH   1   7
BRANCH   2  21
HETATM   21  C   UNL     1      28.903  43.221  53.530  1.00  0.00     0.089 A 
HETATM   22  N   UNL     1      28.412  43.773  52.461  1.00  0.00    -0.171 NA
HETATM   23  N   UNL     1      27.957  42.927  51.490  1.00  0.00    -0.243 N 
HETATM   24  C   UNL     1      27.979  41.558  51.547  1.00  0.00     0.261 A 
HETATM   25  H   UNL     1      27.587  43.358  50.651  1.00  0.00     0.192 HD
HETATM   26  O   UNL     1      27.564  40.840  50.644  1.00  0.00    -0.267 OA
HETATM   27  C   UNL     1      28.534  40.971  52.782  1.00  0.00     0.078 A 
HETATM   28  C   UNL     1      28.983  41.760  53.762  1.00  0.00     0.040 A 
ENDBRANCH   2  21
TORSDOF 3
ENDMDL
MODEL 6
REMARK VINA RESULT:      -8.8      2.631      6.249
REMARK  3 active torsions:
REMARK  status: ('A' for Active; 'I' for Inactive)
REMARK    1  A    between atoms: C_6  and  N_7 
REMARK       I    between atoms: N_7  and  C_8 
REMARK       I    between atoms: C_8  and  N_9 
REMARK    2  A    between atoms: N_9  and  C_10 
REMARK    3  A    between atoms: C_11  and  C_12 
ROOT
HETATM    1  C   UNL     1      27.488  45.795  53.936  1.00  0.00     0.049 A 
HETATM    2  C   UNL     1      28.383  44.770  54.300  1.00  0.00     0.021 A 
HETATM    3  C   UNL     1      29.072  44.832  55.521  1.00  0.00     0.016 A 
HETATM    4  C   UNL     1      28.865  45.908  56.384  1.00  0.00     0.001 A 
HETATM    5  C   UNL     1      27.949  46.904  56.047  1.00  0.00     0.002 A 
HETATM    6  C   UNL     1      27.253  46.841  54.835  1.00  0.00     0.030 A 
ENDROOT
BRANCH   1   7
HETATM    7  N   UNL     1      26.784  45.816  52.713  1.00  0.00    -0.308 N 
HETATM    8  C   UNL     1      25.474  45.429  52.596  1.00  0.00     0.325 C 
HETATM    9  N   UNL     1      24.849  45.738  51.421  1.00  0.00    -0.309 N 
HETATM   10  O   UNL     1      24.882  44.739  53.425  1.00  0.00    -0.247 OA
HETATM   11  H   UNL     1      23.990  45.213  51.307  1.00  0.00     0.170 HD
HETATM   12  H   UNL     1      27.313  45.687  51.861  1.00  0.00     0.170 HD
BRANCH   9  13
HETATM   13  C   UNL     1      25.059  46.799  50.519  1.00  0.00     0.039 A 
HETATM   14  C   UNL     1      26.302  47.380  50.270  1.00  0.00     0.072 A 
HETATM   15  C   UNL     1      26.399  48.476  49.412  1.00  0.00     0.124 A 
HETATM   16  C   UNL     1      25.275  49.015  48.784  1.00  0.00    -0.023 A 
HETATM   17  F   UNL     1      27.604  49.027  49.210  1.00  0.00    -0.205 F 
HETATM   18  C   UNL     1      25.387  50.226  47.910  1.00  0.00     0.051 C 
HETATM   19  C   UNL     1      24.027  48.445  49.049  1.00  0.00     0.012 A 
HETATM   20  C   UNL     1      23.923  47.349  49.911  1.00  0.00     0.030 A 
ENDBRANCH   9  13
ENDBRANCH   1   7
BRANCH   2  21
HETATM   21  C   UNL     1      28.478  43.511  53.524  1.00  0.00     0.089 A 
HETATM   22  N   UNL     1      29.066  43.523  52.364  1.00  0.00    -0.171 NA
HETATM   23  N   UNL     1      29.127  42.332  51.699  1.00  0.00    -0.243 N 
HETATM   24  C   UNL     1      28.628  41.137  52.149  1.00  0.00     0.261 A 
HETATM   25  H   UNL     1      29.598  42.338  50.802  1.00  0.00     0.192 HD
HETATM   26  O   UNL     1      28.714  40.090  51.516  1.00  0.00    -0.267 OA
HETATM   27  C   UNL     1      27.958  41.170  53.463  1.00  0.00     0.078 A 
HETATM   28  C   UNL     1      27.867  42.314  54.146  1.00  0.00     0.040 A 
ENDBRANCH   2  21
TORSDOF 3
ENDMDL
MODEL 7
REMARK VINA RESULT:      -8.8      3.478      7.208
REMARK  3 active torsions:
REMARK  status: ('A' for Active; 'I' for Inactive)
REMARK    1  A    between atoms: C_6  and  N_7 
REMARK       I    between atoms: N_7  and  C_8 
REMARK       I    between atoms: C_8  and  N_9 
REMARK    2  A    between atoms: N_9  and  C_10 
REMARK    3  A    between atoms: C_11  and  C_12 
ROOT
HETATM    1  C   UNL     1      29.105  43.091  53.202  1.00  0.00     0.049 A 
HETATM    2  C   UNL     1      28.127  44.104  53.231  1.00  0.00     0.021 A 
HETATM    3  C   UNL     1      28.133  45.065  54.255  1.00  0.00     0.016 A 
HETATM    4  C   UNL     1      29.116  45.022  55.244  1.00  0.00     0.001 A 
HETATM    5  C   UNL     1      30.110  44.046  55.196  1.00  0.00     0.002 A 
HETATM    6  C   UNL     1      30.113  43.094  54.172  1.00  0.00     0.030 A 
ENDROOT
BRANCH   1   7
HETATM    7  N   UNL     1      29.145  42.075  52.223  1.00  0.00    -0.308 N 
HETATM    8  C   UNL     1      28.774  40.779  52.473  1.00  0.00     0.325 C 
HETATM    9  N   UNL     1      28.620  39.967  51.385  1.00  0.00    -0.309 N 
HETATM   10  O   UNL     1      28.686  40.291  53.599  1.00  0.00    -0.247 OA
HETATM   11  H   UNL     1      28.597  38.990  51.649  1.00  0.00     0.170 HD
HETATM   12  H   UNL     1      29.831  42.156  51.486  1.00  0.00     0.170 HD
BRANCH   9  13
HETATM   13  C   UNL     1      28.244  40.267  50.060  1.00  0.00     0.039 A 
HETATM   14  C   UNL     1      27.165  41.080  49.718  1.00  0.00     0.072 A 
HETATM   15  C   UNL     1      26.827  41.260  48.377  1.00  0.00     0.124 A 
HETATM   16  C   UNL     1      27.548  40.646  47.351  1.00  0.00    -0.023 A 
HETATM   17  F   UNL     1      25.769  42.028  48.080  1.00  0.00    -0.205 F 
HETATM   18  C   UNL     1      27.139  40.804  45.920  1.00  0.00     0.051 C 
HETATM   19  C   UNL     1      28.618  39.816  47.696  1.00  0.00     0.012 A 
HETATM   20  C   UNL     1      28.960  39.628  49.039  1.00  0.00     0.030 A 
ENDBRANCH   9  13
ENDBRANCH   1   7
BRANCH   2  21
HETATM   21  C   UNL     1      27.198  44.318  52.097  1.00  0.00     0.089 A 
HETATM   22  N   UNL     1      27.683  44.484  50.902  1.00  0.00    -0.171 NA
HETATM   23  N   UNL     1      26.777  44.671  49.897  1.00  0.00    -0.243 N 
HETATM   24  C   UNL     1      25.415  44.695  50.041  1.00  0.00     0.261 A 
HETATM   25  H   UNL     1      27.155  44.787  48.963  1.00  0.00     0.192 HD
HETATM   26  O   UNL     1      24.641  44.859  49.104  1.00  0.00    -0.267 OA
HETATM   27  C   UNL     1      24.907  44.515  51.414  1.00  0.00     0.078 A 
HETATM   28  C   UNL     1      25.755  44.337  52.430  1.00  0.00     0.040 A 
ENDBRANCH   2  21
TORSDOF 3
ENDMDL
MODEL 8
REMARK VINA RESULT:      -8.7      2.856      6.248
REMARK  3 active torsions:
REMARK  status: ('A' for Active; 'I' for Inactive)
REMARK    1  A    between atoms: C_6  and  N_7 
REMARK       I    between atoms: N_7  and  C_8 
REMARK       I    between atoms: C_8  and  N_9 
REMARK    2  A    between atoms: N_9  and  C_10 
REMARK    3  A    between atoms: C_11  and  C_12 
ROOT
HETATM    1  C   UNL     1      27.618  44.390  53.058  1.00  0.00     0.049 A 
HETATM    2  C   UNL     1      28.180  43.102  52.969  1.00  0.00     0.021 A 
HETATM    3  C   UNL     1      29.133  42.679  53.908  1.00  0.00     0.016 A 
HETATM    4  C   UNL     1      29.521  43.534  54.939  1.00  0.00     0.001 A 
HETATM    5  C   UNL     1      28.938  44.795  55.055  1.00  0.00     0.002 A 
HETATM    6  C   UNL     1      27.980  45.216  54.127  1.00  0.00     0.030 A 
ENDROOT
BRANCH   1   7
HETATM    7  N   UNL     1      26.678  44.895  52.133  1.00  0.00    -0.308 N 
HETATM    8  C   UNL     1      25.360  45.109  52.447  1.00  0.00     0.325 C 
HETATM    9  N   UNL     1      24.629  45.832  51.547  1.00  0.00    -0.309 N 
HETATM   10  O   UNL     1      24.790  44.604  53.412  1.00  0.00    -0.247 OA
HETATM   11  H   UNL     1      23.634  45.735  51.712  1.00  0.00     0.170 HD
HETATM   12  H   UNL     1      26.826  44.697  51.153  1.00  0.00     0.170 HD
BRANCH   9  13
HETATM   13  C   UNL     1      25.018  46.840  50.643  1.00  0.00     0.039 A 
HETATM   14  C   UNL     1      26.330  47.288  50.489  1.00  0.00     0.072 A 
HETATM   15  C   UNL     1      26.606  48.343  49.619  1.00  0.00     0.124 A 
HETATM   16  C   UNL     1      25.599  48.971  48.886  1.00  0.00    -0.023 A 
HETATM   17  F   UNL     1      27.873  48.767  49.509  1.00  0.00    -0.205 F 
HETATM   18  C   UNL     1      25.904  50.139  47.999  1.00  0.00     0.051 C 
HETATM   19  C   UNL     1      24.282  48.535  49.056  1.00  0.00     0.012 A 
HETATM   20  C   UNL     1      23.997  47.480  49.930  1.00  0.00     0.030 A 
ENDBRANCH   9  13
ENDBRANCH   1   7
BRANCH   2  21
HETATM   21  C   UNL     1      27.650  42.088  52.027  1.00  0.00     0.089 A 
HETATM   22  N   UNL     1      26.377  42.072  51.761  1.00  0.00    -0.171 NA
HETATM   23  N   UNL     1      25.949  41.119  50.882  1.00  0.00    -0.243 N 
HETATM   24  C   UNL     1      26.742  40.189  50.261  1.00  0.00     0.261 A 
HETATM   25  H   UNL     1      24.959  41.115  50.664  1.00  0.00     0.192 HD
HETATM   26  O   UNL     1      26.310  39.356  49.472  1.00  0.00    -0.267 OA
HETATM   27  C   UNL     1      28.177  40.234  50.599  1.00  0.00     0.078 A 
HETATM   28  C   UNL     1      28.640  41.144  51.460  1.00  0.00     0.040 A 
ENDBRANCH   2  21
TORSDOF 3
ENDMDL
MODEL 9
REMARK VINA RESULT:      -8.2     13.579     14.956
REMARK  3 active torsions:
REMARK  status: ('A' for Active; 'I' for Inactive)
REMARK    1  A    between atoms: C_6  and  N_7 
REMARK       I    between atoms: N_7  and  C_8 
REMARK       I    between atoms: C_8  and  N_9 
REMARK    2  A    between atoms: N_9  and  C_10 
REMARK    3  A    between atoms: C_11  and  C_12 
ROOT
HETATM    1  C   UNL     1      28.457  48.059  40.551  1.00  0.00     0.049 A 
HETATM    2  C   UNL     1      27.655  49.131  40.116  1.00  0.00     0.021 A 
HETATM    3  C   UNL     1      26.298  48.927  39.823  1.00  0.00     0.016 A 
HETATM    4  C   UNL     1      25.737  47.659  39.972  1.00  0.00     0.001 A 
HETATM    5  C   UNL     1      26.517  46.603  40.442  1.00  0.00     0.002 A 
HETATM    6  C   UNL     1      27.867  46.805  40.744  1.00  0.00     0.030 A 
ENDROOT
BRANCH   1   7
HETATM    7  N   UNL     1      29.835  48.181  40.835  1.00  0.00    -0.308 N 
HETATM    8  C   UNL     1      30.808  48.093  39.874  1.00  0.00     0.325 C 
HETATM    9  N   UNL     1      32.066  48.481  40.241  1.00  0.00    -0.309 N 
HETATM   10  O   UNL     1      30.638  47.592  38.763  1.00  0.00    -0.247 OA
HETATM   11  H   UNL     1      32.763  48.157  39.582  1.00  0.00     0.170 HD
HETATM   12  H   UNL     1      30.156  47.899  41.751  1.00  0.00     0.170 HD
BRANCH   9  13
HETATM   13  C   UNL     1      32.495  49.427  41.193  1.00  0.00     0.039 A 
HETATM   14  C   UNL     1      33.693  50.134  41.107  1.00  0.00     0.072 A 
HETATM   15  C   UNL     1      34.066  50.998  42.137  1.00  0.00     0.124 A 
HETATM   16  C   UNL     1      33.266  51.181  43.265  1.00  0.00    -0.023 A 
HETATM   17  F   UNL     1      35.235  51.647  42.037  1.00  0.00    -0.205 F 
HETATM   18  C   UNL     1      33.707  52.069  44.388  1.00  0.00     0.051 C 
HETATM   19  C   UNL     1      32.074  50.457  43.360  1.00  0.00     0.012 A 
HETATM   20  C   UNL     1      31.696  49.586  42.333  1.00  0.00     0.030 A 
ENDBRANCH   9  13
ENDBRANCH   1   7
BRANCH   2  21
HETATM   21  C   UNL     1      28.146  50.529  40.146  1.00  0.00     0.089 A 
HETATM   22  N   UNL     1      28.530  51.044  41.276  1.00  0.00    -0.171 NA
HETATM   23  N   UNL     1      28.978  52.333  41.239  1.00  0.00    -0.243 N 
HETATM   24  C   UNL     1      29.058  53.121  40.121  1.00  0.00     0.261 A 
HETATM   25  H   UNL     1      29.290  52.729  42.118  1.00  0.00     0.192 HD
HETATM   26  O   UNL     1      29.476  54.274  40.137  1.00  0.00    -0.267 OA
HETATM   27  C   UNL     1      28.603  52.503  38.860  1.00  0.00     0.078 A 
HETATM   28  C   UNL     1      28.149  51.247  38.850  1.00  0.00     0.040 A 
ENDBRANCH   2  21
TORSDOF 3
ENDMDL
MODEL 10
REMARK VINA RESULT:      -8.2      6.189      8.751
REMARK  3 active torsions:
REMARK  status: ('A' for Active; 'I' for Inactive)
REMARK    1  A    between atoms: C_6  and  N_7 
REMARK       I    between atoms: N_7  and  C_8 
REMARK       I    between atoms: C_8  and  N_9 
REMARK    2  A    between atoms: N_9  and  C_10 
REMARK    3  A    between atoms: C_11  and  C_12 
ROOT
HETATM    1  C   UNL     1      21.273  49.035  48.998  1.00  0.00     0.049 A 
HETATM    2  C   UNL     1      19.950  49.074  48.516  1.00  0.00     0.021 A 
HETATM    3  C   UNL     1      19.330  50.304  48.249  1.00  0.00     0.016 A 
HETATM    4  C   UNL     1      20.029  51.495  48.452  1.00  0.00     0.001 A 
HETATM    5  C   UNL     1      21.352  51.459  48.889  1.00  0.00     0.002 A 
HETATM    6  C   UNL     1      21.976  50.235  49.147  1.00  0.00     0.030 A 
ENDROOT
BRANCH   1   7
HETATM    7  N   UNL     1      21.951  47.838  49.317  1.00  0.00    -0.308 N 
HETATM    8  C   UNL     1      22.626  47.089  48.388  1.00  0.00     0.325 C 
HETATM    9  N   UNL     1      23.441  46.105  48.873  1.00  0.00    -0.309 N 
HETATM   10  O   UNL     1      22.456  47.179  47.173  1.00  0.00    -0.247 OA
HETATM   11  H   UNL     1      23.701  45.446  48.149  1.00  0.00     0.170 HD
HETATM   12  H   UNL     1      21.602  47.289  50.091  1.00  0.00     0.170 HD
BRANCH   9  13
HETATM   13  C   UNL     1      24.149  46.013  50.087  1.00  0.00     0.039 A 
HETATM   14  C   UNL     1      24.995  47.007  50.577  1.00  0.00     0.072 A 
HETATM   15  C   UNL     1      25.710  46.794  51.755  1.00  0.00     0.124 A 
HETATM   16  C   UNL     1      25.602  45.601  52.472  1.00  0.00    -0.023 A 
HETATM   17  F   UNL     1      26.533  47.759  52.189  1.00  0.00    -0.205 F 
HETATM   18  C   UNL     1      26.418  45.366  53.705  1.00  0.00     0.051 C 
HETATM   19  C   UNL     1      24.768  44.598  51.971  1.00  0.00     0.012 A 
HETATM   20  C   UNL     1      24.052  44.804  50.787  1.00  0.00     0.030 A 
ENDBRANCH   9  13
ENDBRANCH   1   7
BRANCH   2  21
HETATM   21  C   UNL     1      19.245  47.844  48.086  1.00  0.00     0.089 A 
HETATM   22  N   UNL     1      18.948  46.939  48.971  1.00  0.00    -0.171 NA
HETATM   23  N   UNL     1      18.293  45.831  48.514  1.00  0.00    -0.243 N 
HETATM   24  C   UNL     1      17.925  45.597  47.215  1.00  0.00     0.261 A 
HETATM   25  H   UNL     1      18.049  45.132  49.207  1.00  0.00     0.192 HD
HETATM   26  O   UNL     1      17.330  44.586  46.855  1.00  0.00    -0.267 OA
HETATM   27  C   UNL     1      18.292  46.642  46.241  1.00  0.00     0.078 A 
HETATM   28  C   UNL     1      18.940  47.740  46.640  1.00  0.00     0.040 A 
ENDBRANCH   2  21
TORSDOF 3
ENDMDL
