MODEL 1
REMARK VINA RESULT:      -9.5      0.000      0.000
REMARK  5 active torsions:
REMARK  status: ('A' for Active; 'I' for Inactive)
REMARK    1  A    between atoms: C_2  and  C_3 
REMARK    2  A    between atoms: C_7  and  C_8 
REMARK    3  A    between atoms: C_11  and  C_12 
REMARK       I    between atoms: C_12  and  N_13 
REMARK    4  A    between atoms: N_13  and  C_14 
REMARK    5  A    between atoms: C_17  and  N_18 
REMARK       I    between atoms: N_18  and  C_19 
ROOT
HETATM    1  C   UNL     1      25.065  46.397  50.095  1.00  0.00     0.010 A 
HETATM    2  C   UNL     1      25.566  47.700  49.955  1.00  0.00     0.016 A 
HETATM    3  C   UNL     1      24.818  48.688  49.301  1.00  0.00     0.018 A 
HETATM    4  C   UNL     1      23.560  48.375  48.775  1.00  0.00     0.032 A 
HETATM    5  C   UNL     1      23.047  47.081  48.941  1.00  0.00     0.018 A 
HETATM    6  C   UNL     1      23.792  46.097  49.598  1.00  0.00     0.016 A 
ENDROOT
BRANCH   4   7
HETATM    7  C   UNL     1      22.711  49.373  48.061  1.00  0.00     0.256 C 
HETATM    8  N   UNL     1      21.374  49.381  48.416  1.00  0.00    -0.323 N 
HETATM    9  H   UNL     1      21.082  48.745  49.143  1.00  0.00     0.169 HD
HETATM   10  O   UNL     1      23.264  50.124  47.265  1.00  0.00    -0.267 OA
BRANCH   8  11
HETATM   11  C   UNL     1      20.382  50.282  47.967  1.00  0.00     0.035 A 
HETATM   12  C   UNL     1      20.111  51.511  48.565  1.00  0.00     0.032 A 
HETATM   13  C   UNL     1      19.066  52.323  48.097  1.00  0.00     0.032 A 
HETATM   14  C   UNL     1      18.281  51.924  47.019  1.00  0.00     0.034 A 
HETATM   15  C   UNL     1      18.572  50.706  46.397  1.00  0.00     0.032 A 
HETATM   16  C   UNL     1      19.613  49.893  46.866  1.00  0.00     0.032 A 
BRANCH  14  17
HETATM   17  N   UNL     1      17.185  52.659  46.522  1.00  0.00    -0.328 N 
HETATM   18  C   UNL     1      15.842  52.423  46.750  1.00  0.00     0.218 C 
HETATM   19  C   UNL     1      14.953  53.378  45.989  1.00  0.00     0.117 C 
HETATM   20  O   UNL     1      15.355  51.573  47.485  1.00  0.00    -0.274 OA
HETATM   21  H   UNL     1      17.414  53.435  45.913  1.00  0.00     0.169 HD
ENDBRANCH  14  17
ENDBRANCH   8  11
ENDBRANCH   4   7
BRANCH   1  22
HETATM   22  C   UNL     1      25.890  45.381  50.812  1.00  0.00     0.142 A 
HETATM   23  N   UNL     1      26.141  44.233  50.258  1.00  0.00    -0.222 NA
HETATM   24  C   UNL     1      26.918  43.394  50.993  1.00  0.00     0.116 A 
HETATM   25  C   UNL     1      27.443  43.631  52.246  1.00  0.00     0.075 A 
HETATM   26  S   UNL     1      27.368  41.864  50.404  1.00  0.00    -0.074 SA
HETATM   27  C   UNL     1      28.247  42.540  52.736  1.00  0.00    -0.027 A 
HETATM   28  C   UNL     1      27.123  44.904  52.860  1.00  0.00     0.260 A 
HETATM   29  C   UNL     1      28.285  41.508  51.805  1.00  0.00    -0.012 A 
HETATM   30  C   UNL     1      29.003  40.201  51.901  1.00  0.00     0.057 C 
HETATM   31  N   UNL     1      26.346  45.725  52.075  1.00  0.00    -0.307 N 
HETATM   32  O   UNL     1      27.490  45.255  53.978  1.00  0.00    -0.267 OA
HETATM   33  H   UNL     1      26.092  46.594  52.517  1.00  0.00     0.170 HD
BRANCH  27  34
HETATM   34  C   UNL     1      28.958  42.525  54.063  1.00  0.00     0.036 C 
HETATM   35  C   UNL     1      30.370  43.082  53.967  1.00  0.00     0.010 C 
ENDBRANCH  27  34
ENDBRANCH   1  22
TORSDOF 5
ENDMDL
MODEL 2
REMARK VINA RESULT:      -9.2      2.911      3.662
REMARK  5 active torsions:
REMARK  status: ('A' for Active; 'I' for Inactive)
REMARK    1  A    between atoms: C_2  and  C_3 
REMARK    2  A    between atoms: C_7  and  C_8 
REMARK    3  A    between atoms: C_11  and  C_12 
REMARK       I    between atoms: C_12  and  N_13 
REMARK    4  A    between atoms: N_13  and  C_14 
REMARK    5  A    between atoms: C_17  and  N_18 
REMARK       I    between atoms: N_18  and  C_19 
ROOT
HETATM    1  C   UNL     1      25.346  45.895  51.578  1.00  0.00     0.010 A 
HETATM    2  C   UNL     1      24.621  44.773  51.150  1.00  0.00     0.016 A 
HETATM    3  C   UNL     1      23.646  44.889  50.151  1.00  0.00     0.018 A 
HETATM    4  C   UNL     1      23.384  46.137  49.576  1.00  0.00     0.032 A 
HETATM    5  C   UNL     1      24.129  47.253  49.982  1.00  0.00     0.018 A 
HETATM    6  C   UNL     1      25.106  47.136  50.976  1.00  0.00     0.016 A 
ENDROOT
BRANCH   4   7
HETATM    7  C   UNL     1      22.357  46.338  48.511  1.00  0.00     0.256 C 
HETATM    8  N   UNL     1      21.086  46.650  48.961  1.00  0.00    -0.323 N 
HETATM    9  H   UNL     1      20.957  46.749  49.957  1.00  0.00     0.169 HD
HETATM   10  O   UNL     1      22.725  46.257  47.345  1.00  0.00    -0.267 OA
BRANCH   8  11
HETATM   11  C   UNL     1      19.964  46.979  48.168  1.00  0.00     0.035 A 
HETATM   12  C   UNL     1      19.705  48.254  47.668  1.00  0.00     0.032 A 
HETATM   13  C   UNL     1      18.534  48.516  46.939  1.00  0.00     0.032 A 
HETATM   14  C   UNL     1      17.607  47.508  46.693  1.00  0.00     0.034 A 
HETATM   15  C   UNL     1      17.880  46.220  47.167  1.00  0.00     0.032 A 
HETATM   16  C   UNL     1      19.047  45.958  47.897  1.00  0.00     0.032 A 
BRANCH  14  17
HETATM   17  N   UNL     1      16.387  47.702  46.013  1.00  0.00    -0.328 N 
HETATM   18  C   UNL     1      15.193  48.159  46.542  1.00  0.00     0.218 C 
HETATM   19  C   UNL     1      14.079  48.168  45.523  1.00  0.00     0.117 C 
HETATM   20  O   UNL     1      14.992  48.548  47.685  1.00  0.00    -0.274 OA
HETATM   21  H   UNL     1      16.386  47.459  45.030  1.00  0.00     0.169 HD
ENDBRANCH  14  17
ENDBRANCH   8  11
ENDBRANCH   4   7
BRANCH   1  22
HETATM   22  C   UNL     1      26.386  45.722  52.635  1.00  0.00     0.142 A 
HETATM   23  N   UNL     1      27.085  44.628  52.692  1.00  0.00    -0.222 NA
HETATM   24  C   UNL     1      28.015  44.587  53.681  1.00  0.00     0.116 A 
HETATM   25  C   UNL     1      28.275  45.564  54.618  1.00  0.00     0.075 A 
HETATM   26  S   UNL     1      29.037  43.242  53.878  1.00  0.00    -0.074 SA
HETATM   27  C   UNL     1      29.348  45.215  55.515  1.00  0.00    -0.027 A 
HETATM   28  C   UNL     1      27.462  46.762  54.559  1.00  0.00     0.260 A 
HETATM   29  C   UNL     1      29.852  43.958  55.203  1.00  0.00    -0.012 A 
HETATM   30  C   UNL     1      30.966  43.215  55.867  1.00  0.00     0.057 C 
HETATM   31  N   UNL     1      26.543  46.764  53.534  1.00  0.00    -0.307 N 
HETATM   32  O   UNL     1      27.551  47.709  55.335  1.00  0.00    -0.267 OA
HETATM   33  H   UNL     1      25.952  47.580  53.516  1.00  0.00     0.170 HD
BRANCH  27  34
HETATM   34  C   UNL     1      29.860  46.093  56.625  1.00  0.00     0.036 C 
HETATM   35  C   UNL     1      29.023  45.971  57.890  1.00  0.00     0.010 C 
ENDBRANCH  27  34
ENDBRANCH   1  22
TORSDOF 5
ENDMDL
MODEL 3
REMARK VINA RESULT:      -9.1      1.811      2.289
REMARK  5 active torsions:
REMARK  status: ('A' for Active; 'I' for Inactive)
REMARK    1  A    between atoms: C_2  and  C_3 
REMARK    2  A    between atoms: C_7  and  C_8 
REMARK    3  A    between atoms: C_11  and  C_12 
REMARK       I    between atoms: C_12  and  N_13 
REMARK    4  A    between atoms: N_13  and  C_14 
REMARK    5  A    between atoms: C_17  and  N_18 
REMARK       I    between atoms: N_18  and  C_19 
ROOT
HETATM    1  C   UNL     1      24.863  46.096  50.358  1.00  0.00     0.010 A 
HETATM    2  C   UNL     1      24.896  47.491  50.509  1.00  0.00     0.016 A 
HETATM    3  C   UNL     1      23.915  48.297  49.915  1.00  0.00     0.018 A 
HETATM    4  C   UNL     1      22.894  47.711  49.160  1.00  0.00     0.032 A 
HETATM    5  C   UNL     1      22.844  46.315  49.035  1.00  0.00     0.018 A 
HETATM    6  C   UNL     1      23.820  45.510  49.630  1.00  0.00     0.016 A 
ENDROOT
BRANCH   4   7
HETATM    7  C   UNL     1      21.821  48.507  48.496  1.00  0.00     0.256 C 
HETATM    8  N   UNL     1      20.992  49.218  49.346  1.00  0.00    -0.323 N 
HETATM    9  H   UNL     1      21.191  49.172  50.334  1.00  0.00     0.169 HD
HETATM   10  O   UNL     1      21.788  48.505  47.270  1.00  0.00    -0.267 OA
BRANCH   8  11
HETATM   11  C   UNL     1      19.968  50.117  48.976  1.00  0.00     0.035 A 
HETATM   12  C   UNL     1      20.155  51.486  48.791  1.00  0.00     0.032 A 
HETATM   13  C   UNL     1      19.072  52.325  48.483  1.00  0.00     0.032 A 
HETATM   14  C   UNL     1      17.786  51.809  48.348  1.00  0.00     0.034 A 
HETATM   15  C   UNL     1      17.601  50.430  48.501  1.00  0.00     0.032 A 
HETATM   16  C   UNL     1      18.681  49.593  48.811  1.00  0.00     0.032 A 
BRANCH  14  17
HETATM   17  N   UNL     1      16.642  52.591  48.089  1.00  0.00    -0.328 N 
HETATM   18  C   UNL     1      15.668  52.978  48.990  1.00  0.00     0.218 C 
HETATM   19  C   UNL     1      14.550  53.752  48.333  1.00  0.00     0.117 C 
HETATM   20  O   UNL     1      15.654  52.774  50.198  1.00  0.00    -0.274 OA
HETATM   21  H   UNL     1      16.515  52.882  47.128  1.00  0.00     0.169 HD
ENDBRANCH  14  17
ENDBRANCH   8  11
ENDBRANCH   4   7
BRANCH   1  22
HETATM   22  C   UNL     1      25.919  45.275  51.019  1.00  0.00     0.142 A 
HETATM   23  N   UNL     1      26.449  45.669  52.139  1.00  0.00    -0.222 NA
HETATM   24  C   UNL     1      27.386  44.833  52.660  1.00  0.00     0.116 A 
HETATM   25  C   UNL     1      27.830  43.644  52.123  1.00  0.00     0.075 A 
HETATM   26  S   UNL     1      28.156  45.182  54.135  1.00  0.00    -0.074 SA
HETATM   27  C   UNL     1      28.816  42.988  52.944  1.00  0.00    -0.027 A 
HETATM   28  C   UNL     1      27.251  43.240  50.857  1.00  0.00     0.260 A 
HETATM   29  C   UNL     1      29.075  43.738  54.085  1.00  0.00    -0.012 A 
HETATM   30  C   UNL     1      30.018  43.429  55.203  1.00  0.00     0.057 C 
HETATM   31  N   UNL     1      26.299  44.109  50.375  1.00  0.00    -0.307 N 
HETATM   32  O   UNL     1      27.558  42.225  50.239  1.00  0.00    -0.267 OA
HETATM   33  H   UNL     1      25.924  43.847  49.477  1.00  0.00     0.170 HD
BRANCH  27  34
HETATM   34  C   UNL     1      29.465  41.670  52.619  1.00  0.00     0.036 C 
HETATM   35  C   UNL     1      28.637  40.486  53.096  1.00  0.00     0.010 C 
ENDBRANCH  27  34
ENDBRANCH   1  22
TORSDOF 5
ENDMDL
MODEL 4
REMARK VINA RESULT:      -9.0      3.497      4.560
REMARK  5 active torsions:
REMARK  status: ('A' for Active; 'I' for Inactive)
REMARK    1  A    between atoms: C_2  and  C_3 
REMARK    2  A    between atoms: C_7  and  C_8 
REMARK    3  A    between atoms: C_11  and  C_12 
REMARK       I    between atoms: C_12  and  N_13 
REMARK    4  A    between atoms: N_13  and  C_14 
REMARK    5  A    between atoms: C_17  and  N_18 
REMARK       I    between atoms: N_18  and  C_19 
ROOT
HETATM    1  C   UNL     1      26.239  44.802  51.968  1.00  0.00     0.010 A 
HETATM    2  C   UNL     1      26.126  45.946  51.164  1.00  0.00     0.016 A 
HETATM    3  C   UNL     1      25.112  46.046  50.202  1.00  0.00     0.018 A 
HETATM    4  C   UNL     1      24.203  44.996  50.036  1.00  0.00     0.032 A 
HETATM    5  C   UNL     1      24.298  43.866  50.860  1.00  0.00     0.018 A 
HETATM    6  C   UNL     1      25.307  43.768  51.823  1.00  0.00     0.016 A 
ENDROOT
BRANCH   4   7
HETATM    7  C   UNL     1      23.102  45.031  49.028  1.00  0.00     0.256 C 
HETATM    8  N   UNL     1      22.131  45.994  49.240  1.00  0.00    -0.323 N 
HETATM    9  H   UNL     1      22.254  46.612  50.028  1.00  0.00     0.169 HD
HETATM   10  O   UNL     1      23.169  44.250  48.086  1.00  0.00    -0.267 OA
BRANCH   8  11
HETATM   11  C   UNL     1      21.042  46.301  48.394  1.00  0.00     0.035 A 
HETATM   12  C   UNL     1      21.019  47.374  47.505  1.00  0.00     0.032 A 
HETATM   13  C   UNL     1      19.874  47.650  46.741  1.00  0.00     0.032 A 
HETATM   14  C   UNL     1      18.737  46.854  46.847  1.00  0.00     0.034 A 
HETATM   15  C   UNL     1      18.770  45.757  47.715  1.00  0.00     0.032 A 
HETATM   16  C   UNL     1      19.911  45.483  48.480  1.00  0.00     0.032 A 
BRANCH  14  17
HETATM   17  N   UNL     1      17.534  47.094  46.152  1.00  0.00    -0.328 N 
HETATM   18  C   UNL     1      16.371  47.651  46.652  1.00  0.00     0.218 C 
HETATM   19  C   UNL     1      15.262  47.684  45.628  1.00  0.00     0.117 C 
HETATM   20  O   UNL     1      16.192  48.105  47.775  1.00  0.00    -0.274 OA
HETATM   21  H   UNL     1      17.520  46.806  45.182  1.00  0.00     0.169 HD
ENDBRANCH  14  17
ENDBRANCH   8  11
ENDBRANCH   4   7
BRANCH   1  22
HETATM   22  C   UNL     1      27.326  44.744  52.989  1.00  0.00     0.142 A 
HETATM   23  N   UNL     1      27.307  45.547  54.011  1.00  0.00    -0.222 NA
HETATM   24  C   UNL     1      28.336  45.392  54.886  1.00  0.00     0.116 A 
HETATM   25  C   UNL     1      29.380  44.497  54.792  1.00  0.00     0.075 A 
HETATM   26  S   UNL     1      28.448  46.340  56.293  1.00  0.00    -0.074 SA
HETATM   27  C   UNL     1      30.292  44.575  55.905  1.00  0.00    -0.027 A 
HETATM   28  C   UNL     1      29.400  43.634  53.628  1.00  0.00     0.260 A 
HETATM   29  C   UNL     1      29.880  45.553  56.803  1.00  0.00    -0.012 A 
HETATM   30  C   UNL     1      30.523  45.960  58.089  1.00  0.00     0.057 C 
HETATM   31  N   UNL     1      28.334  43.817  52.777  1.00  0.00    -0.307 N 
HETATM   32  O   UNL     1      30.273  42.806  53.385  1.00  0.00    -0.267 OA
HETATM   33  H   UNL     1      28.368  43.244  51.949  1.00  0.00     0.170 HD
BRANCH  27  34
HETATM   34  C   UNL     1      31.511  43.711  56.079  1.00  0.00     0.036 C 
HETATM   35  C   UNL     1      31.367  42.736  57.238  1.00  0.00     0.010 C 
ENDBRANCH  27  34
ENDBRANCH   1  22
TORSDOF 5
ENDMDL
MODEL 5
REMARK VINA RESULT:      -8.9      3.519     12.187
REMARK  5 active torsions:
REMARK  status: ('A' for Active; 'I' for Inactive)
REMARK    1  A    between atoms: C_2  and  C_3 
REMARK    2  A    between atoms: C_7  and  C_8 
REMARK    3  A    between atoms: C_11  and  C_12 
REMARK       I    between atoms: C_12  and  N_13 
REMARK    4  A    between atoms: N_13  and  C_14 
REMARK    5  A    between atoms: C_17  and  N_18 
REMARK       I    between atoms: N_18  and  C_19 
ROOT
HETATM    1  C   UNL     1      22.309  47.577  48.996  1.00  0.00     0.010 A 
HETATM    2  C   UNL     1      23.465  48.126  49.572  1.00  0.00     0.016 A 
HETATM    3  C   UNL     1      24.614  47.345  49.751  1.00  0.00     0.018 A 
HETATM    4  C   UNL     1      24.612  46.002  49.359  1.00  0.00     0.032 A 
HETATM    5  C   UNL     1      23.467  45.462  48.756  1.00  0.00     0.018 A 
HETATM    6  C   UNL     1      22.322  46.243  48.573  1.00  0.00     0.016 A 
ENDROOT
BRANCH   4   7
HETATM    7  C   UNL     1      25.797  45.109  49.524  1.00  0.00     0.256 C 
HETATM    8  N   UNL     1      25.518  43.818  49.934  1.00  0.00    -0.323 N 
HETATM    9  H   UNL     1      24.547  43.569  50.057  1.00  0.00     0.169 HD
HETATM   10  O   UNL     1      26.898  45.570  49.245  1.00  0.00    -0.267 OA
BRANCH   8  11
HETATM   11  C   UNL     1      26.438  42.755  50.073  1.00  0.00     0.035 A 
HETATM   12  C   UNL     1      26.998  42.057  49.004  1.00  0.00     0.032 A 
HETATM   13  C   UNL     1      27.858  40.971  49.226  1.00  0.00     0.032 A 
HETATM   14  C   UNL     1      28.179  40.568  50.520  1.00  0.00     0.034 A 
HETATM   15  C   UNL     1      27.644  41.287  51.594  1.00  0.00     0.032 A 
HETATM   16  C   UNL     1      26.782  42.369  51.373  1.00  0.00     0.032 A 
BRANCH  14  17
HETATM   17  N   UNL     1      28.995  39.459  50.824  1.00  0.00    -0.328 N 
HETATM   18  C   UNL     1      28.861  38.164  50.358  1.00  0.00     0.218 C 
HETATM   19  C   UNL     1      29.880  37.227  50.962  1.00  0.00     0.117 C 
HETATM   20  O   UNL     1      28.051  37.754  49.536  1.00  0.00    -0.274 OA
HETATM   21  H   UNL     1      29.750  39.633  51.475  1.00  0.00     0.169 HD
ENDBRANCH  14  17
ENDBRANCH   8  11
ENDBRANCH   4   7
BRANCH   1  22
HETATM   22  C   UNL     1      21.112  48.450  48.811  1.00  0.00     0.142 A 
HETATM   23  N   UNL     1      20.800  48.890  47.629  1.00  0.00    -0.222 NA
HETATM   24  C   UNL     1      19.680  49.659  47.576  1.00  0.00     0.116 A 
HETATM   25  C   UNL     1      18.871  50.023  48.631  1.00  0.00     0.075 A 
HETATM   26  S   UNL     1      19.112  50.290  46.103  1.00  0.00    -0.074 SA
HETATM   27  C   UNL     1      17.745  50.827  48.226  1.00  0.00    -0.027 A 
HETATM   28  C   UNL     1      19.256  49.550  49.945  1.00  0.00     0.260 A 
HETATM   29  C   UNL     1      17.767  51.038  46.853  1.00  0.00    -0.012 A 
HETATM   30  C   UNL     1      16.793  51.805  46.018  1.00  0.00     0.057 C 
HETATM   31  N   UNL     1      20.387  48.765  49.949  1.00  0.00    -0.307 N 
HETATM   32  O   UNL     1      18.657  49.808  50.986  1.00  0.00    -0.267 OA
HETATM   33  H   UNL     1      20.676  48.468  50.867  1.00  0.00     0.170 HD
BRANCH  27  34
HETATM   34  C   UNL     1      16.687  51.354  49.158  1.00  0.00     0.036 C 
HETATM   35  C   UNL     1      17.071  52.693  49.769  1.00  0.00     0.010 C 
ENDBRANCH  27  34
ENDBRANCH   1  22
TORSDOF 5
ENDMDL
MODEL 6
REMARK VINA RESULT:      -8.9      4.071      4.659
REMARK  5 active torsions:
REMARK  status: ('A' for Active; 'I' for Inactive)
REMARK    1  A    between atoms: C_2  and  C_3 
REMARK    2  A    between atoms: C_7  and  C_8 
REMARK    3  A    between atoms: C_11  and  C_12 
REMARK       I    between atoms: C_12  and  N_13 
REMARK    4  A    between atoms: N_13  and  C_14 
REMARK    5  A    between atoms: C_17  and  N_18 
REMARK       I    between atoms: N_18  and  C_19 
ROOT
HETATM    1  C   UNL     1      25.264  45.524  51.417  1.00  0.00     0.010 A 
HETATM    2  C   UNL     1      25.040  46.758  50.787  1.00  0.00     0.016 A 
HETATM    3  C   UNL     1      24.075  46.881  49.779  1.00  0.00     0.018 A 
HETATM    4  C   UNL     1      23.328  45.764  49.389  1.00  0.00     0.032 A 
HETATM    5  C   UNL     1      23.531  44.539  50.039  1.00  0.00     0.018 A 
HETATM    6  C   UNL     1      24.491  44.417  51.048  1.00  0.00     0.016 A 
ENDROOT
BRANCH   4   7
HETATM    7  C   UNL     1      22.288  45.820  48.320  1.00  0.00     0.256 C 
HETATM    8  N   UNL     1      21.201  44.983  48.500  1.00  0.00    -0.323 N 
HETATM    9  H   UNL     1      21.176  44.430  49.344  1.00  0.00     0.169 HD
HETATM   10  O   UNL     1      22.455  46.622  47.407  1.00  0.00    -0.267 OA
BRANCH   8  11
HETATM   11  C   UNL     1      20.043  44.911  47.694  1.00  0.00     0.035 A 
HETATM   12  C   UNL     1      19.962  44.198  46.500  1.00  0.00     0.032 A 
HETATM   13  C   UNL     1      18.793  44.225  45.724  1.00  0.00     0.032 A 
HETATM   14  C   UNL     1      17.684  44.960  46.131  1.00  0.00     0.034 A 
HETATM   15  C   UNL     1      17.751  45.651  47.346  1.00  0.00     0.032 A 
HETATM   16  C   UNL     1      18.919  45.627  48.120  1.00  0.00     0.032 A 
BRANCH  14  17
HETATM   17  N   UNL     1      16.493  45.077  45.385  1.00  0.00    -0.328 N 
HETATM   18  C   UNL     1      16.145  46.092  44.512  1.00  0.00     0.218 C 
HETATM   19  C   UNL     1      14.755  45.915  43.950  1.00  0.00     0.117 C 
HETATM   20  O   UNL     1      16.837  47.042  44.170  1.00  0.00    -0.274 OA
HETATM   21  H   UNL     1      15.811  44.342  45.524  1.00  0.00     0.169 HD
ENDBRANCH  14  17
ENDBRANCH   8  11
ENDBRANCH   4   7
BRANCH   1  22
HETATM   22  C   UNL     1      26.292  45.442  52.496  1.00  0.00     0.142 A 
HETATM   23  N   UNL     1      27.042  44.387  52.606  1.00  0.00    -0.222 NA
HETATM   24  C   UNL     1      27.956  44.430  53.611  1.00  0.00     0.116 A 
HETATM   25  C   UNL     1      28.152  45.454  54.513  1.00  0.00     0.075 A 
HETATM   26  S   UNL     1      29.038  43.145  53.876  1.00  0.00    -0.074 SA
HETATM   27  C   UNL     1      29.225  45.192  55.439  1.00  0.00    -0.027 A 
HETATM   28  C   UNL     1      27.283  46.607  54.394  1.00  0.00     0.260 A 
HETATM   29  C   UNL     1      29.794  43.950  55.185  1.00  0.00    -0.012 A 
HETATM   30  C   UNL     1      30.931  43.289  55.895  1.00  0.00     0.057 C 
HETATM   31  N   UNL     1      26.383  46.525  53.355  1.00  0.00    -0.307 N 
HETATM   32  O   UNL     1      27.312  47.586  55.134  1.00  0.00    -0.267 OA
HETATM   33  H   UNL     1      25.754  47.309  53.296  1.00  0.00     0.170 HD
BRANCH  27  34
HETATM   34  C   UNL     1      29.674  46.136  56.522  1.00  0.00     0.036 C 
HETATM   35  C   UNL     1      28.878  45.961  57.806  1.00  0.00     0.010 C 
ENDBRANCH  27  34
ENDBRANCH   1  22
TORSDOF 5
ENDMDL
MODEL 7
REMARK VINA RESULT:      -8.8      3.325     12.659
REMARK  5 active torsions:
REMARK  status: ('A' for Active; 'I' for Inactive)
REMARK    1  A    between atoms: C_2  and  C_3 
REMARK    2  A    between atoms: C_7  and  C_8 
REMARK    3  A    between atoms: C_11  and  C_12 
REMARK       I    between atoms: C_12  and  N_13 
REMARK    4  A    between atoms: N_13  and  C_14 
REMARK    5  A    between atoms: C_17  and  N_18 
REMARK       I    between atoms: N_18  and  C_19 
ROOT
HETATM    1  C   UNL     1      20.236  50.277  48.636  1.00  0.00     0.010 A 
HETATM    2  C   UNL     1      20.363  48.884  48.521  1.00  0.00     0.016 A 
HETATM    3  C   UNL     1      21.570  48.247  48.840  1.00  0.00     0.018 A 
HETATM    4  C   UNL     1      22.664  49.004  49.272  1.00  0.00     0.032 A 
HETATM    5  C   UNL     1      22.528  50.392  49.416  1.00  0.00     0.018 A 
HETATM    6  C   UNL     1      21.322  51.027  49.102  1.00  0.00     0.016 A 
ENDROOT
BRANCH   4   7
HETATM    7  C   UNL     1      23.980  48.394  49.624  1.00  0.00     0.256 C 
HETATM    8  N   UNL     1      23.921  47.137  50.199  1.00  0.00    -0.323 N 
HETATM    9  H   UNL     1      23.009  46.718  50.307  1.00  0.00     0.169 HD
HETATM   10  O   UNL     1      24.992  49.024  49.337  1.00  0.00    -0.267 OA
BRANCH   8  11
HETATM   11  C   UNL     1      25.013  46.306  50.535  1.00  0.00     0.035 A 
HETATM   12  C   UNL     1      25.923  45.795  49.612  1.00  0.00     0.032 A 
HETATM   13  C   UNL     1      26.947  44.925  50.017  1.00  0.00     0.032 A 
HETATM   14  C   UNL     1      27.082  44.557  51.353  1.00  0.00     0.034 A 
HETATM   15  C   UNL     1      26.190  45.094  52.286  1.00  0.00     0.032 A 
HETATM   16  C   UNL     1      25.166  45.960  51.882  1.00  0.00     0.032 A 
BRANCH  14  17
HETATM   17  N   UNL     1      28.052  43.651  51.830  1.00  0.00    -0.328 N 
HETATM   18  C   UNL     1      28.804  43.757  52.985  1.00  0.00     0.218 C 
HETATM   19  C   UNL     1      29.798  42.630  53.131  1.00  0.00     0.117 C 
HETATM   20  O   UNL     1      28.718  44.623  53.847  1.00  0.00    -0.274 OA
HETATM   21  H   UNL     1      28.227  42.844  51.245  1.00  0.00     0.169 HD
ENDBRANCH  14  17
ENDBRANCH   8  11
ENDBRANCH   4   7
BRANCH   1  22
HETATM   22  C   UNL     1      18.928  50.911  48.299  1.00  0.00     0.142 A 
HETATM   23  N   UNL     1      18.270  51.574  49.203  1.00  0.00    -0.222 NA
HETATM   24  C   UNL     1      17.102  52.125  48.780  1.00  0.00     0.116 A 
HETATM   25  C   UNL     1      16.552  52.041  47.519  1.00  0.00     0.075 A 
HETATM   26  S   UNL     1      16.132  53.049  49.827  1.00  0.00    -0.074 SA
HETATM   27  C   UNL     1      15.311  52.763  47.395  1.00  0.00    -0.027 A 
HETATM   28  C   UNL     1      17.285  51.270  46.534  1.00  0.00     0.260 A 
HETATM   29  C   UNL     1      14.978  53.367  48.603  1.00  0.00    -0.012 A 
HETATM   30  C   UNL     1      13.787  54.212  48.918  1.00  0.00     0.057 C 
HETATM   31  N   UNL     1      18.467  50.742  47.004  1.00  0.00    -0.307 N 
HETATM   32  O   UNL     1      16.918  51.079  45.379  1.00  0.00    -0.267 OA
HETATM   33  H   UNL     1      18.957  50.175  46.331  1.00  0.00     0.170 HD
BRANCH  27  34
HETATM   34  C   UNL     1      14.497  52.862  46.134  1.00  0.00     0.036 C 
HETATM   35  C   UNL     1      14.895  54.058  45.282  1.00  0.00     0.010 C 
ENDBRANCH  27  34
ENDBRANCH   1  22
TORSDOF 5
ENDMDL
MODEL 8
REMARK VINA RESULT:      -8.7     13.613     17.511
REMARK  5 active torsions:
REMARK  status: ('A' for Active; 'I' for Inactive)
REMARK    1  A    between atoms: C_2  and  C_3 
REMARK    2  A    between atoms: C_7  and  C_8 
REMARK    3  A    between atoms: C_11  and  C_12 
REMARK       I    between atoms: C_12  and  N_13 
REMARK    4  A    between atoms: N_13  and  C_14 
REMARK    5  A    between atoms: C_17  and  N_18 
REMARK       I    between atoms: N_18  and  C_19 
ROOT
HETATM    1  C   UNL     1      33.806  50.921  42.833  1.00  0.00     0.010 A 
HETATM    2  C   UNL     1      35.069  50.850  42.227  1.00  0.00     0.016 A 
HETATM    3  C   UNL     1      36.156  51.560  42.755  1.00  0.00     0.018 A 
HETATM    4  C   UNL     1      35.983  52.352  43.894  1.00  0.00     0.032 A 
HETATM    5  C   UNL     1      34.728  52.399  44.518  1.00  0.00     0.018 A 
HETATM    6  C   UNL     1      33.645  51.687  43.993  1.00  0.00     0.016 A 
ENDROOT
BRANCH   4   7
HETATM    7  C   UNL     1      37.093  53.139  44.508  1.00  0.00     0.256 C 
HETATM    8  N   UNL     1      37.719  52.545  45.590  1.00  0.00    -0.323 N 
HETATM    9  H   UNL     1      37.405  51.624  45.859  1.00  0.00     0.169 HD
HETATM   10  O   UNL     1      37.387  54.209  43.986  1.00  0.00    -0.267 OA
BRANCH   8  11
HETATM   11  C   UNL     1      38.849  53.028  46.287  1.00  0.00     0.035 A 
HETATM   12  C   UNL     1      38.827  53.461  47.611  1.00  0.00     0.032 A 
HETATM   13  C   UNL     1      39.980  53.986  48.215  1.00  0.00     0.032 A 
HETATM   14  C   UNL     1      41.175  54.080  47.508  1.00  0.00     0.034 A 
HETATM   15  C   UNL     1      41.208  53.616  46.188  1.00  0.00     0.032 A 
HETATM   16  C   UNL     1      40.056  53.095  45.584  1.00  0.00     0.032 A 
BRANCH  14  17
HETATM   17  N   UNL     1      42.361  54.639  48.028  1.00  0.00    -0.328 N 
HETATM   18  C   UNL     1      43.496  53.967  48.442  1.00  0.00     0.218 C 
HETATM   19  C   UNL     1      44.541  54.896  49.011  1.00  0.00     0.117 C 
HETATM   20  O   UNL     1      43.711  52.763  48.367  1.00  0.00    -0.274 OA
HETATM   21  H   UNL     1      42.368  55.647  48.125  1.00  0.00     0.169 HD
ENDBRANCH  14  17
ENDBRANCH   8  11
ENDBRANCH   4   7
BRANCH   1  22
HETATM   22  C   UNL     1      32.680  50.136  42.245  1.00  0.00     0.142 A 
HETATM   23  N   UNL     1      31.475  50.623  42.243  1.00  0.00    -0.222 NA
HETATM   24  C   UNL     1      30.534  49.831  41.664  1.00  0.00     0.116 A 
HETATM   25  C   UNL     1      30.725  48.586  41.105  1.00  0.00     0.075 A 
HETATM   26  S   UNL     1      28.912  50.328  41.549  1.00  0.00    -0.074 SA
HETATM   27  C   UNL     1      29.518  48.025  40.552  1.00  0.00    -0.027 A 
HETATM   28  C   UNL     1      32.070  48.047  41.147  1.00  0.00     0.260 A 
HETATM   29  C   UNL     1      28.450  48.897  40.732  1.00  0.00    -0.012 A 
HETATM   30  C   UNL     1      27.028  48.719  40.309  1.00  0.00     0.057 C 
HETATM   31  N   UNL     1      32.991  48.888  41.730  1.00  0.00    -0.307 N 
HETATM   32  O   UNL     1      32.397  46.945  40.717  1.00  0.00    -0.267 OA
HETATM   33  H   UNL     1      33.917  48.498  41.794  1.00  0.00     0.170 HD
BRANCH  27  34
HETATM   34  C   UNL     1      29.428  46.689  39.865  1.00  0.00     0.036 C 
HETATM   35  C   UNL     1      29.672  46.793  38.367  1.00  0.00     0.010 C 
ENDBRANCH  27  34
ENDBRANCH   1  22
TORSDOF 5
ENDMDL
MODEL 9
REMARK VINA RESULT:      -8.4     13.162     14.435
REMARK  5 active torsions:
REMARK  status: ('A' for Active; 'I' for Inactive)
REMARK    1  A    between atoms: C_2  and  C_3 
REMARK    2  A    between atoms: C_7  and  C_8 
REMARK    3  A    between atoms: C_11  and  C_12 
REMARK       I    between atoms: C_12  and  N_13 
REMARK    4  A    between atoms: N_13  and  C_14 
REMARK    5  A    between atoms: C_17  and  N_18 
REMARK       I    between atoms: N_18  and  C_19 
ROOT
HETATM    1  C   UNL     1      35.792  52.035  43.697  1.00  0.00     0.010 A 
HETATM    2  C   UNL     1      34.533  52.185  44.298  1.00  0.00     0.016 A 
HETATM    3  C   UNL     1      33.376  51.716  43.661  1.00  0.00     0.018 A 
HETATM    4  C   UNL     1      33.472  51.097  42.411  1.00  0.00     0.032 A 
HETATM    5  C   UNL     1      34.733  50.920  41.824  1.00  0.00     0.018 A 
HETATM    6  C   UNL     1      35.887  51.384  42.461  1.00  0.00     0.016 A 
ENDROOT
BRANCH   4   7
HETATM    7  C   UNL     1      32.282  50.579  41.672  1.00  0.00     0.256 C 
HETATM    8  N   UNL     1      31.104  51.273  41.877  1.00  0.00    -0.323 N 
HETATM    9  H   UNL     1      31.141  52.085  42.475  1.00  0.00     0.169 HD
HETATM   10  O   UNL     1      32.452  49.625  40.921  1.00  0.00    -0.267 OA
BRANCH   8  11
HETATM   11  C   UNL     1      29.866  51.053  41.232  1.00  0.00     0.035 A 
HETATM   12  C   UNL     1      29.368  51.845  40.199  1.00  0.00     0.032 A 
HETATM   13  C   UNL     1      28.100  51.598  39.651  1.00  0.00     0.032 A 
HETATM   14  C   UNL     1      27.312  50.551  40.121  1.00  0.00     0.034 A 
HETATM   15  C   UNL     1      27.823  49.734  41.136  1.00  0.00     0.032 A 
HETATM   16  C   UNL     1      29.087  49.983  41.686  1.00  0.00     0.032 A 
BRANCH  14  17
HETATM   17  N   UNL     1      26.011  50.269  39.657  1.00  0.00    -0.328 N 
HETATM   18  C   UNL     1      25.636  49.900  38.377  1.00  0.00     0.218 C 
HETATM   19  C   UNL     1      24.141  49.753  38.235  1.00  0.00     0.117 C 
HETATM   20  O   UNL     1      26.375  49.679  37.426  1.00  0.00    -0.274 OA
HETATM   21  H   UNL     1      25.268  50.370  40.337  1.00  0.00     0.169 HD
ENDBRANCH  14  17
ENDBRANCH   8  11
ENDBRANCH   4   7
BRANCH   1  22
HETATM   22  C   UNL     1      36.999  52.536  44.418  1.00  0.00     0.142 A 
HETATM   23  N   UNL     1      38.025  51.759  44.594  1.00  0.00    -0.222 NA
HETATM   24  C   UNL     1      39.075  52.327  45.245  1.00  0.00     0.116 A 
HETATM   25  C   UNL     1      39.150  53.612  45.738  1.00  0.00     0.075 A 
HETATM   26  S   UNL     1      40.509  51.460  45.533  1.00  0.00    -0.074 SA
HETATM   27  C   UNL     1      40.419  53.906  46.356  1.00  0.00    -0.027 A 
HETATM   28  C   UNL     1      37.982  54.452  45.560  1.00  0.00     0.260 A 
HETATM   29  C   UNL     1      41.255  52.797  46.300  1.00  0.00    -0.012 A 
HETATM   30  C   UNL     1      42.653  52.664  46.810  1.00  0.00     0.057 C 
HETATM   31  N   UNL     1      36.951  53.839  44.885  1.00  0.00    -0.307 N 
HETATM   32  O   UNL     1      37.882  55.607  45.964  1.00  0.00    -0.267 OA
HETATM   33  H   UNL     1      36.125  54.410  44.795  1.00  0.00     0.170 HD
BRANCH  27  34
HETATM   34  C   UNL     1      40.792  55.231  46.964  1.00  0.00     0.036 C 
HETATM   35  C   UNL     1      41.420  56.175  45.950  1.00  0.00     0.010 C 
ENDBRANCH  27  34
ENDBRANCH   1  22
TORSDOF 5
ENDMDL
MODEL 10
REMARK VINA RESULT:      -8.4      4.929      6.012
REMARK  5 active torsions:
REMARK  status: ('A' for Active; 'I' for Inactive)
REMARK    1  A    between atoms: C_2  and  C_3 
REMARK    2  A    between atoms: C_7  and  C_8 
REMARK    3  A    between atoms: C_11  and  C_12 
REMARK       I    between atoms: C_12  and  N_13 
REMARK    4  A    between atoms: N_13  and  C_14 
REMARK    5  A    between atoms: C_17  and  N_18 
REMARK       I    between atoms: N_18  and  C_19 
ROOT
HETATM    1  C   UNL     1      26.136  44.563  52.105  1.00  0.00     0.010 A 
HETATM    2  C   UNL     1      25.625  45.781  51.631  1.00  0.00     0.016 A 
HETATM    3  C   UNL     1      24.575  45.803  50.702  1.00  0.00     0.018 A 
HETATM    4  C   UNL     1      24.033  44.601  50.236  1.00  0.00     0.032 A 
HETATM    5  C   UNL     1      24.524  43.385  50.732  1.00  0.00     0.018 A 
HETATM    6  C   UNL     1      25.568  43.363  51.662  1.00  0.00     0.016 A 
ENDROOT
BRANCH   4   7
HETATM    7  C   UNL     1      22.919  44.548  49.243  1.00  0.00     0.256 C 
HETATM    8  N   UNL     1      23.214  45.051  47.989  1.00  0.00    -0.323 N 
HETATM    9  H   UNL     1      24.154  45.382  47.830  1.00  0.00     0.169 HD
HETATM   10  O   UNL     1      21.867  44.030  49.599  1.00  0.00    -0.267 OA
BRANCH   8  11
HETATM   11  C   UNL     1      22.377  45.034  46.850  1.00  0.00     0.035 A 
HETATM   12  C   UNL     1      21.429  46.012  46.559  1.00  0.00     0.032 A 
HETATM   13  C   UNL     1      20.592  45.892  45.439  1.00  0.00     0.032 A 
HETATM   14  C   UNL     1      20.694  44.795  44.587  1.00  0.00     0.034 A 
HETATM   15  C   UNL     1      21.667  43.828  44.859  1.00  0.00     0.032 A 
HETATM   16  C   UNL     1      22.501  43.946  45.979  1.00  0.00     0.032 A 
BRANCH  14  17
HETATM   17  N   UNL     1      19.860  44.578  43.472  1.00  0.00    -0.328 N 
HETATM   18  C   UNL     1      20.099  44.942  42.159  1.00  0.00     0.218 C 
HETATM   19  C   UNL     1      18.941  44.609  41.249  1.00  0.00     0.117 C 
HETATM   20  O   UNL     1      21.115  45.457  41.708  1.00  0.00    -0.274 OA
HETATM   21  H   UNL     1      18.976  44.122  43.664  1.00  0.00     0.169 HD
ENDBRANCH  14  17
ENDBRANCH   8  11
ENDBRANCH   4   7
BRANCH   1  22
HETATM   22  C   UNL     1      27.244  44.588  53.104  1.00  0.00     0.142 A 
HETATM   23  N   UNL     1      27.208  45.420  54.102  1.00  0.00    -0.222 NA
HETATM   24  C   UNL     1      28.259  45.340  54.960  1.00  0.00     0.116 A 
HETATM   25  C   UNL     1      29.342  44.493  54.870  1.00  0.00     0.075 A 
HETATM   26  S   UNL     1      28.354  46.336  56.334  1.00  0.00    -0.074 SA
HETATM   27  C   UNL     1      30.271  44.647  55.962  1.00  0.00    -0.027 A 
HETATM   28  C   UNL     1      29.381  43.596  53.732  1.00  0.00     0.260 A 
HETATM   29  C   UNL     1      29.831  45.632  56.838  1.00  0.00    -0.012 A 
HETATM   30  C   UNL     1      30.479  46.108  58.098  1.00  0.00     0.057 C 
HETATM   31  N   UNL     1      28.290  43.703  52.899  1.00  0.00    -0.307 N 
HETATM   32  O   UNL     1      30.286  42.801  53.496  1.00  0.00    -0.267 OA
HETATM   33  H   UNL     1      28.335  43.106  52.088  1.00  0.00     0.170 HD
BRANCH  27  34
HETATM   34  C   UNL     1      31.533  43.846  56.136  1.00  0.00     0.036 C 
HETATM   35  C   UNL     1      31.384  42.756  57.187  1.00  0.00     0.010 C 
ENDBRANCH  27  34
ENDBRANCH   1  22
TORSDOF 5
ENDMDL
