MODEL 1
REMARK VINA RESULT:      -8.9      0.000      0.000
REMARK  8 active torsions:
REMARK  status: ('A' for Active; 'I' for Inactive)
REMARK    1  A    between atoms: C_2  and  C_3 
REMARK    2  A    between atoms: C_6  and  C_7 
REMARK       I    between atoms: C_7  and  N_8 
REMARK    3  A    between atoms: C_12  and  O_13 
REMARK    4  A    between atoms: O_13  and  C_14 
REMARK    5  A    between atoms: C_14  and  C_15 
REMARK    6  A    between atoms: C_15  and  O_16 
REMARK    7  A    between atoms: C_18  and  N_19 
REMARK       I    between atoms: N_19  and  C_20 
REMARK    8  A    between atoms: C_20  and  C_21 
ROOT
HETATM    1  C   UNL     1      25.153  49.122  48.799  1.00  0.00     0.274 C 
HETATM    2  N   UNL     1      25.335  48.044  49.680  1.00  0.00    -0.347 N 
HETATM    3  C   UNL     1      24.277  47.361  50.425  1.00  0.00     0.127 C 
HETATM    4  C   UNL     1      24.321  45.860  50.156  1.00  0.00     0.037 C 
HETATM    5  C   UNL     1      25.708  45.243  50.447  1.00  0.00     0.019 C 
HETATM    6  C   UNL     1      26.063  45.168  51.986  1.00  0.00     0.162 C 
HETATM    7  C   UNL     1      26.645  43.741  52.261  1.00  0.00     0.148 C 
HETATM    8  C   UNL     1      26.214  42.960  51.054  1.00  0.00    -0.026 A 
HETATM    9  C   UNL     1      25.732  43.782  50.037  1.00  0.00    -0.038 A 
HETATM   10  C   UNL     1      26.306  41.582  50.883  1.00  0.00     0.010 A 
HETATM   11  C   UNL     1      25.917  41.028  49.664  1.00  0.00     0.001 A 
HETATM   12  C   UNL     1      25.451  41.850  48.633  1.00  0.00     0.001 A 
HETATM   13  C   UNL     1      25.356  43.232  48.815  1.00  0.00     0.009 A 
HETATM   14  C   UNL     1      26.783  46.032  49.664  1.00  0.00     0.037 C 
HETATM   15  C   UNL     1      26.686  47.539  49.911  1.00  0.00     0.127 C 
HETATM   16  O   UNL     1      26.060  49.481  48.044  1.00  0.00    -0.266 OA
ENDROOT
BRANCH   6  17
HETATM   17  O   UNL     1      24.878  45.394  52.777  1.00  0.00    -0.380 OA
BRANCH  17  18
HETATM   18  C   UNL     1      25.160  45.984  54.050  1.00  0.00     0.194 C 
BRANCH  18  19
HETATM   19  C   UNL     1      26.110  47.163  53.860  1.00  0.00     0.193 C 
BRANCH  19  20
HETATM   20  O   UNL     1      25.621  48.288  54.589  1.00  0.00    -0.394 OA
HETATM   21  C   UNL     1      26.420  48.563  55.730  1.00  0.00     0.201 C 
ENDBRANCH  19  20
ENDBRANCH  18  19
ENDBRANCH  17  18
ENDBRANCH   6  17
BRANCH   7  22
HETATM   22  N   UNL     1      28.094  43.678  52.388  1.00  0.00    -0.350 N 
HETATM   23  C   UNL     1      28.716  43.869  53.596  1.00  0.00     0.221 C 
HETATM   24  O   UNL     1      28.140  44.326  54.578  1.00  0.00    -0.273 OA
HETATM   25  H   UNL     1      28.592  43.178  51.664  1.00  0.00     0.163 HD
BRANCH  23  26
HETATM   26  C   UNL     1      30.170  43.417  53.666  1.00  0.00     0.070 C 
HETATM   27  C   UNL     1      30.642  43.387  55.118  1.00  0.00     0.019 C 
HETATM   28  C   UNL     1      30.392  42.073  52.979  1.00  0.00     0.019 C 
ENDBRANCH  23  26
ENDBRANCH   7  22
BRANCH   1  29
HETATM   29  C   UNL     1      23.859  49.821  48.743  1.00  0.00     0.154 A 
HETATM   30  N   UNL     1      23.519  50.840  49.551  1.00  0.00    -0.123 NA
HETATM   31  O   UNL     1      22.244  51.221  49.180  1.00  0.00    -0.217 OA
HETATM   32  C   UNL     1      21.834  50.478  48.119  1.00  0.00     0.084 A 
HETATM   33  C   UNL     1      22.830  49.592  47.787  1.00  0.00     0.075 A 
BRANCH  32  34
HETATM   34  C   UNL     1      20.474  50.751  47.575  1.00  0.00     0.037 C 
HETATM   35  C   UNL     1      19.708  51.748  48.444  1.00  0.00     0.016 C 
HETATM   36  C   UNL     1      19.684  49.452  47.417  1.00  0.00     0.016 C 
ENDBRANCH  32  34
ENDBRANCH   1  29
TORSDOF 8
ENDMDL
MODEL 2
REMARK VINA RESULT:      -8.1      2.409      8.585
REMARK  8 active torsions:
REMARK  status: ('A' for Active; 'I' for Inactive)
REMARK    1  A    between atoms: C_2  and  C_3 
REMARK    2  A    between atoms: C_6  and  C_7 
REMARK       I    between atoms: C_7  and  N_8 
REMARK    3  A    between atoms: C_12  and  O_13 
REMARK    4  A    between atoms: O_13  and  C_14 
REMARK    5  A    between atoms: C_14  and  C_15 
REMARK    6  A    between atoms: C_15  and  O_16 
REMARK    7  A    between atoms: C_18  and  N_19 
REMARK       I    between atoms: N_19  and  C_20 
REMARK    8  A    between atoms: C_20  and  C_21 
ROOT
HETATM    1  C   UNL     1      26.449  43.943  54.300  1.00  0.00     0.274 C 
HETATM    2  N   UNL     1      26.074  44.498  53.066  1.00  0.00    -0.347 N 
HETATM    3  C   UNL     1      26.969  44.747  51.935  1.00  0.00     0.127 C 
HETATM    4  C   UNL     1      26.429  44.080  50.673  1.00  0.00     0.037 C 
HETATM    5  C   UNL     1      24.977  44.499  50.351  1.00  0.00     0.019 C 
HETATM    6  C   UNL     1      24.841  45.991  49.846  1.00  0.00     0.162 C 
HETATM    7  C   UNL     1      23.896  45.977  48.598  1.00  0.00     0.148 C 
HETATM    8  C   UNL     1      23.890  44.532  48.194  1.00  0.00    -0.026 A 
HETATM    9  C   UNL     1      24.449  43.708  49.169  1.00  0.00    -0.038 A 
HETATM   10  C   UNL     1      23.357  44.002  47.023  1.00  0.00     0.010 A 
HETATM   11  C   UNL     1      23.379  42.620  46.838  1.00  0.00     0.001 A 
HETATM   12  C   UNL     1      23.921  41.786  47.823  1.00  0.00     0.001 A 
HETATM   13  C   UNL     1      24.459  42.327  48.993  1.00  0.00     0.009 A 
HETATM   14  C   UNL     1      24.094  44.248  51.595  1.00  0.00     0.037 C 
HETATM   15  C   UNL     1      24.682  44.885  52.857  1.00  0.00     0.127 C 
HETATM   16  O   UNL     1      25.597  43.556  55.103  1.00  0.00    -0.266 OA
ENDROOT
BRANCH   6  17
HETATM   17  O   UNL     1      26.139  46.514  49.494  1.00  0.00    -0.380 OA
BRANCH  17  18
HETATM   18  C   UNL     1      26.281  47.906  49.792  1.00  0.00     0.194 C 
BRANCH  18  19
HETATM   19  C   UNL     1      27.541  48.441  49.120  1.00  0.00     0.193 C 
BRANCH  19  20
HETATM   20  O   UNL     1      27.290  49.752  48.615  1.00  0.00    -0.394 OA
HETATM   21  C   UNL     1      25.972  49.874  48.099  1.00  0.00     0.201 C 
ENDBRANCH  19  20
ENDBRANCH  18  19
ENDBRANCH  17  18
ENDBRANCH   6  17
BRANCH   7  22
HETATM   22  N   UNL     1      22.532  46.417  48.850  1.00  0.00    -0.350 N 
HETATM   23  C   UNL     1      22.011  47.527  48.233  1.00  0.00     0.221 C 
HETATM   24  O   UNL     1      22.703  48.340  47.628  1.00  0.00    -0.273 OA
HETATM   25  H   UNL     1      21.891  45.725  49.216  1.00  0.00     0.163 HD
BRANCH  23  26
HETATM   26  C   UNL     1      20.493  47.661  48.291  1.00  0.00     0.070 C 
HETATM   27  C   UNL     1      19.854  46.290  48.504  1.00  0.00     0.019 C 
HETATM   28  C   UNL     1      20.040  48.659  49.351  1.00  0.00     0.019 C 
ENDBRANCH  23  26
ENDBRANCH   7  22
BRANCH   1  29
HETATM   29  C   UNL     1      27.873  43.787  54.639  1.00  0.00     0.154 A 
HETATM   30  N   UNL     1      28.657  42.807  54.160  1.00  0.00    -0.123 NA
HETATM   31  O   UNL     1      29.911  43.012  54.701  1.00  0.00    -0.217 OA
HETATM   32  C   UNL     1      29.903  44.141  55.458  1.00  0.00     0.084 A 
HETATM   33  C   UNL     1      28.642  44.683  55.432  1.00  0.00     0.075 A 
BRANCH  32  34
HETATM   34  C   UNL     1      31.179  44.527  56.126  1.00  0.00     0.037 C 
HETATM   35  C   UNL     1      31.831  43.337  56.830  1.00  0.00     0.016 C 
HETATM   36  C   UNL     1      30.948  45.677  57.108  1.00  0.00     0.016 C 
ENDBRANCH  32  34
ENDBRANCH   1  29
TORSDOF 8
ENDMDL
MODEL 3
REMARK VINA RESULT:      -8.0      4.094     11.250
REMARK  8 active torsions:
REMARK  status: ('A' for Active; 'I' for Inactive)
REMARK    1  A    between atoms: C_2  and  C_3 
REMARK    2  A    between atoms: C_6  and  C_7 
REMARK       I    between atoms: C_7  and  N_8 
REMARK    3  A    between atoms: C_12  and  O_13 
REMARK    4  A    between atoms: O_13  and  C_14 
REMARK    5  A    between atoms: C_14  and  C_15 
REMARK    6  A    between atoms: C_15  and  O_16 
REMARK    7  A    between atoms: C_18  and  N_19 
REMARK       I    between atoms: N_19  and  C_20 
REMARK    8  A    between atoms: C_20  and  C_21 
ROOT
HETATM    1  C   UNL     1      22.649  49.291  47.909  1.00  0.00     0.274 C 
HETATM    2  N   UNL     1      21.255  49.174  48.024  1.00  0.00    -0.347 N 
HETATM    3  C   UNL     1      20.536  48.626  49.175  1.00  0.00     0.127 C 
HETATM    4  C   UNL     1      19.498  49.624  49.679  1.00  0.00     0.037 C 
HETATM    5  C   UNL     1      18.526  50.085  48.570  1.00  0.00     0.019 C 
HETATM    6  C   UNL     1      17.504  48.968  48.113  1.00  0.00     0.162 C 
HETATM    7  C   UNL     1      16.089  49.634  48.035  1.00  0.00     0.148 C 
HETATM    8  C   UNL     1      16.265  50.897  48.827  1.00  0.00    -0.026 A 
HETATM    9  C   UNL     1      17.605  51.172  49.093  1.00  0.00    -0.038 A 
HETATM   10  C   UNL     1      15.257  51.766  49.234  1.00  0.00     0.010 A 
HETATM   11  C   UNL     1      15.609  52.935  49.909  1.00  0.00     0.001 A 
HETATM   12  C   UNL     1      16.954  53.225  50.162  1.00  0.00     0.001 A 
HETATM   13  C   UNL     1      17.958  52.344  49.754  1.00  0.00     0.009 A 
HETATM   14  C   UNL     1      19.346  50.615  47.371  1.00  0.00     0.037 C 
HETATM   15  C   UNL     1      20.414  49.617  46.916  1.00  0.00     0.127 C 
HETATM   16  O   UNL     1      23.154  49.971  47.013  1.00  0.00    -0.266 OA
ENDROOT
BRANCH   6  17
HETATM   17  O   UNL     1      17.503  47.882  49.063  1.00  0.00    -0.380 OA
BRANCH  17  18
HETATM   18  C   UNL     1      16.821  46.720  48.581  1.00  0.00     0.194 C 
BRANCH  18  19
HETATM   19  C   UNL     1      17.725  45.972  47.605  1.00  0.00     0.193 C 
BRANCH  19  20
HETATM   20  O   UNL     1      18.381  44.905  48.289  1.00  0.00    -0.394 OA
HETATM   21  C   UNL     1      19.782  45.116  48.374  1.00  0.00     0.201 C 
ENDBRANCH  19  20
ENDBRANCH  18  19
ENDBRANCH  17  18
ENDBRANCH   6  17
BRANCH   7  22
HETATM   22  N   UNL     1      15.632  49.962  46.693  1.00  0.00    -0.350 N 
HETATM   23  C   UNL     1      14.627  49.251  46.085  1.00  0.00     0.221 C 
HETATM   24  O   UNL     1      14.216  48.177  46.513  1.00  0.00    -0.273 OA
HETATM   25  H   UNL     1      15.830  50.896  46.361  1.00  0.00     0.163 HD
BRANCH  23  26
HETATM   26  C   UNL     1      14.001  49.913  44.863  1.00  0.00     0.070 C 
HETATM   27  C   UNL     1      14.150  51.431  44.953  1.00  0.00     0.019 C 
HETATM   28  C   UNL     1      14.571  49.373  43.555  1.00  0.00     0.019 C 
ENDBRANCH  23  26
ENDBRANCH   7  22
BRANCH   1  29
HETATM   29  C   UNL     1      23.530  48.622  48.880  1.00  0.00     0.154 A 
HETATM   30  N   UNL     1      24.473  49.254  49.600  1.00  0.00    -0.123 NA
HETATM   31  O   UNL     1      25.068  48.291  50.391  1.00  0.00    -0.217 OA
HETATM   32  C   UNL     1      24.455  47.094  50.195  1.00  0.00     0.084 A 
HETATM   33  C   UNL     1      23.458  47.254  49.266  1.00  0.00     0.075 A 
BRANCH  32  34
HETATM   34  C   UNL     1      24.965  45.928  50.971  1.00  0.00     0.037 C 
HETATM   35  C   UNL     1      25.531  46.354  52.325  1.00  0.00     0.016 C 
HETATM   36  C   UNL     1      26.011  45.159  50.165  1.00  0.00     0.016 C 
ENDBRANCH  32  34
ENDBRANCH   1  29
TORSDOF 8
ENDMDL
MODEL 4
REMARK VINA RESULT:      -7.6     11.004     14.311
REMARK  8 active torsions:
REMARK  status: ('A' for Active; 'I' for Inactive)
REMARK    1  A    between atoms: C_2  and  C_3 
REMARK    2  A    between atoms: C_6  and  C_7 
REMARK       I    between atoms: C_7  and  N_8 
REMARK    3  A    between atoms: C_12  and  O_13 
REMARK    4  A    between atoms: O_13  and  C_14 
REMARK    5  A    between atoms: C_14  and  C_15 
REMARK    6  A    between atoms: C_15  and  O_16 
REMARK    7  A    between atoms: C_18  and  N_19 
REMARK       I    between atoms: N_19  and  C_20 
REMARK    8  A    between atoms: C_20  and  C_21 
ROOT
HETATM    1  C   UNL     1      31.965  49.907  42.321  1.00  0.00     0.274 C 
HETATM    2  N   UNL     1      30.940  49.855  41.363  1.00  0.00    -0.347 N 
HETATM    3  C   UNL     1      31.079  50.187  39.945  1.00  0.00     0.127 C 
HETATM    4  C   UNL     1      30.592  49.030  39.077  1.00  0.00     0.037 C 
HETATM    5  C   UNL     1      29.150  48.594  39.419  1.00  0.00     0.019 C 
HETATM    6  C   UNL     1      28.046  49.636  38.976  1.00  0.00     0.162 C 
HETATM    7  C   UNL     1      26.899  48.832  38.278  1.00  0.00     0.148 C 
HETATM    8  C   UNL     1      27.547  47.515  37.968  1.00  0.00    -0.026 A 
HETATM    9  C   UNL     1      28.769  47.360  38.622  1.00  0.00    -0.038 A 
HETATM   10  C   UNL     1      27.022  46.500  37.175  1.00  0.00     0.010 A 
HETATM   11  C   UNL     1      27.735  45.308  37.048  1.00  0.00     0.001 A 
HETATM   12  C   UNL     1      28.952  45.140  37.717  1.00  0.00     0.001 A 
HETATM   13  C   UNL     1      29.474  46.166  38.508  1.00  0.00     0.009 A 
HETATM   14  C   UNL     1      29.060  48.297  40.934  1.00  0.00     0.037 C 
HETATM   15  C   UNL     1      29.600  49.452  41.781  1.00  0.00     0.127 C 
HETATM   16  O   UNL     1      31.817  49.392  43.432  1.00  0.00    -0.266 OA
ENDROOT
BRANCH   6  17
HETATM   17  O   UNL     1      28.616  50.602  38.066  1.00  0.00    -0.380 OA
BRANCH  17  18
HETATM   18  C   UNL     1      28.359  51.954  38.454  1.00  0.00     0.194 C 
BRANCH  18  19
HETATM   19  C   UNL     1      27.871  51.981  39.899  1.00  0.00     0.193 C 
BRANCH  19  20
HETATM   20  O   UNL     1      28.763  52.770  40.686  1.00  0.00    -0.394 OA
HETATM   21  C   UNL     1      29.493  53.691  39.888  1.00  0.00     0.201 C 
ENDBRANCH  19  20
ENDBRANCH  18  19
ENDBRANCH  17  18
ENDBRANCH   6  17
BRANCH   7  22
HETATM   22  N   UNL     1      25.714  48.611  39.093  1.00  0.00    -0.350 N 
HETATM   23  C   UNL     1      24.458  48.585  38.541  1.00  0.00     0.221 C 
HETATM   24  O   UNL     1      24.224  48.969  37.399  1.00  0.00    -0.273 OA
HETATM   25  H   UNL     1      25.856  48.161  39.988  1.00  0.00     0.163 HD
BRANCH  23  26
HETATM   26  C   UNL     1      23.365  47.987  39.419  1.00  0.00     0.070 C 
HETATM   27  C   UNL     1      23.989  47.203  40.572  1.00  0.00     0.019 C 
HETATM   28  C   UNL     1      22.387  49.042  39.927  1.00  0.00     0.019 C 
ENDBRANCH  23  26
ENDBRANCH   7  22
BRANCH   1  29
HETATM   29  C   UNL     1      33.247  50.553  41.998  1.00  0.00     0.154 A 
HETATM   30  N   UNL     1      33.518  51.848  42.235  1.00  0.00    -0.123 NA
HETATM   31  O   UNL     1      34.812  52.060  41.804  1.00  0.00    -0.217 OA
HETATM   32  C   UNL     1      35.344  50.891  41.359  1.00  0.00     0.084 A 
HETATM   33  C   UNL     1      34.402  49.900  41.484  1.00  0.00     0.075 A 
BRANCH  32  34
HETATM   34  C   UNL     1      36.745  50.925  40.852  1.00  0.00     0.037 C 
HETATM   35  C   UNL     1      37.519  52.120  41.409  1.00  0.00     0.016 C 
HETATM   36  C   UNL     1      36.767  50.931  39.324  1.00  0.00     0.016 C 
ENDBRANCH  32  34
ENDBRANCH   1  29
TORSDOF 8
ENDMDL
MODEL 5
REMARK VINA RESULT:      -7.5      3.372     10.669
REMARK  8 active torsions:
REMARK  status: ('A' for Active; 'I' for Inactive)
REMARK    1  A    between atoms: C_2  and  C_3 
REMARK    2  A    between atoms: C_6  and  C_7 
REMARK       I    between atoms: C_7  and  N_8 
REMARK    3  A    between atoms: C_12  and  O_13 
REMARK    4  A    between atoms: O_13  and  C_14 
REMARK    5  A    between atoms: C_14  and  C_15 
REMARK    6  A    between atoms: C_15  and  O_16 
REMARK    7  A    between atoms: C_18  and  N_19 
REMARK       I    between atoms: N_19  and  C_20 
REMARK    8  A    between atoms: C_20  and  C_21 
ROOT
HETATM    1  C   UNL     1      24.322  48.678  49.012  1.00  0.00     0.274 C 
HETATM    2  N   UNL     1      23.010  48.690  48.514  1.00  0.00    -0.347 N 
HETATM    3  C   UNL     1      21.899  47.879  49.013  1.00  0.00     0.127 C 
HETATM    4  C   UNL     1      20.711  48.768  49.373  1.00  0.00     0.037 C 
HETATM    5  C   UNL     1      20.270  49.676  48.204  1.00  0.00     0.019 C 
HETATM    6  C   UNL     1      19.567  48.897  47.020  1.00  0.00     0.162 C 
HETATM    7  C   UNL     1      18.289  49.708  46.622  1.00  0.00     0.148 C 
HETATM    8  C   UNL     1      18.078  50.610  47.802  1.00  0.00    -0.026 A 
HETATM    9  C   UNL     1      19.178  50.628  48.658  1.00  0.00    -0.038 A 
HETATM   10  C   UNL     1      16.963  51.406  48.047  1.00  0.00     0.010 A 
HETATM   11  C   UNL     1      16.963  52.239  49.166  1.00  0.00     0.001 A 
HETATM   12  C   UNL     1      18.073  52.275  50.017  1.00  0.00     0.001 A 
HETATM   13  C   UNL     1      19.186  51.468  49.767  1.00  0.00     0.009 A 
HETATM   14  C   UNL     1      21.493  50.474  47.698  1.00  0.00     0.037 C 
HETATM   15  C   UNL     1      22.687  49.566  47.391  1.00  0.00     0.127 C 
HETATM   16  O   UNL     1      25.128  49.553  48.690  1.00  0.00    -0.266 OA
ENDROOT
BRANCH   6  17
HETATM   17  O   UNL     1      19.211  47.566  47.449  1.00  0.00    -0.380 OA
BRANCH  17  18
HETATM   18  C   UNL     1      17.882  47.194  47.070  1.00  0.00     0.194 C 
BRANCH  18  19
HETATM   19  C   UNL     1      17.292  46.272  48.133  1.00  0.00     0.193 C 
BRANCH  19  20
HETATM   20  O   UNL     1      17.560  44.915  47.784  1.00  0.00    -0.394 OA
HETATM   21  C   UNL     1      17.582  44.727  46.376  1.00  0.00     0.201 C 
ENDBRANCH  19  20
ENDBRANCH  18  19
ENDBRANCH  17  18
ENDBRANCH   6  17
BRANCH   7  22
HETATM   22  N   UNL     1      18.417  50.509  45.414  1.00  0.00    -0.350 N 
HETATM   23  C   UNL     1      18.053  50.018  44.185  1.00  0.00     0.221 C 
HETATM   24  O   UNL     1      17.825  48.829  43.984  1.00  0.00    -0.273 OA
HETATM   25  H   UNL     1      18.463  51.512  45.536  1.00  0.00     0.163 HD
BRANCH  23  26
HETATM   26  C   UNL     1      17.886  51.058  43.083  1.00  0.00     0.070 C 
HETATM   27  C   UNL     1      17.460  52.396  43.685  1.00  0.00     0.019 C 
HETATM   28  C   UNL     1      19.142  51.205  42.231  1.00  0.00     0.019 C 
ENDBRANCH  23  26
ENDBRANCH   7  22
BRANCH   1  29
HETATM   29  C   UNL     1      24.744  47.631  49.956  1.00  0.00     0.154 A 
HETATM   30  N   UNL     1      24.785  47.792  51.290  1.00  0.00    -0.123 NA
HETATM   31  O   UNL     1      25.220  46.590  51.813  1.00  0.00    -0.217 OA
HETATM   32  C   UNL     1      25.388  45.688  50.811  1.00  0.00     0.084 A 
HETATM   33  C   UNL     1      25.077  46.289  49.617  1.00  0.00     0.075 A 
BRANCH  32  34
HETATM   34  C   UNL     1      25.856  44.324  51.188  1.00  0.00     0.037 C 
HETATM   35  C   UNL     1      25.637  44.042  52.674  1.00  0.00     0.016 C 
HETATM   36  C   UNL     1      27.326  44.133  50.812  1.00  0.00     0.016 C 
ENDBRANCH  32  34
ENDBRANCH   1  29
TORSDOF 8
ENDMDL
MODEL 6
REMARK VINA RESULT:      -7.4      2.940      5.876
REMARK  8 active torsions:
REMARK  status: ('A' for Active; 'I' for Inactive)
REMARK    1  A    between atoms: C_2  and  C_3 
REMARK    2  A    between atoms: C_6  and  C_7 
REMARK       I    between atoms: C_7  and  N_8 
REMARK    3  A    between atoms: C_12  and  O_13 
REMARK    4  A    between atoms: O_13  and  C_14 
REMARK    5  A    between atoms: C_14  and  C_15 
REMARK    6  A    between atoms: C_15  and  O_16 
REMARK    7  A    between atoms: C_18  and  N_19 
REMARK       I    between atoms: N_19  and  C_20 
REMARK    8  A    between atoms: C_20  and  C_21 
ROOT
HETATM    1  C   UNL     1      19.383  50.217  48.200  1.00  0.00     0.274 C 
HETATM    2  N   UNL     1      20.444  49.337  48.467  1.00  0.00    -0.347 N 
HETATM    3  C   UNL     1      21.092  48.459  47.492  1.00  0.00     0.127 C 
HETATM    4  C   UNL     1      22.600  48.694  47.484  1.00  0.00     0.037 C 
HETATM    5  C   UNL     1      23.233  48.551  48.886  1.00  0.00     0.019 C 
HETATM    6  C   UNL     1      23.280  47.062  49.416  1.00  0.00     0.162 C 
HETATM    7  C   UNL     1      24.710  46.822  50.006  1.00  0.00     0.148 C 
HETATM    8  C   UNL     1      25.510  47.951  49.426  1.00  0.00    -0.026 A 
HETATM    9  C   UNL     1      24.703  48.925  48.842  1.00  0.00    -0.038 A 
HETATM   10  C   UNL     1      26.893  48.098  49.479  1.00  0.00     0.010 A 
HETATM   11  C   UNL     1      27.468  49.250  48.943  1.00  0.00     0.001 A 
HETATM   12  C   UNL     1      26.661  50.240  48.372  1.00  0.00     0.001 A 
HETATM   13  C   UNL     1      25.274  50.082  48.319  1.00  0.00     0.009 A 
HETATM   14  C   UNL     1      22.480  49.472  49.874  1.00  0.00     0.037 C 
HETATM   15  C   UNL     1      20.966  49.252  49.828  1.00  0.00     0.127 C 
HETATM   16  O   UNL     1      19.057  51.080  49.018  1.00  0.00    -0.266 OA
ENDROOT
BRANCH   6  17
HETATM   17  O   UNL     1      23.016  46.144  48.334  1.00  0.00    -0.380 OA
BRANCH  17  18
HETATM   18  C   UNL     1      23.318  44.786  48.667  1.00  0.00     0.194 C 
BRANCH  18  19
HETATM   19  C   UNL     1      22.193  44.215  49.525  1.00  0.00     0.193 C 
BRANCH  19  20
HETATM   20  O   UNL     1      22.726  43.236  50.416  1.00  0.00    -0.394 OA
HETATM   21  C   UNL     1      23.724  42.442  49.790  1.00  0.00     0.201 C 
ENDBRANCH  19  20
ENDBRANCH  18  19
ENDBRANCH  17  18
ENDBRANCH   6  17
BRANCH   7  22
HETATM   22  N   UNL     1      24.795  46.861  51.458  1.00  0.00    -0.350 N 
HETATM   23  C   UNL     1      25.325  45.816  52.174  1.00  0.00     0.221 C 
HETATM   24  O   UNL     1      25.541  44.713  51.682  1.00  0.00    -0.273 OA
HETATM   25  H   UNL     1      24.765  47.775  51.891  1.00  0.00     0.163 HD
BRANCH  23  26
HETATM   26  C   UNL     1      25.693  46.130  53.620  1.00  0.00     0.070 C 
HETATM   27  C   UNL     1      26.966  45.383  54.012  1.00  0.00     0.019 C 
HETATM   28  C   UNL     1      25.824  47.628  53.873  1.00  0.00     0.019 C 
ENDBRANCH  23  26
ENDBRANCH   7  22
BRANCH   1  29
HETATM   29  C   UNL     1      18.664  50.140  46.918  1.00  0.00     0.154 A 
HETATM   30  N   UNL     1      17.680  49.262  46.659  1.00  0.00    -0.123 NA
HETATM   31  O   UNL     1      17.262  49.515  45.368  1.00  0.00    -0.217 OA
HETATM   32  C   UNL     1      17.949  50.574  44.864  1.00  0.00     0.084 A 
HETATM   33  C   UNL     1      18.832  51.022  45.814  1.00  0.00     0.075 A 
BRANCH  32  34
HETATM   34  C   UNL     1      17.630  50.998  43.471  1.00  0.00     0.037 C 
HETATM   35  C   UNL     1      18.821  50.798  42.533  1.00  0.00     0.016 C 
HETATM   36  C   UNL     1      17.158  52.452  43.443  1.00  0.00     0.016 C 
ENDBRANCH  32  34
ENDBRANCH   1  29
TORSDOF 8
ENDMDL
MODEL 7
REMARK VINA RESULT:      -7.2      6.382     11.740
REMARK  8 active torsions:
REMARK  status: ('A' for Active; 'I' for Inactive)
REMARK    1  A    between atoms: C_2  and  C_3 
REMARK    2  A    between atoms: C_6  and  C_7 
REMARK       I    between atoms: C_7  and  N_8 
REMARK    3  A    between atoms: C_12  and  O_13 
REMARK    4  A    between atoms: O_13  and  C_14 
REMARK    5  A    between atoms: C_14  and  C_15 
REMARK    6  A    between atoms: C_15  and  O_16 
REMARK    7  A    between atoms: C_18  and  N_19 
REMARK       I    between atoms: N_19  and  C_20 
REMARK    8  A    between atoms: C_20  and  C_21 
ROOT
HETATM    1  C   UNL     1      18.461  45.805  47.833  1.00  0.00     0.274 C 
HETATM    2  N   UNL     1      18.397  47.207  47.830  1.00  0.00    -0.347 N 
HETATM    3  C   UNL     1      19.531  48.113  47.642  1.00  0.00     0.127 C 
HETATM    4  C   UNL     1      19.249  49.088  46.502  1.00  0.00     0.037 C 
HETATM    5  C   UNL     1      17.928  49.865  46.695  1.00  0.00     0.019 C 
HETATM    6  C   UNL     1      17.982  50.942  47.851  1.00  0.00     0.162 C 
HETATM    7  C   UNL     1      17.337  52.255  47.297  1.00  0.00     0.148 C 
HETATM    8  C   UNL     1      17.346  52.038  45.812  1.00  0.00    -0.026 A 
HETATM    9  C   UNL     1      17.633  50.717  45.473  1.00  0.00    -0.038 A 
HETATM   10  C   UNL     1      17.058  52.985  44.835  1.00  0.00     0.010 A 
HETATM   11  C   UNL     1      17.049  52.591  43.497  1.00  0.00     0.001 A 
HETATM   12  C   UNL     1      17.318  51.262  43.152  1.00  0.00     0.001 A 
HETATM   13  C   UNL     1      17.611  50.318  44.140  1.00  0.00     0.009 A 
HETATM   14  C   UNL     1      16.780  48.855  46.927  1.00  0.00     0.037 C 
HETATM   15  C   UNL     1      17.107  47.857  48.040  1.00  0.00     0.127 C 
HETATM   16  O   UNL     1      17.434  45.125  47.765  1.00  0.00    -0.266 OA
ENDROOT
BRANCH   6  17
HETATM   17  O   UNL     1      19.352  51.175  48.244  1.00  0.00    -0.380 OA
BRANCH  17  18
HETATM   18  C   UNL     1      19.521  51.249  49.662  1.00  0.00     0.194 C 
BRANCH  18  19
HETATM   19  C   UNL     1      18.447  50.407  50.344  1.00  0.00     0.193 C 
BRANCH  19  20
HETATM   20  O   UNL     1      19.045  49.609  51.363  1.00  0.00    -0.394 OA
HETATM   21  C   UNL     1      18.446  48.324  51.445  1.00  0.00     0.201 C 
ENDBRANCH  19  20
ENDBRANCH  18  19
ENDBRANCH  17  18
ENDBRANCH   6  17
BRANCH   7  22
HETATM   22  N   UNL     1      15.975  52.511  47.742  1.00  0.00    -0.350 N 
HETATM   23  C   UNL     1      15.716  53.124  48.943  1.00  0.00     0.221 C 
HETATM   24  O   UNL     1      16.571  53.281  49.809  1.00  0.00    -0.273 OA
HETATM   25  H   UNL     1      15.260  52.532  47.027  1.00  0.00     0.163 HD
BRANCH  23  26
HETATM   26  C   UNL     1      14.299  53.659  49.116  1.00  0.00     0.070 C 
HETATM   27  C   UNL     1      13.839  53.467  50.560  1.00  0.00     0.019 C 
HETATM   28  C   UNL     1      14.173  55.114  48.679  1.00  0.00     0.019 C 
ENDBRANCH  23  26
ENDBRANCH   7  22
BRANCH   1  29
HETATM   29  C   UNL     1      19.765  45.124  47.888  1.00  0.00     0.154 A 
HETATM   30  N   UNL     1      20.371  44.748  49.027  1.00  0.00    -0.123 NA
HETATM   31  O   UNL     1      21.555  44.142  48.656  1.00  0.00    -0.217 OA
HETATM   32  C   UNL     1      21.643  44.100  47.301  1.00  0.00     0.084 A 
HETATM   33  C   UNL     1      20.523  44.687  46.766  1.00  0.00     0.075 A 
BRANCH  32  34
HETATM   34  C   UNL     1      22.861  43.475  46.712  1.00  0.00     0.037 C 
HETATM   35  C   UNL     1      23.148  44.008  45.309  1.00  0.00     0.016 C 
HETATM   36  C   UNL     1      22.733  41.951  46.696  1.00  0.00     0.016 C 
ENDBRANCH  32  34
ENDBRANCH   1  29
TORSDOF 8
ENDMDL
MODEL 8
REMARK VINA RESULT:      -7.0      4.377      8.529
REMARK  8 active torsions:
REMARK  status: ('A' for Active; 'I' for Inactive)
REMARK    1  A    between atoms: C_2  and  C_3 
REMARK    2  A    between atoms: C_6  and  C_7 
REMARK       I    between atoms: C_7  and  N_8 
REMARK    3  A    between atoms: C_12  and  O_13 
REMARK    4  A    between atoms: O_13  and  C_14 
REMARK    5  A    between atoms: C_14  and  C_15 
REMARK    6  A    between atoms: C_15  and  O_16 
REMARK    7  A    between atoms: C_18  and  N_19 
REMARK       I    between atoms: N_19  and  C_20 
REMARK    8  A    between atoms: C_20  and  C_21 
ROOT
HETATM    1  C   UNL     1      28.142  41.359  52.876  1.00  0.00     0.274 C 
HETATM    2  N   UNL     1      27.262  41.534  51.797  1.00  0.00    -0.347 N 
HETATM    3  C   UNL     1      27.068  42.775  51.045  1.00  0.00     0.127 C 
HETATM    4  C   UNL     1      27.272  42.529  49.552  1.00  0.00     0.037 C 
HETATM    5  C   UNL     1      26.380  41.391  49.008  1.00  0.00     0.019 C 
HETATM    6  C   UNL     1      24.845  41.765  48.928  1.00  0.00     0.162 C 
HETATM    7  C   UNL     1      24.322  41.291  47.532  1.00  0.00     0.148 C 
HETATM    8  C   UNL     1      25.584  41.087  46.747  1.00  0.00    -0.026 A 
HETATM    9  C   UNL     1      26.718  41.103  47.557  1.00  0.00    -0.038 A 
HETATM   10  C   UNL     1      25.680  40.850  45.379  1.00  0.00     0.010 A 
HETATM   11  C   UNL     1      26.938  40.615  44.823  1.00  0.00     0.001 A 
HETATM   12  C   UNL     1      28.077  40.611  45.635  1.00  0.00     0.001 A 
HETATM   13  C   UNL     1      27.972  40.855  47.007  1.00  0.00     0.009 A 
HETATM   14  C   UNL     1      26.601  40.125  49.867  1.00  0.00     0.037 C 
HETATM   15  C   UNL     1      26.441  40.407  51.363  1.00  0.00     0.127 C 
HETATM   16  O   UNL     1      28.410  40.231  53.296  1.00  0.00    -0.266 OA
ENDROOT
BRANCH   6  17
HETATM   17  O   UNL     1      24.676  43.191  49.076  1.00  0.00    -0.380 OA
BRANCH  17  18
HETATM   18  C   UNL     1      23.580  43.538  49.927  1.00  0.00     0.194 C 
BRANCH  18  19
HETATM   19  C   UNL     1      23.913  44.822  50.682  1.00  0.00     0.193 C 
BRANCH  19  20
HETATM   20  O   UNL     1      24.298  44.501  52.017  1.00  0.00    -0.394 OA
HETATM   21  C   UNL     1      25.186  45.469  52.556  1.00  0.00     0.201 C 
ENDBRANCH  19  20
ENDBRANCH  18  19
ENDBRANCH  17  18
ENDBRANCH   6  17
BRANCH   7  22
HETATM   22  N   UNL     1      23.553  40.055  47.546  1.00  0.00    -0.350 N 
HETATM   23  C   UNL     1      22.214  40.039  47.245  1.00  0.00     0.221 C 
HETATM   24  O   UNL     1      21.535  41.059  47.176  1.00  0.00    -0.273 OA
HETATM   25  H   UNL     1      24.076  39.194  47.458  1.00  0.00     0.163 HD
BRANCH  23  26
HETATM   26  C   UNL     1      21.625  38.668  46.936  1.00  0.00     0.070 C 
HETATM   27  C   UNL     1      20.136  38.648  47.276  1.00  0.00     0.019 C 
HETATM   28  C   UNL     1      21.875  38.241  45.494  1.00  0.00     0.019 C 
ENDBRANCH  23  26
ENDBRANCH   7  22
BRANCH   1  29
HETATM   29  C   UNL     1      28.784  42.526  53.504  1.00  0.00     0.154 A 
HETATM   30  N   UNL     1      30.108  42.752  53.493  1.00  0.00    -0.123 NA
HETATM   31  O   UNL     1      30.305  43.939  54.170  1.00  0.00    -0.217 OA
HETATM   32  C   UNL     1      29.105  44.459  54.542  1.00  0.00     0.084 A 
HETATM   33  C   UNL     1      28.108  43.614  54.123  1.00  0.00     0.075 A 
BRANCH  32  34
HETATM   34  C   UNL     1      29.119  45.749  55.289  1.00  0.00     0.037 C 
HETATM   35  C   UNL     1      29.705  45.584  56.691  1.00  0.00     0.016 C 
HETATM   36  C   UNL     1      27.714  46.348  55.357  1.00  0.00     0.016 C 
ENDBRANCH  32  34
ENDBRANCH   1  29
TORSDOF 8
ENDMDL
MODEL 9
REMARK VINA RESULT:      -6.8     18.810     22.592
REMARK  8 active torsions:
REMARK  status: ('A' for Active; 'I' for Inactive)
REMARK    1  A    between atoms: C_2  and  C_3 
REMARK    2  A    between atoms: C_6  and  C_7 
REMARK       I    between atoms: C_7  and  N_8 
REMARK    3  A    between atoms: C_12  and  O_13 
REMARK    4  A    between atoms: O_13  and  C_14 
REMARK    5  A    between atoms: C_14  and  C_15 
REMARK    6  A    between atoms: C_15  and  O_16 
REMARK    7  A    between atoms: C_18  and  N_19 
REMARK       I    between atoms: N_19  and  C_20 
REMARK    8  A    between atoms: C_20  and  C_21 
ROOT
HETATM    1  C   UNL     1      40.081  40.013  63.817  1.00  0.00     0.274 C 
HETATM    2  N   UNL     1      40.110  41.235  64.507  1.00  0.00    -0.347 N 
HETATM    3  C   UNL     1      40.639  41.442  65.855  1.00  0.00     0.127 C 
HETATM    4  C   UNL     1      41.683  42.556  65.852  1.00  0.00     0.037 C 
HETATM    5  C   UNL     1      41.149  43.872  65.244  1.00  0.00     0.019 C 
HETATM    6  C   UNL     1      40.090  44.613  66.154  1.00  0.00     0.162 C 
HETATM    7  C   UNL     1      40.480  46.128  66.185  1.00  0.00     0.148 C 
HETATM    8  C   UNL     1      41.899  46.123  65.698  1.00  0.00    -0.026 A 
HETATM    9  C   UNL     1      42.263  44.898  65.144  1.00  0.00    -0.038 A 
HETATM   10  C   UNL     1      42.784  47.197  65.716  1.00  0.00     0.010 A 
HETATM   11  C   UNL     1      44.052  47.033  65.157  1.00  0.00     0.001 A 
HETATM   12  C   UNL     1      44.416  45.811  64.583  1.00  0.00     0.001 A 
HETATM   13  C   UNL     1      43.523  44.737  64.573  1.00  0.00     0.009 A 
HETATM   14  C   UNL     1      40.570  43.578  63.840  1.00  0.00     0.037 C 
HETATM   15  C   UNL     1      39.564  42.425  63.861  1.00  0.00     0.127 C 
HETATM   16  O   UNL     1      39.834  39.975  62.610  1.00  0.00    -0.266 OA
ENDROOT
BRANCH   6  17
HETATM   17  O   UNL     1      40.108  44.056  67.486  1.00  0.00    -0.380 OA
BRANCH  17  18
HETATM   18  C   UNL     1      38.799  43.832  68.016  1.00  0.00     0.194 C 
BRANCH  18  19
HETATM   19  C   UNL     1      37.782  43.862  66.879  1.00  0.00     0.193 C 
BRANCH  19  20
HETATM   20  O   UNL     1      36.479  44.093  67.413  1.00  0.00    -0.394 OA
HETATM   21  C   UNL     1      35.502  44.204  66.388  1.00  0.00     0.201 C 
ENDBRANCH  19  20
ENDBRANCH  18  19
ENDBRANCH  17  18
ENDBRANCH   6  17
BRANCH   7  22
HETATM   22  N   UNL     1      39.676  46.992  65.334  1.00  0.00    -0.350 N 
HETATM   23  C   UNL     1      38.605  47.693  65.830  1.00  0.00     0.221 C 
HETATM   24  O   UNL     1      38.117  47.471  66.933  1.00  0.00    -0.273 OA
HETATM   25  H   UNL     1      40.106  47.313  64.477  1.00  0.00     0.163 HD
BRANCH  23  26
HETATM   26  C   UNL     1      38.091  48.822  64.943  1.00  0.00     0.070 C 
HETATM   27  C   UNL     1      36.866  48.356  64.159  1.00  0.00     0.019 C 
HETATM   28  C   UNL     1      37.796  50.092  65.735  1.00  0.00     0.019 C 
ENDBRANCH  23  26
ENDBRANCH   7  22
BRANCH   1  29
HETATM   29  C   UNL     1      40.376  38.757  64.526  1.00  0.00     0.154 A 
HETATM   30  N   UNL     1      41.417  37.958  64.237  1.00  0.00    -0.123 NA
HETATM   31  O   UNL     1      41.352  36.899  65.122  1.00  0.00    -0.217 OA
HETATM   32  C   UNL     1      40.311  37.081  65.977  1.00  0.00     0.084 A 
HETATM   33  C   UNL     1      39.676  38.256  65.658  1.00  0.00     0.075 A 
BRANCH  32  34
HETATM   34  C   UNL     1      40.083  36.033  67.012  1.00  0.00     0.037 C 
HETATM   35  C   UNL     1      41.358  35.243  67.307  1.00  0.00     0.016 C 
HETATM   36  C   UNL     1      38.951  35.095  66.590  1.00  0.00     0.016 C 
ENDBRANCH  32  34
ENDBRANCH   1  29
TORSDOF 8
ENDMDL
MODEL 10
REMARK VINA RESULT:      -6.7      5.829     12.191
REMARK  8 active torsions:
REMARK  status: ('A' for Active; 'I' for Inactive)
REMARK    1  A    between atoms: C_2  and  C_3 
REMARK    2  A    between atoms: C_6  and  C_7 
REMARK       I    between atoms: C_7  and  N_8 
REMARK    3  A    between atoms: C_12  and  O_13 
REMARK    4  A    between atoms: O_13  and  C_14 
REMARK    5  A    between atoms: C_14  and  C_15 
REMARK    6  A    between atoms: C_15  and  O_16 
REMARK    7  A    between atoms: C_18  and  N_19 
REMARK       I    between atoms: N_19  and  C_20 
REMARK    8  A    between atoms: C_20  and  C_21 
ROOT
HETATM    1  C   UNL     1      18.163  46.056  47.860  1.00  0.00     0.274 C 
HETATM    2  N   UNL     1      17.948  47.442  47.923  1.00  0.00    -0.347 N 
HETATM    3  C   UNL     1      18.701  48.458  47.187  1.00  0.00     0.127 C 
HETATM    4  C   UNL     1      17.752  49.350  46.390  1.00  0.00     0.037 C 
HETATM    5  C   UNL     1      16.653  49.985  47.270  1.00  0.00     0.019 C 
HETATM    6  C   UNL     1      17.186  51.107  48.248  1.00  0.00     0.162 C 
HETATM    7  C   UNL     1      16.201  52.320  48.149  1.00  0.00     0.148 C 
HETATM    8  C   UNL     1      15.451  52.045  46.879  1.00  0.00    -0.026 A 
HETATM    9  C   UNL     1      15.664  50.750  46.408  1.00  0.00    -0.038 A 
HETATM   10  C   UNL     1      14.586  52.915  46.223  1.00  0.00     0.010 A 
HETATM   11  C   UNL     1      13.918  52.469  45.083  1.00  0.00     0.001 A 
HETATM   12  C   UNL     1      14.113  51.164  44.618  1.00  0.00     0.001 A 
HETATM   13  C   UNL     1      14.988  50.298  45.279  1.00  0.00     0.009 A 
HETATM   14  C   UNL     1      15.923  48.867  48.049  1.00  0.00     0.037 C 
HETATM   15  C   UNL     1      16.898  47.956  48.799  1.00  0.00     0.127 C 
HETATM   16  O   UNL     1      17.339  45.267  48.328  1.00  0.00    -0.266 OA
ENDROOT
BRANCH   6  17
HETATM   17  O   UNL     1      18.520  51.504  47.863  1.00  0.00    -0.380 OA
BRANCH  17  18
HETATM   18  C   UNL     1      19.328  51.897  48.976  1.00  0.00     0.194 C 
BRANCH  18  19
HETATM   19  C   UNL     1      19.137  50.901  50.116  1.00  0.00     0.193 C 
BRANCH  19  20
HETATM   20  O   UNL     1      20.258  50.020  50.169  1.00  0.00    -0.394 OA
HETATM   21  C   UNL     1      21.436  50.637  49.670  1.00  0.00     0.201 C 
ENDBRANCH  19  20
ENDBRANCH  18  19
ENDBRANCH  17  18
ENDBRANCH   6  17
BRANCH   7  22
HETATM   22  N   UNL     1      15.260  52.444  49.252  1.00  0.00    -0.350 N 
HETATM   23  C   UNL     1      15.204  53.578  50.023  1.00  0.00     0.221 C 
HETATM   24  O   UNL     1      16.072  54.446  49.996  1.00  0.00    -0.273 OA
HETATM   25  H   UNL     1      14.451  51.837  49.229  1.00  0.00     0.163 HD
BRANCH  23  26
HETATM   26  C   UNL     1      13.955  53.728  50.883  1.00  0.00     0.070 C 
HETATM   27  C   UNL     1      14.192  54.766  51.978  1.00  0.00     0.019 C 
HETATM   28  C   UNL     1      12.719  54.063  50.055  1.00  0.00     0.019 C 
ENDBRANCH  23  26
ENDBRANCH   7  22
BRANCH   1  29
HETATM   29  C   UNL     1      19.367  45.524  47.201  1.00  0.00     0.154 A 
HETATM   30  N   UNL     1      19.444  45.239  45.891  1.00  0.00    -0.123 NA
HETATM   31  O   UNL     1      20.726  44.777  45.667  1.00  0.00    -0.217 OA
HETATM   32  C   UNL     1      21.441  44.835  46.822  1.00  0.00     0.084 A 
HETATM   33  C   UNL     1      20.633  45.324  47.819  1.00  0.00     0.075 A 
BRANCH  32  34
HETATM   34  C   UNL     1      22.858  44.375  46.775  1.00  0.00     0.037 C 
HETATM   35  C   UNL     1      22.968  42.934  46.279  1.00  0.00     0.016 C 
HETATM   36  C   UNL     1      23.522  44.529  48.143  1.00  0.00     0.016 C 
ENDBRANCH  32  34
ENDBRANCH   1  29
TORSDOF 8
ENDMDL
