MODEL 1
REMARK VINA RESULT:     -10.5      0.000      0.000
REMARK  6 active torsions:
REMARK  status: ('A' for Active; 'I' for Inactive)
REMARK    1  A    between atoms: C_2  and  O_3 
REMARK    2  A    between atoms: O_3  and  C_4 
REMARK    3  A    between atoms: C_5  and  C_6 
REMARK    4  A    between atoms: N_7  and  N_8 
REMARK       I    between atoms: N_8  and  C_9 
REMARK    5  A    between atoms: C_9  and  C_10 
REMARK    6  A    between atoms: C_14  and  C_15 
ROOT
HETATM    1  C   UNL     1      24.834  47.136  50.391  1.00  0.00     0.121 A 
HETATM    2  N   UNL     1      24.095  46.029  50.705  1.00  0.00    -0.272 N 
HETATM    3  H   UNL     1      23.112  45.876  50.496  1.00  0.00     0.189 HD
HETATM    4  N   UNL     1      24.769  45.088  51.383  1.00  0.00    -0.174 NA
HETATM    5  C   UNL     1      26.001  45.600  51.534  1.00  0.00     0.090 A 
HETATM    6  C   UNL     1      26.099  46.854  50.871  1.00  0.00     0.071 A 
ENDROOT
BRANCH   1   7
HETATM    7  C   UNL     1      24.244  48.275  49.724  1.00  0.00     0.289 C 
HETATM    8  N   UNL     1      22.857  48.239  49.679  1.00  0.00    -0.242 N 
HETATM    9  H   UNL     1      22.387  47.467  50.134  1.00  0.00     0.192 HD
HETATM   10  O   UNL     1      24.960  49.143  49.241  1.00  0.00    -0.264 OA
BRANCH   8  11
HETATM   11  N   UNL     1      21.985  49.031  48.981  1.00  0.00    -0.183 NA
HETATM   12  C   UNL     1      20.804  49.303  49.437  1.00  0.00     0.153 C 
BRANCH  12  13
HETATM   13  C   UNL     1      19.896  50.214  48.692  1.00  0.00     0.016 A 
HETATM   14  C   UNL     1      18.989  49.702  47.748  1.00  0.00     0.080 A 
HETATM   15  C   UNL     1      18.129  50.588  47.089  1.00  0.00     0.037 A 
HETATM   16  C   UNL     1      18.176  51.961  47.360  1.00  0.00     0.003 A 
HETATM   17  C   UNL     1      19.081  52.461  48.290  1.00  0.00     0.001 A 
HETATM   18  C   UNL     1      19.940  51.591  48.957  1.00  0.00     0.016 A 
BRANCH  14  19
HETATM   19  O   UNL     1      19.005  48.347  47.543  1.00  0.00    -0.351 OA
BRANCH  19  20
HETATM   20  C   UNL     1      17.757  47.656  47.535  1.00  0.00     0.171 C 
HETATM   21  C   UNL     1      17.306  47.493  48.975  1.00  0.00     0.034 C 
ENDBRANCH  19  20
ENDBRANCH  14  19
ENDBRANCH  12  13
ENDBRANCH   8  11
ENDBRANCH   1   7
BRANCH   5  22
HETATM   22  C   UNL     1      27.049  44.889  52.266  1.00  0.00     0.005 A 
HETATM   23  C   UNL     1      27.552  45.358  53.518  1.00  0.00    -0.012 A 
HETATM   24  C   UNL     1      28.580  44.626  54.059  1.00  0.00    -0.012 A 
HETATM   25  C   UNL     1      27.131  46.463  54.305  1.00  0.00     0.013 A 
HETATM   26  C   UNL     1      29.208  44.926  55.254  1.00  0.00    -0.046 A 
HETATM   27  C   UNL     1      29.111  43.484  53.489  1.00  0.00    -0.046 A 
HETATM   28  C   UNL     1      28.828  46.018  56.020  1.00  0.00     0.008 A 
HETATM   29  C   UNL     1      30.273  43.927  55.546  1.00  0.00     0.044 A 
HETATM   30  C   UNL     1      27.765  46.783  55.523  1.00  0.00     0.001 A 
HETATM   31  C   UNL     1      30.198  42.933  54.347  1.00  0.00     0.044 A 
HETATM   32  C   UNL     1      28.625  42.981  52.293  1.00  0.00     0.009 A 
HETATM   33  C   UNL     1      27.585  43.707  51.691  1.00  0.00     0.015 A 
ENDBRANCH   5  22
TORSDOF 6
ENDMDL
MODEL 2
REMARK VINA RESULT:     -10.5      0.987      2.168
REMARK  6 active torsions:
REMARK  status: ('A' for Active; 'I' for Inactive)
REMARK    1  A    between atoms: C_2  and  O_3 
REMARK    2  A    between atoms: O_3  and  C_4 
REMARK    3  A    between atoms: C_5  and  C_6 
REMARK    4  A    between atoms: N_7  and  N_8 
REMARK       I    between atoms: N_8  and  C_9 
REMARK    5  A    between atoms: C_9  and  C_10 
REMARK    6  A    between atoms: C_14  and  C_15 
ROOT
HETATM    1  C   UNL     1      24.586  46.354  50.733  1.00  0.00     0.121 A 
HETATM    2  N   UNL     1      24.167  45.189  51.315  1.00  0.00    -0.272 N 
HETATM    3  H   UNL     1      23.337  44.655  51.074  1.00  0.00     0.189 HD
HETATM    4  N   UNL     1      24.947  44.761  52.319  1.00  0.00    -0.174 NA
HETATM    5  C   UNL     1      25.913  45.688  52.413  1.00  0.00     0.090 A 
HETATM    6  C   UNL     1      25.758  46.668  51.395  1.00  0.00     0.071 A 
ENDROOT
BRANCH   1   7
HETATM    7  C   UNL     1      23.823  46.993  49.685  1.00  0.00     0.289 C 
HETATM    8  N   UNL     1      23.504  48.317  49.953  1.00  0.00    -0.242 N 
HETATM    9  H   UNL     1      23.853  48.726  50.811  1.00  0.00     0.192 HD
HETATM   10  O   UNL     1      23.496  46.359  48.689  1.00  0.00    -0.264 OA
BRANCH   8  11
HETATM   11  N   UNL     1      22.652  49.162  49.293  1.00  0.00    -0.183 NA
HETATM   12  C   UNL     1      21.371  48.973  49.298  1.00  0.00     0.153 C 
BRANCH  12  13
HETATM   13  C   UNL     1      20.461  49.936  48.626  1.00  0.00     0.016 A 
HETATM   14  C   UNL     1      19.669  49.529  47.538  1.00  0.00     0.080 A 
HETATM   15  C   UNL     1      18.801  50.457  46.950  1.00  0.00     0.037 A 
HETATM   16  C   UNL     1      18.728  51.769  47.433  1.00  0.00     0.003 A 
HETATM   17  C   UNL     1      19.521  52.167  48.505  1.00  0.00     0.001 A 
HETATM   18  C   UNL     1      20.386  51.254  49.102  1.00  0.00     0.016 A 
BRANCH  14  19
HETATM   19  O   UNL     1      19.798  48.228  47.129  1.00  0.00    -0.351 OA
BRANCH  19  20
HETATM   20  C   UNL     1      18.612  47.446  46.996  1.00  0.00     0.171 C 
HETATM   21  C   UNL     1      18.149  47.063  48.389  1.00  0.00     0.034 C 
ENDBRANCH  19  20
ENDBRANCH  14  19
ENDBRANCH  12  13
ENDBRANCH   8  11
ENDBRANCH   1   7
BRANCH   5  22
HETATM   22  C   UNL     1      26.963  45.610  53.429  1.00  0.00     0.005 A 
HETATM   23  C   UNL     1      27.991  44.620  53.383  1.00  0.00    -0.012 A 
HETATM   24  C   UNL     1      28.871  44.624  54.437  1.00  0.00    -0.012 A 
HETATM   25  C   UNL     1      28.257  43.636  52.392  1.00  0.00     0.013 A 
HETATM   26  C   UNL     1      29.924  43.739  54.580  1.00  0.00    -0.046 A 
HETATM   27  C   UNL     1      28.831  45.525  55.484  1.00  0.00    -0.046 A 
HETATM   28  C   UNL     1      30.179  42.756  53.636  1.00  0.00     0.008 A 
HETATM   29  C   UNL     1      30.679  44.027  55.831  1.00  0.00     0.044 A 
HETATM   30  C   UNL     1      29.323  42.725  52.527  1.00  0.00     0.001 A 
HETATM   31  C   UNL     1      29.940  45.257  56.443  1.00  0.00     0.044 A 
HETATM   32  C   UNL     1      27.869  46.520  55.544  1.00  0.00     0.009 A 
HETATM   33  C   UNL     1      26.934  46.544  54.497  1.00  0.00     0.015 A 
ENDBRANCH   5  22
TORSDOF 6
ENDMDL
MODEL 3
REMARK VINA RESULT:     -10.3      1.352      3.022
REMARK  6 active torsions:
REMARK  status: ('A' for Active; 'I' for Inactive)
REMARK    1  A    between atoms: C_2  and  O_3 
REMARK    2  A    between atoms: O_3  and  C_4 
REMARK    3  A    between atoms: C_5  and  C_6 
REMARK    4  A    between atoms: N_7  and  N_8 
REMARK       I    between atoms: N_8  and  C_9 
REMARK    5  A    between atoms: C_9  and  C_10 
REMARK    6  A    between atoms: C_14  and  C_15 
ROOT
HETATM    1  C   UNL     1      24.913  46.807  51.002  1.00  0.00     0.121 A 
HETATM    2  N   UNL     1      24.436  45.608  51.455  1.00  0.00    -0.272 N 
HETATM    3  H   UNL     1      23.583  45.143  51.159  1.00  0.00     0.189 HD
HETATM    4  N   UNL     1      25.191  45.038  52.407  1.00  0.00    -0.174 NA
HETATM    5  C   UNL     1      26.199  45.903  52.600  1.00  0.00     0.090 A 
HETATM    6  C   UNL     1      26.095  46.993  51.693  1.00  0.00     0.071 A 
ENDROOT
BRANCH   1   7
HETATM    7  C   UNL     1      24.186  47.590  50.028  1.00  0.00     0.289 C 
HETATM    8  N   UNL     1      23.036  46.970  49.559  1.00  0.00    -0.242 N 
HETATM    9  H   UNL     1      22.787  46.071  49.951  1.00  0.00     0.192 HD
HETATM   10  O   UNL     1      24.615  48.681  49.672  1.00  0.00    -0.264 OA
BRANCH   8  11
HETATM   11  N   UNL     1      22.218  47.319  48.517  1.00  0.00    -0.183 NA
HETATM   12  C   UNL     1      20.959  47.563  48.698  1.00  0.00     0.153 C 
BRANCH  12  13
HETATM   13  C   UNL     1      20.103  47.999  47.564  1.00  0.00     0.016 A 
HETATM   14  C   UNL     1      19.548  49.290  47.544  1.00  0.00     0.080 A 
HETATM   15  C   UNL     1      18.771  49.674  46.444  1.00  0.00     0.037 A 
HETATM   16  C   UNL     1      18.546  48.787  45.386  1.00  0.00     0.003 A 
HETATM   17  C   UNL     1      19.092  47.507  45.415  1.00  0.00     0.001 A 
HETATM   18  C   UNL     1      19.870  47.112  46.501  1.00  0.00     0.016 A 
BRANCH  14  19
HETATM   19  O   UNL     1      19.817  50.098  48.617  1.00  0.00    -0.351 OA
BRANCH  19  20
HETATM   20  C   UNL     1      20.528  51.312  48.380  1.00  0.00     0.171 C 
HETATM   21  C   UNL     1      22.006  51.033  48.579  1.00  0.00     0.034 C 
ENDBRANCH  19  20
ENDBRANCH  14  19
ENDBRANCH  12  13
ENDBRANCH   8  11
ENDBRANCH   1   7
BRANCH   5  22
HETATM   22  C   UNL     1      27.239  45.666  53.602  1.00  0.00     0.005 A 
HETATM   23  C   UNL     1      28.184  44.603  53.477  1.00  0.00    -0.012 A 
HETATM   24  C   UNL     1      29.062  44.459  54.524  1.00  0.00    -0.012 A 
HETATM   25  C   UNL     1      28.370  43.677  52.416  1.00  0.00     0.013 A 
HETATM   26  C   UNL     1      30.040  43.484  54.596  1.00  0.00    -0.046 A 
HETATM   27  C   UNL     1      29.094  45.282  55.634  1.00  0.00    -0.046 A 
HETATM   28  C   UNL     1      30.214  42.555  53.581  1.00  0.00     0.008 A 
HETATM   29  C   UNL     1      30.815  43.618  55.860  1.00  0.00     0.044 A 
HETATM   30  C   UNL     1      29.359  42.675  52.477  1.00  0.00     0.001 A 
HETATM   31  C   UNL     1      30.178  44.856  56.564  1.00  0.00     0.044 A 
HETATM   32  C   UNL     1      28.215  46.344  55.772  1.00  0.00     0.009 A 
HETATM   33  C   UNL     1      27.285  46.519  54.735  1.00  0.00     0.015 A 
ENDBRANCH   5  22
TORSDOF 6
ENDMDL
MODEL 4
REMARK VINA RESULT:     -10.3      1.312      2.243
REMARK  6 active torsions:
REMARK  status: ('A' for Active; 'I' for Inactive)
REMARK    1  A    between atoms: C_2  and  O_3 
REMARK    2  A    between atoms: O_3  and  C_4 
REMARK    3  A    between atoms: C_5  and  C_6 
REMARK    4  A    between atoms: N_7  and  N_8 
REMARK       I    between atoms: N_8  and  C_9 
REMARK    5  A    between atoms: C_9  and  C_10 
REMARK    6  A    between atoms: C_14  and  C_15 
ROOT
HETATM    1  C   UNL     1      24.777  46.323  50.706  1.00  0.00     0.121 A 
HETATM    2  N   UNL     1      24.104  45.289  51.297  1.00  0.00    -0.272 N 
HETATM    3  H   UNL     1      23.112  45.085  51.217  1.00  0.00     0.189 HD
HETATM    4  N   UNL     1      24.868  44.505  52.074  1.00  0.00    -0.174 NA
HETATM    5  C   UNL     1      26.091  45.052  52.004  1.00  0.00     0.090 A 
HETATM    6  C   UNL     1      26.089  46.155  51.106  1.00  0.00     0.071 A 
ENDROOT
BRANCH   1   7
HETATM    7  C   UNL     1      24.093  47.304  49.895  1.00  0.00     0.289 C 
HETATM    8  N   UNL     1      22.912  46.839  49.333  1.00  0.00    -0.242 N 
HETATM    9  H   UNL     1      22.615  45.898  49.562  1.00  0.00     0.192 HD
HETATM   10  O   UNL     1      24.580  48.416  49.733  1.00  0.00    -0.264 OA
BRANCH   8  11
HETATM   11  N   UNL     1      22.113  47.410  48.379  1.00  0.00    -0.183 NA
HETATM   12  C   UNL     1      20.825  47.453  48.510  1.00  0.00     0.153 C 
BRANCH  12  13
HETATM   13  C   UNL     1      19.983  48.131  47.491  1.00  0.00     0.016 A 
HETATM   14  C   UNL     1      19.661  49.494  47.623  1.00  0.00     0.080 A 
HETATM   15  C   UNL     1      18.891  50.105  46.627  1.00  0.00     0.037 A 
HETATM   16  C   UNL     1      18.443  49.372  45.521  1.00  0.00     0.003 A 
HETATM   17  C   UNL     1      18.760  48.022  45.400  1.00  0.00     0.001 A 
HETATM   18  C   UNL     1      19.529  47.401  46.382  1.00  0.00     0.016 A 
BRANCH  14  19
HETATM   19  O   UNL     1      20.139  50.139  48.733  1.00  0.00    -0.351 OA
BRANCH  19  20
HETATM   20  C   UNL     1      21.060  51.211  48.539  1.00  0.00     0.171 C 
HETATM   21  C   UNL     1      22.288  50.928  49.385  1.00  0.00     0.034 C 
ENDBRANCH  19  20
ENDBRANCH  14  19
ENDBRANCH  12  13
ENDBRANCH   8  11
ENDBRANCH   1   7
BRANCH   5  22
HETATM   22  C   UNL     1      27.225  44.509  52.753  1.00  0.00     0.005 A 
HETATM   23  C   UNL     1      27.738  45.149  53.922  1.00  0.00    -0.012 A 
HETATM   24  C   UNL     1      28.845  44.564  54.486  1.00  0.00    -0.012 A 
HETATM   25  C   UNL     1      27.259  46.298  54.609  1.00  0.00     0.013 A 
HETATM   26  C   UNL     1      29.494  45.040  55.610  1.00  0.00    -0.046 A 
HETATM   27  C   UNL     1      29.445  43.412  54.014  1.00  0.00    -0.046 A 
HETATM   28  C   UNL     1      29.056  46.176  56.275  1.00  0.00     0.008 A 
HETATM   29  C   UNL     1      30.650  44.166  55.952  1.00  0.00     0.044 A 
HETATM   30  C   UNL     1      27.913  46.797  55.753  1.00  0.00     0.001 A 
HETATM   31  C   UNL     1      30.608  43.045  54.869  1.00  0.00     0.044 A 
HETATM   32  C   UNL     1      28.954  42.745  52.902  1.00  0.00     0.009 A 
HETATM   33  C   UNL     1      27.833  43.317  52.280  1.00  0.00     0.015 A 
ENDBRANCH   5  22
TORSDOF 6
ENDMDL
MODEL 5
REMARK VINA RESULT:     -10.0      1.926      2.672
REMARK  6 active torsions:
REMARK  status: ('A' for Active; 'I' for Inactive)
REMARK    1  A    between atoms: C_2  and  O_3 
REMARK    2  A    between atoms: O_3  and  C_4 
REMARK    3  A    between atoms: C_5  and  C_6 
REMARK    4  A    between atoms: N_7  and  N_8 
REMARK       I    between atoms: N_8  and  C_9 
REMARK    5  A    between atoms: C_9  and  C_10 
REMARK    6  A    between atoms: C_14  and  C_15 
ROOT
HETATM    1  C   UNL     1      25.939  45.004  51.228  1.00  0.00     0.121 A 
HETATM    2  N   UNL     1      26.919  44.486  50.427  1.00  0.00    -0.272 N 
HETATM    3  H   UNL     1      26.876  44.358  49.420  1.00  0.00     0.189 HD
HETATM    4  N   UNL     1      28.022  44.096  51.085  1.00  0.00    -0.174 NA
HETATM    5  C   UNL     1      27.753  44.354  52.375  1.00  0.00     0.090 A 
HETATM    6  C   UNL     1      26.483  44.982  52.498  1.00  0.00     0.071 A 
ENDROOT
BRANCH   1   7
HETATM    7  C   UNL     1      24.659  45.406  50.692  1.00  0.00     0.289 C 
HETATM    8  N   UNL     1      24.632  46.717  50.234  1.00  0.00    -0.242 N 
HETATM    9  H   UNL     1      25.490  47.252  50.275  1.00  0.00     0.192 HD
HETATM   10  O   UNL     1      23.717  44.624  50.696  1.00  0.00    -0.264 OA
BRANCH   8  11
HETATM   11  N   UNL     1      23.567  47.484  49.844  1.00  0.00    -0.183 NA
HETATM   12  C   UNL     1      23.734  48.611  49.227  1.00  0.00     0.153 C 
BRANCH  12  13
HETATM   13  C   UNL     1      22.563  49.398  48.759  1.00  0.00     0.016 A 
HETATM   14  C   UNL     1      21.733  48.903  47.738  1.00  0.00     0.080 A 
HETATM   15  C   UNL     1      20.623  49.660  47.345  1.00  0.00     0.037 A 
HETATM   16  C   UNL     1      20.347  50.890  47.954  1.00  0.00     0.003 A 
HETATM   17  C   UNL     1      21.177  51.377  48.959  1.00  0.00     0.001 A 
HETATM   18  C   UNL     1      22.283  50.633  49.363  1.00  0.00     0.016 A 
BRANCH  14  19
HETATM   19  O   UNL     1      22.071  47.691  47.196  1.00  0.00    -0.351 OA
BRANCH  19  20
HETATM   20  C   UNL     1      21.022  46.763  46.926  1.00  0.00     0.171 C 
HETATM   21  C   UNL     1      20.674  46.063  48.226  1.00  0.00     0.034 C 
ENDBRANCH  19  20
ENDBRANCH  14  19
ENDBRANCH  12  13
ENDBRANCH   8  11
ENDBRANCH   1   7
BRANCH   5  22
HETATM   22  C   UNL     1      28.702  44.034  53.441  1.00  0.00     0.005 A 
HETATM   23  C   UNL     1      28.783  44.805  54.641  1.00  0.00    -0.012 A 
HETATM   24  C   UNL     1      29.764  44.428  55.526  1.00  0.00    -0.012 A 
HETATM   25  C   UNL     1      27.983  45.897  55.071  1.00  0.00     0.013 A 
HETATM   26  C   UNL     1      30.009  45.057  56.733  1.00  0.00    -0.046 A 
HETATM   27  C   UNL     1      30.622  43.362  55.334  1.00  0.00    -0.046 A 
HETATM   28  C   UNL     1      29.255  46.142  57.153  1.00  0.00     0.008 A 
HETATM   29  C   UNL     1      31.136  44.392  57.445  1.00  0.00     0.044 A 
HETATM   30  C   UNL     1      28.224  46.549  56.296  1.00  0.00     0.001 A 
HETATM   31  C   UNL     1      31.546  43.225  56.495  1.00  0.00     0.044 A 
HETATM   32  C   UNL     1      30.549  42.572  54.199  1.00  0.00     0.009 A 
HETATM   33  C   UNL     1      29.573  42.930  53.255  1.00  0.00     0.015 A 
ENDBRANCH   5  22
TORSDOF 6
ENDMDL
MODEL 6
REMARK VINA RESULT:      -9.8      1.673      2.668
REMARK  6 active torsions:
REMARK  status: ('A' for Active; 'I' for Inactive)
REMARK    1  A    between atoms: C_2  and  O_3 
REMARK    2  A    between atoms: O_3  and  C_4 
REMARK    3  A    between atoms: C_5  and  C_6 
REMARK    4  A    between atoms: N_7  and  N_8 
REMARK       I    between atoms: N_8  and  C_9 
REMARK    5  A    between atoms: C_9  and  C_10 
REMARK    6  A    between atoms: C_14  and  C_15 
ROOT
HETATM    1  C   UNL     1      23.912  47.802  49.447  1.00  0.00     0.121 A 
HETATM    2  N   UNL     1      25.059  48.546  49.499  1.00  0.00    -0.272 N 
HETATM    3  H   UNL     1      25.211  49.457  49.075  1.00  0.00     0.189 HD
HETATM    4  N   UNL     1      26.067  47.961  50.164  1.00  0.00    -0.174 NA
HETATM    5  C   UNL     1      25.569  46.777  50.556  1.00  0.00     0.090 A 
HETATM    6  C   UNL     1      24.202  46.668  50.181  1.00  0.00     0.071 A 
ENDROOT
BRANCH   1   7
HETATM    7  C   UNL     1      22.753  48.251  48.710  1.00  0.00     0.289 C 
HETATM    8  N   UNL     1      21.549  48.013  49.360  1.00  0.00    -0.242 N 
HETATM    9  H   UNL     1      21.582  47.596  50.282  1.00  0.00     0.192 HD
HETATM   10  O   UNL     1      22.887  48.762  47.605  1.00  0.00    -0.264 OA
BRANCH   8  11
HETATM   11  N   UNL     1      20.267  48.128  48.895  1.00  0.00    -0.183 NA
HETATM   12  C   UNL     1      19.406  48.909  49.468  1.00  0.00     0.153 C 
BRANCH  12  13
HETATM   13  C   UNL     1      18.037  49.064  48.910  1.00  0.00     0.016 A 
HETATM   14  C   UNL     1      17.269  50.203  49.211  1.00  0.00     0.080 A 
HETATM   15  C   UNL     1      15.996  50.328  48.642  1.00  0.00     0.037 A 
HETATM   16  C   UNL     1      15.494  49.334  47.794  1.00  0.00     0.003 A 
HETATM   17  C   UNL     1      16.257  48.206  47.506  1.00  0.00     0.001 A 
HETATM   18  C   UNL     1      17.527  48.070  48.062  1.00  0.00     0.016 A 
BRANCH  14  19
HETATM   19  O   UNL     1      17.834  51.130  50.047  1.00  0.00    -0.351 OA
BRANCH  19  20
HETATM   20  C   UNL     1      17.921  52.479  49.592  1.00  0.00     0.171 C 
HETATM   21  C   UNL     1      18.953  52.531  48.481  1.00  0.00     0.034 C 
ENDBRANCH  19  20
ENDBRANCH  14  19
ENDBRANCH  12  13
ENDBRANCH   8  11
ENDBRANCH   1   7
BRANCH   5  22
HETATM   22  C   UNL     1      26.378  45.804  51.291  1.00  0.00     0.005 A 
HETATM   23  C   UNL     1      26.763  46.011  52.650  1.00  0.00    -0.012 A 
HETATM   24  C   UNL     1      27.576  45.046  53.193  1.00  0.00    -0.012 A 
HETATM   25  C   UNL     1      26.413  47.062  53.540  1.00  0.00     0.013 A 
HETATM   26  C   UNL     1      28.065  45.074  54.487  1.00  0.00    -0.046 A 
HETATM   27  C   UNL     1      27.997  43.913  52.524  1.00  0.00    -0.046 A 
HETATM   28  C   UNL     1      27.755  46.107  55.358  1.00  0.00     0.008 A 
HETATM   29  C   UNL     1      28.908  43.875  54.749  1.00  0.00     0.044 A 
HETATM   30  C   UNL     1      26.907  47.105  54.859  1.00  0.00     0.001 A 
HETATM   31  C   UNL     1      28.850  43.073  53.412  1.00  0.00     0.044 A 
HETATM   32  C   UNL     1      27.615  43.662  51.216  1.00  0.00     0.009 A 
HETATM   33  C   UNL     1      26.798  44.631  50.612  1.00  0.00     0.015 A 
ENDBRANCH   5  22
TORSDOF 6
ENDMDL
MODEL 7
REMARK VINA RESULT:      -9.6      1.836      2.400
REMARK  6 active torsions:
REMARK  status: ('A' for Active; 'I' for Inactive)
REMARK    1  A    between atoms: C_2  and  O_3 
REMARK    2  A    between atoms: O_3  and  C_4 
REMARK    3  A    between atoms: C_5  and  C_6 
REMARK    4  A    between atoms: N_7  and  N_8 
REMARK       I    between atoms: N_8  and  C_9 
REMARK    5  A    between atoms: C_9  and  C_10 
REMARK    6  A    between atoms: C_14  and  C_15 
ROOT
HETATM    1  C   UNL     1      24.274  48.969  49.017  1.00  0.00     0.121 A 
HETATM    2  N   UNL     1      25.593  49.268  48.811  1.00  0.00    -0.272 N 
HETATM    3  H   UNL     1      25.963  50.063  48.299  1.00  0.00     0.189 HD
HETATM    4  N   UNL     1      26.449  48.376  49.334  1.00  0.00    -0.174 NA
HETATM    5  C   UNL     1      25.663  47.445  49.896  1.00  0.00     0.090 A 
HETATM    6  C   UNL     1      24.295  47.814  49.774  1.00  0.00     0.071 A 
ENDROOT
BRANCH   1   7
HETATM    7  C   UNL     1      23.219  49.785  48.460  1.00  0.00     0.289 C 
HETATM    8  N   UNL     1      22.214  50.095  49.367  1.00  0.00    -0.242 N 
HETATM    9  H   UNL     1      22.317  49.770  50.320  1.00  0.00     0.192 HD
HETATM   10  O   UNL     1      23.254  50.115  47.281  1.00  0.00    -0.264 OA
BRANCH   8  11
HETATM   11  N   UNL     1      20.992  50.675  49.153  1.00  0.00    -0.183 NA
HETATM   12  C   UNL     1      19.893  50.091  49.510  1.00  0.00     0.153 C 
BRANCH  12  13
HETATM   13  C   UNL     1      18.582  50.766  49.323  1.00  0.00     0.016 A 
HETATM   14  C   UNL     1      17.506  50.083  48.729  1.00  0.00     0.080 A 
HETATM   15  C   UNL     1      16.278  50.743  48.598  1.00  0.00     0.037 A 
HETATM   16  C   UNL     1      16.126  52.060  49.045  1.00  0.00     0.003 A 
HETATM   17  C   UNL     1      17.197  52.733  49.625  1.00  0.00     0.001 A 
HETATM   18  C   UNL     1      18.423  52.088  49.766  1.00  0.00     0.016 A 
BRANCH  14  19
HETATM   19  O   UNL     1      17.737  48.796  48.321  1.00  0.00    -0.351 OA
BRANCH  19  20
HETATM   20  C   UNL     1      16.800  47.792  48.705  1.00  0.00     0.171 C 
HETATM   21  C   UNL     1      17.330  46.453  48.229  1.00  0.00     0.034 C 
ENDBRANCH  19  20
ENDBRANCH  14  19
ENDBRANCH  12  13
ENDBRANCH   8  11
ENDBRANCH   1   7
BRANCH   5  22
HETATM   22  C   UNL     1      26.216  46.260  50.552  1.00  0.00     0.005 A 
HETATM   23  C   UNL     1      26.377  46.183  51.969  1.00  0.00    -0.012 A 
HETATM   24  C   UNL     1      26.969  45.037  52.441  1.00  0.00    -0.012 A 
HETATM   25  C   UNL     1      25.992  47.110  52.975  1.00  0.00     0.013 A 
HETATM   26  C   UNL     1      27.223  44.781  53.776  1.00  0.00    -0.046 A 
HETATM   27  C   UNL     1      27.374  43.982  51.645  1.00  0.00    -0.046 A 
HETATM   28  C   UNL     1      26.879  45.689  54.767  1.00  0.00     0.008 A 
HETATM   29  C   UNL     1      27.868  43.449  53.936  1.00  0.00     0.044 A 
HETATM   30  C   UNL     1      26.248  46.864  54.339  1.00  0.00     0.001 A 
HETATM   31  C   UNL     1      27.959  42.896  52.481  1.00  0.00     0.044 A 
HETATM   32  C   UNL     1      27.203  44.008  50.270  1.00  0.00     0.009 A 
HETATM   33  C   UNL     1      26.618  45.169  49.739  1.00  0.00     0.015 A 
ENDBRANCH   5  22
TORSDOF 6
ENDMDL
MODEL 8
REMARK VINA RESULT:      -9.6      2.405      4.218
REMARK  6 active torsions:
REMARK  status: ('A' for Active; 'I' for Inactive)
REMARK    1  A    between atoms: C_2  and  O_3 
REMARK    2  A    between atoms: O_3  and  C_4 
REMARK    3  A    between atoms: C_5  and  C_6 
REMARK    4  A    between atoms: N_7  and  N_8 
REMARK       I    between atoms: N_8  and  C_9 
REMARK    5  A    between atoms: C_9  and  C_10 
REMARK    6  A    between atoms: C_14  and  C_15 
ROOT
HETATM    1  C   UNL     1      24.630  44.686  51.492  1.00  0.00     0.121 A 
HETATM    2  N   UNL     1      25.099  45.920  51.135  1.00  0.00    -0.272 N 
HETATM    3  H   UNL     1      24.805  46.473  50.334  1.00  0.00     0.189 HD
HETATM    4  N   UNL     1      26.064  46.397  51.936  1.00  0.00    -0.174 NA
HETATM    5  C   UNL     1      26.248  45.433  52.851  1.00  0.00     0.090 A 
HETATM    6  C   UNL     1      25.324  44.372  52.644  1.00  0.00     0.071 A 
ENDROOT
BRANCH   1   7
HETATM    7  C   UNL     1      23.641  43.994  50.696  1.00  0.00     0.289 C 
HETATM    8  N   UNL     1      22.870  44.837  49.906  1.00  0.00    -0.242 N 
HETATM    9  H   UNL     1      23.082  45.827  49.920  1.00  0.00     0.192 HD
HETATM   10  O   UNL     1      23.524  42.778  50.780  1.00  0.00    -0.264 OA
BRANCH   8  11
HETATM   11  N   UNL     1      21.740  44.565  49.182  1.00  0.00    -0.183 NA
HETATM   12  C   UNL     1      21.173  45.468  48.448  1.00  0.00     0.153 C 
BRANCH  12  13
HETATM   13  C   UNL     1      19.982  45.135  47.623  1.00  0.00     0.016 A 
HETATM   14  C   UNL     1      18.766  45.813  47.819  1.00  0.00     0.080 A 
HETATM   15  C   UNL     1      17.675  45.492  47.002  1.00  0.00     0.037 A 
HETATM   16  C   UNL     1      17.791  44.508  46.012  1.00  0.00     0.003 A 
HETATM   17  C   UNL     1      18.996  43.836  45.829  1.00  0.00     0.001 A 
HETATM   18  C   UNL     1      20.090  44.148  46.632  1.00  0.00     0.016 A 
BRANCH  14  19
HETATM   19  O   UNL     1      18.736  46.762  48.806  1.00  0.00    -0.351 OA
BRANCH  19  20
HETATM   20  C   UNL     1      18.304  48.076  48.459  1.00  0.00     0.171 C 
HETATM   21  C   UNL     1      19.499  48.830  47.907  1.00  0.00     0.034 C 
ENDBRANCH  19  20
ENDBRANCH  14  19
ENDBRANCH  12  13
ENDBRANCH   8  11
ENDBRANCH   1   7
BRANCH   5  22
HETATM   22  C   UNL     1      27.259  45.549  53.902  1.00  0.00     0.005 A 
HETATM   23  C   UNL     1      28.350  44.634  54.010  1.00  0.00    -0.012 A 
HETATM   24  C   UNL     1      29.185  44.824  55.083  1.00  0.00    -0.012 A 
HETATM   25  C   UNL     1      28.719  43.560  53.154  1.00  0.00     0.013 A 
HETATM   26  C   UNL     1      30.286  44.036  55.367  1.00  0.00    -0.046 A 
HETATM   27  C   UNL     1      29.045  45.838  56.011  1.00  0.00    -0.046 A 
HETATM   28  C   UNL     1      30.641  42.968  54.557  1.00  0.00     0.008 A 
HETATM   29  C   UNL     1      30.970  44.522  56.597  1.00  0.00     0.044 A 
HETATM   30  C   UNL     1      29.835  42.747  53.433  1.00  0.00     0.001 A 
HETATM   31  C   UNL     1      30.129  45.763  57.030  1.00  0.00     0.044 A 
HETATM   32  C   UNL     1      28.018  46.764  55.919  1.00  0.00     0.009 A 
HETATM   33  C   UNL     1      27.127  46.599  54.847  1.00  0.00     0.015 A 
ENDBRANCH   5  22
TORSDOF 6
ENDMDL
MODEL 9
REMARK VINA RESULT:      -9.6      2.253     10.797
REMARK  6 active torsions:
REMARK  status: ('A' for Active; 'I' for Inactive)
REMARK    1  A    between atoms: C_2  and  O_3 
REMARK    2  A    between atoms: O_3  and  C_4 
REMARK    3  A    between atoms: C_5  and  C_6 
REMARK    4  A    between atoms: N_7  and  N_8 
REMARK       I    between atoms: N_8  and  C_9 
REMARK    5  A    between atoms: C_9  and  C_10 
REMARK    6  A    between atoms: C_14  and  C_15 
ROOT
HETATM    1  C   UNL     1      24.018  45.616  49.195  1.00  0.00     0.121 A 
HETATM    2  N   UNL     1      23.222  45.328  48.120  1.00  0.00    -0.272 N 
HETATM    3  H   UNL     1      23.242  44.480  47.560  1.00  0.00     0.189 HD
HETATM    4  N   UNL     1      22.362  46.304  47.792  1.00  0.00    -0.174 NA
HETATM    5  C   UNL     1      22.608  47.281  48.678  1.00  0.00     0.090 A 
HETATM    6  C   UNL     1      23.595  46.863  49.613  1.00  0.00     0.071 A 
ENDROOT
BRANCH   1   7
HETATM    7  C   UNL     1      25.048  44.705  49.638  1.00  0.00     0.289 C 
HETATM    8  N   UNL     1      25.707  45.122  50.787  1.00  0.00    -0.242 N 
HETATM    9  H   UNL     1      25.397  45.979  51.228  1.00  0.00     0.192 HD
HETATM   10  O   UNL     1      25.288  43.689  48.997  1.00  0.00    -0.264 OA
BRANCH   8  11
HETATM   11  N   UNL     1      26.838  44.623  51.376  1.00  0.00    -0.183 NA
HETATM   12  C   UNL     1      27.082  44.803  52.635  1.00  0.00     0.153 C 
BRANCH  12  13
HETATM   13  C   UNL     1      28.285  44.201  53.266  1.00  0.00     0.016 A 
HETATM   14  C   UNL     1      28.648  44.544  54.581  1.00  0.00     0.080 A 
HETATM   15  C   UNL     1      29.771  43.933  55.152  1.00  0.00     0.037 A 
HETATM   16  C   UNL     1      30.522  43.001  54.425  1.00  0.00     0.003 A 
HETATM   17  C   UNL     1      30.161  42.672  53.122  1.00  0.00     0.001 A 
HETATM   18  C   UNL     1      29.044  43.269  52.543  1.00  0.00     0.016 A 
BRANCH  14  19
HETATM   19  O   UNL     1      27.860  45.462  55.223  1.00  0.00    -0.351 OA
BRANCH  19  20
HETATM   20  C   UNL     1      28.411  46.751  55.486  1.00  0.00     0.171 C 
HETATM   21  C   UNL     1      27.341  47.785  55.185  1.00  0.00     0.034 C 
ENDBRANCH  19  20
ENDBRANCH  14  19
ENDBRANCH  12  13
ENDBRANCH   8  11
ENDBRANCH   1   7
BRANCH   5  22
HETATM   22  C   UNL     1      21.895  48.558  48.639  1.00  0.00     0.005 A 
HETATM   23  C   UNL     1      20.481  48.643  48.824  1.00  0.00    -0.012 A 
HETATM   24  C   UNL     1      19.937  49.897  48.696  1.00  0.00    -0.012 A 
HETATM   25  C   UNL     1      19.547  47.620  49.144  1.00  0.00     0.013 A 
HETATM   26  C   UNL     1      18.590  50.182  48.826  1.00  0.00    -0.046 A 
HETATM   27  C   UNL     1      20.667  51.043  48.439  1.00  0.00    -0.046 A 
HETATM   28  C   UNL     1      17.663  49.190  49.110  1.00  0.00     0.008 A 
HETATM   29  C   UNL     1      18.346  51.638  48.633  1.00  0.00     0.044 A 
HETATM   30  C   UNL     1      18.171  47.895  49.275  1.00  0.00     0.001 A 
HETATM   31  C   UNL     1      19.767  52.229  48.382  1.00  0.00     0.044 A 
HETATM   32  C   UNL     1      22.043  51.003  48.288  1.00  0.00     0.009 A 
HETATM   33  C   UNL     1      22.643  49.738  48.391  1.00  0.00     0.015 A 
ENDBRANCH   5  22
TORSDOF 6
ENDMDL
MODEL 10
REMARK VINA RESULT:      -9.4      2.787     10.870
REMARK  6 active torsions:
REMARK  status: ('A' for Active; 'I' for Inactive)
REMARK    1  A    between atoms: C_2  and  O_3 
REMARK    2  A    between atoms: O_3  and  C_4 
REMARK    3  A    between atoms: C_5  and  C_6 
REMARK    4  A    between atoms: N_7  and  N_8 
REMARK       I    between atoms: N_8  and  C_9 
REMARK    5  A    between atoms: C_9  and  C_10 
REMARK    6  A    between atoms: C_14  and  C_15 
ROOT
HETATM    1  C   UNL     1      25.747  46.026  51.339  1.00  0.00     0.121 A 
HETATM    2  N   UNL     1      26.071  47.327  51.066  1.00  0.00    -0.272 N 
HETATM    3  H   UNL     1      26.864  47.845  51.434  1.00  0.00     0.189 HD
HETATM    4  N   UNL     1      25.211  47.950  50.246  1.00  0.00    -0.174 NA
HETATM    5  C   UNL     1      24.274  47.027  49.977  1.00  0.00     0.090 A 
HETATM    6  C   UNL     1      24.609  45.790  50.592  1.00  0.00     0.071 A 
ENDROOT
BRANCH   1   7
HETATM    7  C   UNL     1      26.526  45.231  52.260  1.00  0.00     0.289 C 
HETATM    8  N   UNL     1      26.576  45.753  53.546  1.00  0.00    -0.242 N 
HETATM    9  H   UNL     1      26.048  46.595  53.737  1.00  0.00     0.192 HD
HETATM   10  O   UNL     1      27.090  44.215  51.871  1.00  0.00    -0.264 OA
BRANCH   8  11
HETATM   11  N   UNL     1      27.353  45.382  54.610  1.00  0.00    -0.183 NA
HETATM   12  C   UNL     1      28.556  45.837  54.761  1.00  0.00     0.153 C 
BRANCH  12  13
HETATM   13  C   UNL     1      29.360  45.469  55.956  1.00  0.00     0.016 A 
HETATM   14  C   UNL     1      30.336  44.460  55.876  1.00  0.00     0.080 A 
HETATM   15  C   UNL     1      31.094  44.163  57.015  1.00  0.00     0.037 A 
HETATM   16  C   UNL     1      30.880  44.853  58.213  1.00  0.00     0.003 A 
HETATM   17  C   UNL     1      29.908  45.846  58.287  1.00  0.00     0.001 A 
HETATM   18  C   UNL     1      29.148  46.155  57.162  1.00  0.00     0.016 A 
BRANCH  14  19
HETATM   19  O   UNL     1      30.484  43.834  54.666  1.00  0.00    -0.351 OA
BRANCH  19  20
HETATM   20  C   UNL     1      29.772  42.618  54.449  1.00  0.00     0.171 C 
HETATM   21  C   UNL     1      29.788  42.328  52.960  1.00  0.00     0.034 C 
ENDBRANCH  19  20
ENDBRANCH  14  19
ENDBRANCH  12  13
ENDBRANCH   8  11
ENDBRANCH   1   7
BRANCH   5  22
HETATM   22  C   UNL     1      23.117  47.325  49.133  1.00  0.00     0.005 A 
HETATM   23  C   UNL     1      22.635  48.656  48.947  1.00  0.00    -0.012 A 
HETATM   24  C   UNL     1      21.502  48.779  48.181  1.00  0.00    -0.012 A 
HETATM   25  C   UNL     1      23.169  49.886  49.420  1.00  0.00     0.013 A 
HETATM   26  C   UNL     1      20.877  49.980  47.898  1.00  0.00    -0.046 A 
HETATM   27  C   UNL     1      20.848  47.721  47.579  1.00  0.00    -0.046 A 
HETATM   28  C   UNL     1      21.369  51.185  48.376  1.00  0.00     0.008 A 
HETATM   29  C   UNL     1      19.681  49.753  47.040  1.00  0.00     0.044 A 
HETATM   30  C   UNL     1      22.540  51.116  49.142  1.00  0.00     0.001 A 
HETATM   31  C   UNL     1      19.668  48.211  46.811  1.00  0.00     0.044 A 
HETATM   32  C   UNL     1      21.305  46.420  47.710  1.00  0.00     0.009 A 
HETATM   33  C   UNL     1      22.452  46.242  48.500  1.00  0.00     0.015 A 
ENDBRANCH   5  22
TORSDOF 6
ENDMDL
