MODEL 1
REMARK VINA RESULT:      -9.8      0.000      0.000
REMARK  10 active torsions:
REMARK  status: ('A' for Active; 'I' for Inactive)
REMARK    1  A    between atoms: N_2  and  C_4 
REMARK    2  A    between atoms: C_4  and  C_5 
REMARK    3  A    between atoms: N_6  and  C_7 
REMARK    4  A    between atoms: C_11  and  N_12 
REMARK    5  A    between atoms: C_15  and  C_16 
REMARK       I    between atoms: C_16  and  N_17 
REMARK    6  A    between atoms: N_17  and  N_18 
REMARK    7  A    between atoms: C_19  and  C_20 
REMARK    8  A    between atoms: C_21  and  O_22 
REMARK    9  A    between atoms: O_22  and  C_23 
REMARK   10  A    between atoms: C_23  and  C_24 
ROOT
HETATM    1  C   UNL     1      24.927  46.180  49.932  1.00  0.00     0.293 C 
HETATM    2  N   UNL     1      24.527  45.415  51.013  1.00  0.00    -0.242 N 
HETATM    3  O   UNL     1      25.859  45.905  49.178  1.00  0.00    -0.264 OA
HETATM    4  H   UNL     1      23.686  45.644  51.538  1.00  0.00     0.192 HD
ENDROOT
BRANCH   1   5
HETATM    5  C   UNL     1      24.103  47.349  49.670  1.00  0.00     0.170 A 
HETATM    6  C   UNL     1      22.919  47.379  48.947  1.00  0.00     0.096 A 
HETATM    7  N   UNL     1      22.489  48.700  49.044  1.00  0.00    -0.215 N 
HETATM    8  N   UNL     1      23.429  49.415  49.717  1.00  0.00     0.012 NA
HETATM    9  N   UNL     1      24.386  48.600  50.130  1.00  0.00    -0.152 NA
BRANCH   6  10
HETATM   10  C   UNL     1      22.254  46.314  48.156  1.00  0.00     0.295 C 
BRANCH  10  11
HETATM   11  N   UNL     1      21.507  45.289  48.977  1.00  0.00    -0.073 N 
HETATM   12  C   UNL     1      22.112  43.912  48.921  1.00  0.00     0.269 C 
HETATM   13  H   UNL     1      21.526  45.614  49.954  1.00  0.00     0.279 HD
HETATM   14  C   UNL     1      20.053  45.243  48.588  1.00  0.00     0.269 C 
ENDBRANCH  10  11
ENDBRANCH   6  10
BRANCH   7  15
HETATM   15  C   UNL     1      21.272  49.268  48.601  1.00  0.00     0.225 A 
HETATM   16  N   UNL     1      21.252  50.028  47.502  1.00  0.00    -0.081 NA
HETATM   17  O   UNL     1      19.905  50.386  47.375  1.00  0.00    -0.103 OA
HETATM   18  N   UNL     1      19.137  49.814  48.378  1.00  0.00    -0.083 NA
HETATM   19  C   UNL     1      19.982  49.119  49.137  1.00  0.00     0.201 A 
BRANCH  19  20
HETATM   20  N   UNL     1      19.629  48.416  50.224  1.00  0.00    -0.379 N 
HETATM   21  H   UNL     1      19.638  47.399  50.205  1.00  0.00     0.158 HD
HETATM   22  H   UNL     1      19.489  48.824  51.146  1.00  0.00     0.158 HD
ENDBRANCH  19  20
ENDBRANCH   7  15
ENDBRANCH   1   5
BRANCH   2  23
HETATM   23  N   UNL     1      25.212  44.274  51.264  1.00  0.00    -0.183 NA
HETATM   24  C   UNL     1      26.354  44.367  51.859  1.00  0.00     0.153 C 
BRANCH  24  25
HETATM   25  C   UNL     1      27.132  43.156  52.170  1.00  0.00     0.016 A 
HETATM   26  C   UNL     1      27.773  42.888  53.393  1.00  0.00     0.080 A 
HETATM   27  C   UNL     1      28.505  41.698  53.518  1.00  0.00     0.037 A 
HETATM   28  C   UNL     1      28.581  40.781  52.466  1.00  0.00     0.003 A 
HETATM   29  C   UNL     1      27.946  41.055  51.260  1.00  0.00     0.001 A 
HETATM   30  C   UNL     1      27.230  42.241  51.107  1.00  0.00     0.016 A 
BRANCH  26  31
HETATM   31  O   UNL     1      27.921  43.725  54.468  1.00  0.00    -0.346 OA
BRANCH  31  32
HETATM   32  C   UNL     1      28.986  44.671  54.400  1.00  0.00     0.219 C 
BRANCH  32  33
HETATM   33  C   UNL     1      29.732  44.692  55.709  1.00  0.00     0.026 A 
HETATM   34  C   UNL     1      29.452  45.600  56.738  1.00  0.00     0.045 A 
HETATM   35 CL   UNL     1      28.206  46.788  56.595  1.00  0.00    -0.084 Cl
HETATM   36  C   UNL     1      30.197  45.587  57.925  1.00  0.00     0.024 A 
HETATM   37  C   UNL     1      31.218  44.653  58.109  1.00  0.00     0.005 A 
HETATM   38  C   UNL     1      31.497  43.735  57.104  1.00  0.00     0.043 A 
HETATM   39  C   UNL     1      30.760  43.764  55.921  1.00  0.00     0.126 A 
HETATM   40  F   UNL     1      31.085  42.891  54.955  1.00  0.00    -0.205 F 
ENDBRANCH  32  33
ENDBRANCH  31  32
ENDBRANCH  26  31
ENDBRANCH  24  25
ENDBRANCH   2  23
TORSDOF 10
ENDMDL
MODEL 2
REMARK VINA RESULT:      -9.2      2.084      2.661
REMARK  10 active torsions:
REMARK  status: ('A' for Active; 'I' for Inactive)
REMARK    1  A    between atoms: N_2  and  C_4 
REMARK    2  A    between atoms: C_4  and  C_5 
REMARK    3  A    between atoms: N_6  and  C_7 
REMARK    4  A    between atoms: C_11  and  N_12 
REMARK    5  A    between atoms: C_15  and  C_16 
REMARK       I    between atoms: C_16  and  N_17 
REMARK    6  A    between atoms: N_17  and  N_18 
REMARK    7  A    between atoms: C_19  and  C_20 
REMARK    8  A    between atoms: C_21  and  O_22 
REMARK    9  A    between atoms: O_22  and  C_23 
REMARK   10  A    between atoms: C_23  and  C_24 
ROOT
HETATM    1  C   UNL     1      23.506  46.349  49.162  1.00  0.00     0.293 C 
HETATM    2  N   UNL     1      24.035  45.799  50.316  1.00  0.00    -0.242 N 
HETATM    3  O   UNL     1      23.336  45.745  48.104  1.00  0.00    -0.264 OA
HETATM    4  H   UNL     1      24.057  46.323  51.188  1.00  0.00     0.192 HD
ENDROOT
BRANCH   1   5
HETATM    5  C   UNL     1      23.068  47.730  49.287  1.00  0.00     0.170 A 
HETATM    6  C   UNL     1      21.831  48.240  48.921  1.00  0.00     0.096 A 
HETATM    7  N   UNL     1      21.884  49.578  49.301  1.00  0.00    -0.215 N 
HETATM    8  N   UNL     1      23.126  49.846  49.782  1.00  0.00     0.012 NA
HETATM    9  N   UNL     1      23.834  48.728  49.811  1.00  0.00    -0.152 NA
BRANCH   6  10
HETATM   10  C   UNL     1      20.702  47.592  48.209  1.00  0.00     0.295 C 
BRANCH  10  11
HETATM   11  N   UNL     1      19.796  46.758  49.084  1.00  0.00    -0.073 N 
HETATM   12  C   UNL     1      19.931  45.277  48.856  1.00  0.00     0.269 C 
HETATM   13  H   UNL     1      20.050  46.963  50.060  1.00  0.00     0.279 HD
HETATM   14  C   UNL     1      18.360  47.187  48.935  1.00  0.00     0.269 C 
ENDBRANCH  10  11
ENDBRANCH   6  10
BRANCH   7  15
HETATM   15  C   UNL     1      20.850  50.544  49.282  1.00  0.00     0.225 A 
HETATM   16  N   UNL     1      20.870  51.523  48.373  1.00  0.00    -0.081 NA
HETATM   17  O   UNL     1      19.708  52.252  48.650  1.00  0.00    -0.103 OA
HETATM   18  N   UNL     1      18.996  51.684  49.697  1.00  0.00    -0.083 NA
HETATM   19  C   UNL     1      19.702  50.624  50.088  1.00  0.00     0.201 A 
BRANCH  19  20
HETATM   20  N   UNL     1      19.351  49.801  51.088  1.00  0.00    -0.379 N 
HETATM   21  H   UNL     1      19.267  48.801  50.925  1.00  0.00     0.158 HD
HETATM   22  H   UNL     1      19.303  50.081  52.065  1.00  0.00     0.158 HD
ENDBRANCH  19  20
ENDBRANCH   7  15
ENDBRANCH   1   5
BRANCH   2  23
HETATM   23  N   UNL     1      24.395  44.493  50.283  1.00  0.00    -0.183 NA
HETATM   24  C   UNL     1      25.601  44.185  50.622  1.00  0.00     0.153 C 
BRANCH  24  25
HETATM   25  C   UNL     1      26.039  42.779  50.618  1.00  0.00     0.016 A 
HETATM   26  C   UNL     1      27.049  42.235  51.432  1.00  0.00     0.080 A 
HETATM   27  C   UNL     1      27.370  40.878  51.283  1.00  0.00     0.037 A 
HETATM   28  C   UNL     1      26.692  40.070  50.368  1.00  0.00     0.003 A 
HETATM   29  C   UNL     1      25.696  40.615  49.565  1.00  0.00     0.001 A 
HETATM   30  C   UNL     1      25.374  41.967  49.683  1.00  0.00     0.016 A 
BRANCH  26  31
HETATM   31  O   UNL     1      27.904  42.900  52.272  1.00  0.00    -0.346 OA
BRANCH  31  32
HETATM   32  C   UNL     1      27.593  42.860  53.663  1.00  0.00     0.219 C 
BRANCH  32  33
HETATM   33  C   UNL     1      27.895  44.196  54.291  1.00  0.00     0.026 A 
HETATM   34  C   UNL     1      29.117  44.497  54.905  1.00  0.00     0.045 A 
HETATM   35 CL   UNL     1      30.405  43.348  54.992  1.00  0.00    -0.084 Cl
HETATM   36  C   UNL     1      29.331  45.751  55.493  1.00  0.00     0.024 A 
HETATM   37  C   UNL     1      28.336  46.729  55.458  1.00  0.00     0.005 A 
HETATM   38  C   UNL     1      27.123  46.450  54.839  1.00  0.00     0.043 A 
HETATM   39  C   UNL     1      26.914  45.196  54.267  1.00  0.00     0.126 A 
HETATM   40  F   UNL     1      25.716  44.947  53.716  1.00  0.00    -0.205 F 
ENDBRANCH  32  33
ENDBRANCH  31  32
ENDBRANCH  26  31
ENDBRANCH  24  25
ENDBRANCH   2  23
TORSDOF 10
ENDMDL
MODEL 3
REMARK VINA RESULT:      -9.1      1.692      2.185
REMARK  10 active torsions:
REMARK  status: ('A' for Active; 'I' for Inactive)
REMARK    1  A    between atoms: N_2  and  C_4 
REMARK    2  A    between atoms: C_4  and  C_5 
REMARK    3  A    between atoms: N_6  and  C_7 
REMARK    4  A    between atoms: C_11  and  N_12 
REMARK    5  A    between atoms: C_15  and  C_16 
REMARK       I    between atoms: C_16  and  N_17 
REMARK    6  A    between atoms: N_17  and  N_18 
REMARK    7  A    between atoms: C_19  and  C_20 
REMARK    8  A    between atoms: C_21  and  O_22 
REMARK    9  A    between atoms: O_22  and  C_23 
REMARK   10  A    between atoms: C_23  and  C_24 
ROOT
HETATM    1  C   UNL     1      23.500  46.834  49.220  1.00  0.00     0.293 C 
HETATM    2  N   UNL     1      24.236  46.467  50.333  1.00  0.00    -0.242 N 
HETATM    3  O   UNL     1      23.259  46.105  48.259  1.00  0.00    -0.264 OA
HETATM    4  H   UNL     1      24.316  47.082  51.139  1.00  0.00     0.192 HD
ENDROOT
BRANCH   1   5
HETATM    5  C   UNL     1      22.933  48.172  49.276  1.00  0.00     0.170 A 
HETATM    6  C   UNL     1      21.604  48.513  49.075  1.00  0.00     0.096 A 
HETATM    7  N   UNL     1      21.563  49.887  49.301  1.00  0.00    -0.215 N 
HETATM    8  N   UNL     1      22.827  50.327  49.535  1.00  0.00     0.012 NA
HETATM    9  N   UNL     1      23.654  49.294  49.557  1.00  0.00    -0.152 NA
BRANCH   6  10
HETATM   10  C   UNL     1      20.458  47.680  48.634  1.00  0.00     0.295 C 
BRANCH  10  11
HETATM   11  N   UNL     1      20.362  47.475  47.140  1.00  0.00    -0.073 N 
HETATM   12  C   UNL     1      19.365  48.381  46.469  1.00  0.00     0.269 C 
HETATM   13  H   UNL     1      21.294  47.670  46.749  1.00  0.00     0.279 HD
HETATM   14  C   UNL     1      20.072  46.035  46.811  1.00  0.00     0.269 C 
ENDBRANCH  10  11
ENDBRANCH   6  10
BRANCH   7  15
HETATM   15  C   UNL     1      20.436  50.740  49.359  1.00  0.00     0.225 A 
HETATM   16  N   UNL     1      20.350  51.787  48.533  1.00  0.00    -0.081 NA
HETATM   17  O   UNL     1      19.121  52.368  48.867  1.00  0.00    -0.103 OA
HETATM   18  N   UNL     1      18.478  51.647  49.861  1.00  0.00    -0.083 NA
HETATM   19  C   UNL     1      19.291  50.636  50.166  1.00  0.00     0.201 A 
BRANCH  19  20
HETATM   20  N   UNL     1      19.032  49.703  51.094  1.00  0.00    -0.379 N 
HETATM   21  H   UNL     1      19.782  49.325  51.668  1.00  0.00     0.158 HD
HETATM   22  H   UNL     1      18.094  49.436  51.388  1.00  0.00     0.158 HD
ENDBRANCH  19  20
ENDBRANCH   7  15
ENDBRANCH   1   5
BRANCH   2  23
HETATM   23  N   UNL     1      24.730  45.205  50.372  1.00  0.00    -0.183 NA
HETATM   24  C   UNL     1      26.006  45.048  50.259  1.00  0.00     0.153 C 
BRANCH  24  25
HETATM   25  C   UNL     1      26.596  43.699  50.311  1.00  0.00     0.016 A 
HETATM   26  C   UNL     1      27.541  43.256  51.255  1.00  0.00     0.080 A 
HETATM   27  C   UNL     1      28.031  41.947  51.147  1.00  0.00     0.037 A 
HETATM   28  C   UNL     1      27.580  41.085  50.143  1.00  0.00     0.003 A 
HETATM   29  C   UNL     1      26.648  41.532  49.213  1.00  0.00     0.001 A 
HETATM   30  C   UNL     1      26.162  42.837  49.290  1.00  0.00     0.016 A 
BRANCH  26  31
HETATM   31  O   UNL     1      28.192  43.996  52.207  1.00  0.00    -0.346 OA
BRANCH  31  32
HETATM   32  C   UNL     1      27.674  43.927  53.534  1.00  0.00     0.219 C 
BRANCH  32  33
HETATM   33  C   UNL     1      28.789  44.134  54.527  1.00  0.00     0.026 A 
HETATM   34  C   UNL     1      28.987  45.335  55.220  1.00  0.00     0.045 A 
HETATM   35 CL   UNL     1      27.952  46.700  54.997  1.00  0.00    -0.084 Cl
HETATM   36  C   UNL     1      30.056  45.475  56.114  1.00  0.00     0.024 A 
HETATM   37  C   UNL     1      30.931  44.412  56.344  1.00  0.00     0.005 A 
HETATM   38  C   UNL     1      30.738  43.209  55.676  1.00  0.00     0.043 A 
HETATM   39  C   UNL     1      29.679  43.082  54.778  1.00  0.00     0.126 A 
HETATM   40  F   UNL     1      29.548  41.921  54.119  1.00  0.00    -0.205 F 
ENDBRANCH  32  33
ENDBRANCH  31  32
ENDBRANCH  26  31
ENDBRANCH  24  25
ENDBRANCH   2  23
TORSDOF 10
ENDMDL
MODEL 4
REMARK VINA RESULT:      -9.0      2.375      3.543
REMARK  10 active torsions:
REMARK  status: ('A' for Active; 'I' for Inactive)
REMARK    1  A    between atoms: N_2  and  C_4 
REMARK    2  A    between atoms: C_4  and  C_5 
REMARK    3  A    between atoms: N_6  and  C_7 
REMARK    4  A    between atoms: C_11  and  N_12 
REMARK    5  A    between atoms: C_15  and  C_16 
REMARK       I    between atoms: C_16  and  N_17 
REMARK    6  A    between atoms: N_17  and  N_18 
REMARK    7  A    between atoms: C_19  and  C_20 
REMARK    8  A    between atoms: C_21  and  O_22 
REMARK    9  A    between atoms: O_22  and  C_23 
REMARK   10  A    between atoms: C_23  and  C_24 
ROOT
HETATM    1  C   UNL     1      23.982  44.160  49.727  1.00  0.00     0.293 C 
HETATM    2  N   UNL     1      24.924  43.656  48.846  1.00  0.00    -0.242 N 
HETATM    3  O   UNL     1      23.700  43.669  50.818  1.00  0.00    -0.264 OA
HETATM    4  H   UNL     1      25.184  44.164  48.004  1.00  0.00     0.192 HD
ENDROOT
BRANCH   1   5
HETATM    5  C   UNL     1      23.362  45.408  49.310  1.00  0.00     0.170 A 
HETATM    6  C   UNL     1      23.881  46.684  49.478  1.00  0.00     0.096 A 
HETATM    7  N   UNL     1      22.954  47.517  48.858  1.00  0.00    -0.215 N 
HETATM    8  N   UNL     1      21.907  46.762  48.432  1.00  0.00     0.012 NA
HETATM    9  N   UNL     1      22.163  45.486  48.668  1.00  0.00    -0.152 NA
BRANCH   6  10
HETATM   10  C   UNL     1      25.088  47.136  50.212  1.00  0.00     0.295 C 
BRANCH  10  11
HETATM   11  N   UNL     1      26.319  47.319  49.355  1.00  0.00    -0.073 N 
HETATM   12  C   UNL     1      27.347  46.233  49.533  1.00  0.00     0.269 C 
HETATM   13  H   UNL     1      26.006  47.313  48.375  1.00  0.00     0.279 HD
HETATM   14  C   UNL     1      26.937  48.673  49.581  1.00  0.00     0.269 C 
ENDBRANCH  10  11
ENDBRANCH   6  10
BRANCH   7  15
HETATM   15  C   UNL     1      23.039  48.909  48.617  1.00  0.00     0.225 A 
HETATM   16  N   UNL     1      23.962  49.383  47.775  1.00  0.00    -0.081 NA
HETATM   17  O   UNL     1      23.731  50.764  47.780  1.00  0.00    -0.103 OA
HETATM   18  N   UNL     1      22.659  51.091  48.598  1.00  0.00    -0.083 NA
HETATM   19  C   UNL     1      22.227  49.941  49.115  1.00  0.00     0.201 A 
BRANCH  19  20
HETATM   20  N   UNL     1      21.198  49.828  49.968  1.00  0.00    -0.379 N 
HETATM   21  H   UNL     1      20.355  50.380  49.833  1.00  0.00     0.158 HD
HETATM   22  H   UNL     1      21.126  49.105  50.680  1.00  0.00     0.158 HD
ENDBRANCH  19  20
ENDBRANCH   7  15
ENDBRANCH   1   5
BRANCH   2  23
HETATM   23  N   UNL     1      25.589  42.533  49.212  1.00  0.00    -0.183 NA
HETATM   24  C   UNL     1      26.804  42.654  49.628  1.00  0.00     0.153 C 
BRANCH  24  25
HETATM   25  C   UNL     1      27.566  41.467  50.052  1.00  0.00     0.016 A 
HETATM   26  C   UNL     1      28.019  41.212  51.360  1.00  0.00     0.080 A 
HETATM   27  C   UNL     1      28.763  40.046  51.594  1.00  0.00     0.037 A 
HETATM   28  C   UNL     1      29.034  39.140  50.564  1.00  0.00     0.003 A 
HETATM   29  C   UNL     1      28.584  39.402  49.274  1.00  0.00     0.001 A 
HETATM   30  C   UNL     1      27.860  40.565  49.015  1.00  0.00     0.016 A 
BRANCH  26  31
HETATM   31  O   UNL     1      27.970  42.044  52.447  1.00  0.00    -0.346 OA
BRANCH  31  32
HETATM   32  C   UNL     1      29.079  42.920  52.632  1.00  0.00     0.219 C 
BRANCH  32  33
HETATM   33  C   UNL     1      28.712  44.006  53.611  1.00  0.00     0.026 A 
HETATM   34  C   UNL     1      29.401  44.224  54.811  1.00  0.00     0.045 A 
HETATM   35 CL   UNL     1      30.755  43.257  55.276  1.00  0.00    -0.084 Cl
HETATM   36  C   UNL     1      28.998  45.235  55.693  1.00  0.00     0.024 A 
HETATM   37  C   UNL     1      27.913  46.056  55.381  1.00  0.00     0.005 A 
HETATM   38  C   UNL     1      27.229  45.862  54.187  1.00  0.00     0.043 A 
HETATM   39  C   UNL     1      27.629  44.846  53.320  1.00  0.00     0.126 A 
HETATM   40  F   UNL     1      26.919  44.659  52.197  1.00  0.00    -0.205 F 
ENDBRANCH  32  33
ENDBRANCH  31  32
ENDBRANCH  26  31
ENDBRANCH  24  25
ENDBRANCH   2  23
TORSDOF 10
ENDMDL
MODEL 5
REMARK VINA RESULT:      -8.7      5.050     10.953
REMARK  10 active torsions:
REMARK  status: ('A' for Active; 'I' for Inactive)
REMARK    1  A    between atoms: N_2  and  C_4 
REMARK    2  A    between atoms: C_4  and  C_5 
REMARK    3  A    between atoms: N_6  and  C_7 
REMARK    4  A    between atoms: C_11  and  N_12 
REMARK    5  A    between atoms: C_15  and  C_16 
REMARK       I    between atoms: C_16  and  N_17 
REMARK    6  A    between atoms: N_17  and  N_18 
REMARK    7  A    between atoms: C_19  and  C_20 
REMARK    8  A    between atoms: C_21  and  O_22 
REMARK    9  A    between atoms: O_22  and  C_23 
REMARK   10  A    between atoms: C_23  and  C_24 
ROOT
HETATM    1  C   UNL     1      23.750  48.366  49.369  1.00  0.00     0.293 C 
HETATM    2  N   UNL     1      22.397  48.158  49.574  1.00  0.00    -0.242 N 
HETATM    3  O   UNL     1      24.234  49.314  48.752  1.00  0.00    -0.264 OA
HETATM    4  H   UNL     1      22.064  47.410  50.178  1.00  0.00     0.192 HD
ENDROOT
BRANCH   1   5
HETATM    5  C   UNL     1      24.623  47.400  50.016  1.00  0.00     0.170 A 
HETATM    6  C   UNL     1      24.674  46.036  49.765  1.00  0.00     0.096 A 
HETATM    7  N   UNL     1      25.704  45.574  50.580  1.00  0.00    -0.215 N 
HETATM    8  N   UNL     1      26.164  46.610  51.330  1.00  0.00     0.012 NA
HETATM    9  N   UNL     1      25.542  47.721  50.970  1.00  0.00    -0.152 NA
BRANCH   6  10
HETATM   10  C   UNL     1      23.808  45.188  48.910  1.00  0.00     0.295 C 
BRANCH  10  11
HETATM   11  N   UNL     1      22.624  44.573  49.619  1.00  0.00    -0.073 N 
HETATM   12  C   UNL     1      22.821  43.126  49.981  1.00  0.00     0.269 C 
HETATM   13  H   UNL     1      22.482  45.110  50.486  1.00  0.00     0.279 HD
HETATM   14  C   UNL     1      21.363  44.750  48.816  1.00  0.00     0.269 C 
ENDBRANCH  10  11
ENDBRANCH   6  10
BRANCH   7  15
HETATM   15  C   UNL     1      26.275  44.281  50.635  1.00  0.00     0.225 A 
HETATM   16  N   UNL     1      26.975  43.817  49.595  1.00  0.00    -0.081 NA
HETATM   17  O   UNL     1      27.385  42.547  50.015  1.00  0.00    -0.103 OA
HETATM   18  N   UNL     1      26.954  42.282  51.306  1.00  0.00    -0.083 NA
HETATM   19  C   UNL     1      26.268  43.357  51.693  1.00  0.00     0.201 A 
BRANCH  19  20
HETATM   20  N   UNL     1      25.677  43.495  52.890  1.00  0.00    -0.379 N 
HETATM   21  H   UNL     1      24.701  43.241  53.014  1.00  0.00     0.158 HD
HETATM   22  H   UNL     1      26.179  43.700  53.752  1.00  0.00     0.158 HD
ENDBRANCH  19  20
ENDBRANCH   7  15
ENDBRANCH   1   5
BRANCH   2  23
HETATM   23  N   UNL     1      21.535  49.066  49.057  1.00  0.00    -0.183 NA
HETATM   24  C   UNL     1      20.415  49.259  49.667  1.00  0.00     0.153 C 
BRANCH  24  25
HETATM   25  C   UNL     1      19.450  50.247  49.155  1.00  0.00     0.016 A 
HETATM   26  C   UNL     1      18.078  50.015  48.943  1.00  0.00     0.080 A 
HETATM   27  C   UNL     1      17.298  51.055  48.417  1.00  0.00     0.037 A 
HETATM   28  C   UNL     1      17.855  52.304  48.129  1.00  0.00     0.003 A 
HETATM   29  C   UNL     1      19.212  52.524  48.339  1.00  0.00     0.001 A 
HETATM   30  C   UNL     1      20.010  51.497  48.843  1.00  0.00     0.016 A 
BRANCH  26  31
HETATM   31  O   UNL     1      17.400  48.828  49.034  1.00  0.00    -0.346 OA
BRANCH  31  32
HETATM   32  C   UNL     1      16.706  48.397  47.865  1.00  0.00     0.219 C 
BRANCH  32  33
HETATM   33  C   UNL     1      17.562  47.424  47.096  1.00  0.00     0.026 A 
HETATM   34  C   UNL     1      18.309  47.785  45.968  1.00  0.00     0.045 A 
HETATM   35 CL   UNL     1      18.320  49.400  45.356  1.00  0.00    -0.084 Cl
HETATM   36  C   UNL     1      19.069  46.829  45.279  1.00  0.00     0.024 A 
HETATM   37  C   UNL     1      19.108  45.505  45.718  1.00  0.00     0.005 A 
HETATM   38  C   UNL     1      18.384  45.136  46.845  1.00  0.00     0.043 A 
HETATM   39  C   UNL     1      17.621  46.089  47.517  1.00  0.00     0.126 A 
HETATM   40  F   UNL     1      16.900  45.688  48.576  1.00  0.00    -0.205 F 
ENDBRANCH  32  33
ENDBRANCH  31  32
ENDBRANCH  26  31
ENDBRANCH  24  25
ENDBRANCH   2  23
TORSDOF 10
ENDMDL
MODEL 6
REMARK VINA RESULT:      -8.5      2.120      3.364
REMARK  10 active torsions:
REMARK  status: ('A' for Active; 'I' for Inactive)
REMARK    1  A    between atoms: N_2  and  C_4 
REMARK    2  A    between atoms: C_4  and  C_5 
REMARK    3  A    between atoms: N_6  and  C_7 
REMARK    4  A    between atoms: C_11  and  N_12 
REMARK    5  A    between atoms: C_15  and  C_16 
REMARK       I    between atoms: C_16  and  N_17 
REMARK    6  A    between atoms: N_17  and  N_18 
REMARK    7  A    between atoms: C_19  and  C_20 
REMARK    8  A    between atoms: C_21  and  O_22 
REMARK    9  A    between atoms: O_22  and  C_23 
REMARK   10  A    between atoms: C_23  and  C_24 
ROOT
HETATM    1  C   UNL     1      22.951  44.236  48.367  1.00  0.00     0.293 C 
HETATM    2  N   UNL     1      23.421  43.706  49.556  1.00  0.00    -0.242 N 
HETATM    3  O   UNL     1      23.450  44.041  47.260  1.00  0.00    -0.264 OA
HETATM    4  H   UNL     1      22.906  43.823  50.425  1.00  0.00     0.192 HD
ENDROOT
BRANCH   1   5
HETATM    5  C   UNL     1      21.730  45.016  48.485  1.00  0.00     0.170 A 
HETATM    6  C   UNL     1      21.622  46.397  48.398  1.00  0.00     0.096 A 
HETATM    7  N   UNL     1      20.256  46.643  48.507  1.00  0.00    -0.215 N 
HETATM    8  N   UNL     1      19.618  45.464  48.735  1.00  0.00     0.012 NA
HETATM    9  N   UNL     1      20.496  44.475  48.686  1.00  0.00    -0.152 NA
BRANCH   6  10
HETATM   10  C   UNL     1      22.677  47.435  48.302  1.00  0.00     0.295 C 
BRANCH  10  11
HETATM   11  N   UNL     1      22.990  48.143  49.599  1.00  0.00    -0.073 N 
HETATM   12  C   UNL     1      23.026  49.643  49.476  1.00  0.00     0.269 C 
HETATM   13  H   UNL     1      22.249  47.888  50.266  1.00  0.00     0.279 HD
HETATM   14  C   UNL     1      24.274  47.632  50.196  1.00  0.00     0.269 C 
ENDBRANCH  10  11
ENDBRANCH   6  10
BRANCH   7  15
HETATM   15  C   UNL     1      19.563  47.867  48.357  1.00  0.00     0.225 A 
HETATM   16  N   UNL     1      19.214  48.290  47.138  1.00  0.00    -0.081 NA
HETATM   17  O   UNL     1      18.550  49.497  47.387  1.00  0.00    -0.103 OA
HETATM   18  N   UNL     1      18.484  49.762  48.747  1.00  0.00    -0.083 NA
HETATM   19  C   UNL     1      19.110  48.752  49.350  1.00  0.00     0.201 A 
BRANCH  19  20
HETATM   20  N   UNL     1      19.268  48.636  50.677  1.00  0.00    -0.379 N 
HETATM   21  H   UNL     1      18.684  47.997  51.211  1.00  0.00     0.158 HD
HETATM   22  H   UNL     1      20.048  49.036  51.195  1.00  0.00     0.158 HD
ENDBRANCH  19  20
ENDBRANCH   7  15
ENDBRANCH   1   5
BRANCH   2  23
HETATM   23  N   UNL     1      24.515  42.909  49.500  1.00  0.00    -0.183 NA
HETATM   24  C   UNL     1      24.983  42.440  50.608  1.00  0.00     0.153 C 
BRANCH  24  25
HETATM   25  C   UNL     1      26.162  41.556  50.601  1.00  0.00     0.016 A 
HETATM   26  C   UNL     1      27.176  41.540  51.576  1.00  0.00     0.080 A 
HETATM   27  C   UNL     1      28.252  40.657  51.406  1.00  0.00     0.037 A 
HETATM   28  C   UNL     1      28.314  39.791  50.311  1.00  0.00     0.003 A 
HETATM   29  C   UNL     1      27.308  39.816  49.350  1.00  0.00     0.001 A 
HETATM   30  C   UNL     1      26.239  40.700  49.489  1.00  0.00     0.016 A 
BRANCH  26  31
HETATM   31  O   UNL     1      27.350  42.402  52.626  1.00  0.00    -0.346 OA
BRANCH  31  32
HETATM   32  C   UNL     1      28.442  43.314  52.530  1.00  0.00     0.219 C 
BRANCH  32  33
HETATM   33  C   UNL     1      28.355  44.330  53.640  1.00  0.00     0.026 A 
HETATM   34  C   UNL     1      29.269  44.389  54.700  1.00  0.00     0.045 A 
HETATM   35 CL   UNL     1      30.596  43.291  54.825  1.00  0.00    -0.084 Cl
HETATM   36  C   UNL     1      29.123  45.343  55.717  1.00  0.00     0.024 A 
HETATM   37  C   UNL     1      28.074  46.263  55.679  1.00  0.00     0.005 A 
HETATM   38  C   UNL     1      27.169  46.227  54.625  1.00  0.00     0.043 A 
HETATM   39  C   UNL     1      27.314  45.267  53.625  1.00  0.00     0.126 A 
HETATM   40  F   UNL     1      26.397  45.234  52.646  1.00  0.00    -0.205 F 
ENDBRANCH  32  33
ENDBRANCH  31  32
ENDBRANCH  26  31
ENDBRANCH  24  25
ENDBRANCH   2  23
TORSDOF 10
ENDMDL
MODEL 7
REMARK VINA RESULT:      -8.4      4.523     10.905
REMARK  10 active torsions:
REMARK  status: ('A' for Active; 'I' for Inactive)
REMARK    1  A    between atoms: N_2  and  C_4 
REMARK    2  A    between atoms: C_4  and  C_5 
REMARK    3  A    between atoms: N_6  and  C_7 
REMARK    4  A    between atoms: C_11  and  N_12 
REMARK    5  A    between atoms: C_15  and  C_16 
REMARK       I    between atoms: C_16  and  N_17 
REMARK    6  A    between atoms: N_17  and  N_18 
REMARK    7  A    between atoms: C_19  and  C_20 
REMARK    8  A    between atoms: C_21  and  O_22 
REMARK    9  A    between atoms: O_22  and  C_23 
REMARK   10  A    between atoms: C_23  and  C_24 
ROOT
HETATM    1  C   UNL     1      24.938  47.091  50.542  1.00  0.00     0.293 C 
HETATM    2  N   UNL     1      24.135  47.348  49.444  1.00  0.00    -0.242 N 
HETATM    3  O   UNL     1      24.921  47.725  51.595  1.00  0.00    -0.264 OA
HETATM    4  H   UNL     1      24.125  46.725  48.640  1.00  0.00     0.192 HD
ENDROOT
BRANCH   1   5
HETATM    5  C   UNL     1      25.797  45.925  50.410  1.00  0.00     0.170 A 
HETATM    6  C   UNL     1      25.905  44.874  51.309  1.00  0.00     0.096 A 
HETATM    7  N   UNL     1      26.794  43.991  50.702  1.00  0.00    -0.215 N 
HETATM    8  N   UNL     1      27.245  44.552  49.549  1.00  0.00     0.012 NA
HETATM    9  N   UNL     1      26.621  45.701  49.348  1.00  0.00    -0.152 NA
BRANCH   6  10
HETATM   10  C   UNL     1      25.311  44.704  52.658  1.00  0.00     0.295 C 
BRANCH  10  11
HETATM   11  N   UNL     1      26.277  44.895  53.804  1.00  0.00    -0.073 N 
HETATM   12  C   UNL     1      26.247  43.777  54.812  1.00  0.00     0.269 C 
HETATM   13  H   UNL     1      27.221  44.941  53.396  1.00  0.00     0.279 HD
HETATM   14  C   UNL     1      26.056  46.222  54.480  1.00  0.00     0.269 C 
ENDBRANCH  10  11
ENDBRANCH   6  10
BRANCH   7  15
HETATM   15  C   UNL     1      27.171  42.691  51.115  1.00  0.00     0.225 A 
HETATM   16  N   UNL     1      26.462  41.633  50.711  1.00  0.00    -0.081 NA
HETATM   17  O   UNL     1      27.130  40.550  51.294  1.00  0.00    -0.103 OA
HETATM   18  N   UNL     1      28.241  40.970  52.009  1.00  0.00    -0.083 NA
HETATM   19  C   UNL     1      28.269  42.298  51.898  1.00  0.00     0.201 A 
BRANCH  19  20
HETATM   20  N   UNL     1      29.196  43.090  52.457  1.00  0.00    -0.379 N 
HETATM   21  H   UNL     1      29.300  44.054  52.151  1.00  0.00     0.158 HD
HETATM   22  H   UNL     1      29.724  42.847  53.293  1.00  0.00     0.158 HD
ENDBRANCH  19  20
ENDBRANCH   7  15
ENDBRANCH   1   5
BRANCH   2  23
HETATM   23  N   UNL     1      23.259  48.379  49.534  1.00  0.00    -0.183 NA
HETATM   24  C   UNL     1      22.092  48.233  49.004  1.00  0.00     0.153 C 
BRANCH  24  25
HETATM   25  C   UNL     1      21.097  49.317  49.087  1.00  0.00     0.016 A 
HETATM   26  C   UNL     1      19.780  49.183  49.562  1.00  0.00     0.080 A 
HETATM   27  C   UNL     1      18.945  50.309  49.545  1.00  0.00     0.037 A 
HETATM   28  C   UNL     1      19.408  51.547  49.092  1.00  0.00     0.003 A 
HETATM   29  C   UNL     1      20.711  51.671  48.621  1.00  0.00     0.001 A 
HETATM   30  C   UNL     1      21.552  50.559  48.611  1.00  0.00     0.016 A 
BRANCH  26  31
HETATM   31  O   UNL     1      19.122  48.031  49.907  1.00  0.00    -0.346 OA
BRANCH  31  32
HETATM   32  C   UNL     1      18.045  47.633  49.062  1.00  0.00     0.219 C 
BRANCH  32  33
HETATM   33  C   UNL     1      18.572  47.290  47.693  1.00  0.00     0.026 A 
HETATM   34  C   UNL     1      19.417  46.200  47.447  1.00  0.00     0.045 A 
HETATM   35 CL   UNL     1      19.930  45.137  48.708  1.00  0.00    -0.084 Cl
HETATM   36  C   UNL     1      19.895  45.945  46.154  1.00  0.00     0.024 A 
HETATM   37  C   UNL     1      19.520  46.762  45.087  1.00  0.00     0.005 A 
HETATM   38  C   UNL     1      18.670  47.838  45.313  1.00  0.00     0.043 A 
HETATM   39  C   UNL     1      18.209  48.092  46.604  1.00  0.00     0.126 A 
HETATM   40  F   UNL     1      17.425  49.165  46.793  1.00  0.00    -0.205 F 
ENDBRANCH  32  33
ENDBRANCH  31  32
ENDBRANCH  26  31
ENDBRANCH  24  25
ENDBRANCH   2  23
TORSDOF 10
ENDMDL
MODEL 8
REMARK VINA RESULT:      -8.3      2.738      4.134
REMARK  10 active torsions:
REMARK  status: ('A' for Active; 'I' for Inactive)
REMARK    1  A    between atoms: N_2  and  C_4 
REMARK    2  A    between atoms: C_4  and  C_5 
REMARK    3  A    between atoms: N_6  and  C_7 
REMARK    4  A    between atoms: C_11  and  N_12 
REMARK    5  A    between atoms: C_15  and  C_16 
REMARK       I    between atoms: C_16  and  N_17 
REMARK    6  A    between atoms: N_17  and  N_18 
REMARK    7  A    between atoms: C_19  and  C_20 
REMARK    8  A    between atoms: C_21  and  O_22 
REMARK    9  A    between atoms: O_22  and  C_23 
REMARK   10  A    between atoms: C_23  and  C_24 
ROOT
HETATM    1  C   UNL     1      21.987  47.250  48.224  1.00  0.00     0.293 C 
HETATM    2  N   UNL     1      22.328  46.417  49.275  1.00  0.00    -0.242 N 
HETATM    3  O   UNL     1      22.091  46.965  47.033  1.00  0.00    -0.264 OA
HETATM    4  H   UNL     1      22.124  46.672  50.239  1.00  0.00     0.192 HD
ENDROOT
BRANCH   1   5
HETATM    5  C   UNL     1      21.398  48.520  48.617  1.00  0.00     0.170 A 
HETATM    6  C   UNL     1      20.059  48.874  48.524  1.00  0.00     0.096 A 
HETATM    7  N   UNL     1      19.999  50.146  49.084  1.00  0.00    -0.215 N 
HETATM    8  N   UNL     1      21.259  50.542  49.405  1.00  0.00     0.012 NA
HETATM    9  N   UNL     1      22.103  49.552  49.160  1.00  0.00    -0.152 NA
BRANCH   6  10
HETATM   10  C   UNL     1      18.921  48.152  47.903  1.00  0.00     0.295 C 
BRANCH  10  11
HETATM   11  N   UNL     1      18.353  47.028  48.738  1.00  0.00    -0.073 N 
HETATM   12  C   UNL     1      18.665  45.658  48.201  1.00  0.00     0.269 C 
HETATM   13  H   UNL     1      18.767  47.112  49.677  1.00  0.00     0.279 HD
HETATM   14  C   UNL     1      16.869  47.196  48.929  1.00  0.00     0.269 C 
ENDBRANCH  10  11
ENDBRANCH   6  10
BRANCH   7  15
HETATM   15  C   UNL     1      18.858  50.935  49.366  1.00  0.00     0.225 A 
HETATM   16  N   UNL     1      17.975  50.527  50.282  1.00  0.00    -0.081 NA
HETATM   17  O   UNL     1      17.019  51.549  50.294  1.00  0.00    -0.103 OA
HETATM   18  N   UNL     1      17.357  52.563  49.411  1.00  0.00    -0.083 NA
HETATM   19  C   UNL     1      18.498  52.186  48.836  1.00  0.00     0.201 A 
BRANCH  19  20
HETATM   20  N   UNL     1      19.157  52.897  47.910  1.00  0.00    -0.379 N 
HETATM   21  H   UNL     1      19.437  53.856  48.101  1.00  0.00     0.158 HD
HETATM   22  H   UNL     1      19.545  52.501  47.056  1.00  0.00     0.158 HD
ENDBRANCH  19  20
ENDBRANCH   7  15
ENDBRANCH   1   5
BRANCH   2  23
HETATM   23  N   UNL     1      22.815  45.190  48.971  1.00  0.00    -0.183 NA
HETATM   24  C   UNL     1      23.737  44.696  49.728  1.00  0.00     0.153 C 
BRANCH  24  25
HETATM   25  C   UNL     1      24.289  43.359  49.451  1.00  0.00     0.016 A 
HETATM   26  C   UNL     1      25.160  42.644  50.294  1.00  0.00     0.080 A 
HETATM   27  C   UNL     1      25.624  41.391  49.868  1.00  0.00     0.037 A 
HETATM   28  C   UNL     1      25.217  40.845  48.648  1.00  0.00     0.003 A 
HETATM   29  C   UNL     1      24.358  41.559  47.820  1.00  0.00     0.001 A 
HETATM   30  C   UNL     1      23.900  42.816  48.215  1.00  0.00     0.016 A 
BRANCH  26  31
HETATM   31  O   UNL     1      25.767  43.079  51.443  1.00  0.00    -0.346 OA
BRANCH  31  32
HETATM   32  C   UNL     1      26.997  43.783  51.290  1.00  0.00     0.219 C 
BRANCH  32  33
HETATM   33  C   UNL     1      27.414  44.372  52.613  1.00  0.00     0.026 A 
HETATM   34  C   UNL     1      28.537  43.937  53.328  1.00  0.00     0.045 A 
HETATM   35 CL   UNL     1      29.559  42.673  52.744  1.00  0.00    -0.084 Cl
HETATM   36  C   UNL     1      28.861  44.509  54.566  1.00  0.00     0.024 A 
HETATM   37  C   UNL     1      28.081  45.536  55.098  1.00  0.00     0.005 A 
HETATM   38  C   UNL     1      26.972  45.989  54.392  1.00  0.00     0.043 A 
HETATM   39  C   UNL     1      26.649  45.407  53.167  1.00  0.00     0.126 A 
HETATM   40  F   UNL     1      25.548  45.840  52.535  1.00  0.00    -0.205 F 
ENDBRANCH  32  33
ENDBRANCH  31  32
ENDBRANCH  26  31
ENDBRANCH  24  25
ENDBRANCH   2  23
TORSDOF 10
ENDMDL
MODEL 9
REMARK VINA RESULT:      -8.1     13.528     15.775
REMARK  10 active torsions:
REMARK  status: ('A' for Active; 'I' for Inactive)
REMARK    1  A    between atoms: N_2  and  C_4 
REMARK    2  A    between atoms: C_4  and  C_5 
REMARK    3  A    between atoms: N_6  and  C_7 
REMARK    4  A    between atoms: C_11  and  N_12 
REMARK    5  A    between atoms: C_15  and  C_16 
REMARK       I    between atoms: C_16  and  N_17 
REMARK    6  A    between atoms: N_17  and  N_18 
REMARK    7  A    between atoms: C_19  and  C_20 
REMARK    8  A    between atoms: C_21  and  O_22 
REMARK    9  A    between atoms: O_22  and  C_23 
REMARK   10  A    between atoms: C_23  and  C_24 
ROOT
HETATM    1  C   UNL     1      31.450  48.970  40.440  1.00  0.00     0.293 C 
HETATM    2  N   UNL     1      31.197  48.793  39.091  1.00  0.00    -0.242 N 
HETATM    3  O   UNL     1      30.680  48.665  41.350  1.00  0.00    -0.264 OA
HETATM    4  H   UNL     1      31.914  48.973  38.392  1.00  0.00     0.192 HD
ENDROOT
BRANCH   1   5
HETATM    5  C   UNL     1      32.770  49.493  40.751  1.00  0.00     0.170 A 
HETATM    6  C   UNL     1      33.166  50.821  40.696  1.00  0.00     0.096 A 
HETATM    7  N   UNL     1      34.483  50.807  41.147  1.00  0.00    -0.215 N 
HETATM    8  N   UNL     1      34.855  49.519  41.366  1.00  0.00     0.012 NA
HETATM    9  N   UNL     1      33.817  48.724  41.164  1.00  0.00    -0.152 NA
BRANCH   6  10
HETATM   10  C   UNL     1      32.439  52.016  40.201  1.00  0.00     0.295 C 
BRANCH  10  11
HETATM   11  N   UNL     1      31.960  52.959  41.281  1.00  0.00    -0.073 N 
HETATM   12  C   UNL     1      31.377  52.260  42.479  1.00  0.00     0.269 C 
HETATM   13  H   UNL     1      32.778  53.504  41.587  1.00  0.00     0.279 HD
HETATM   14  C   UNL     1      30.984  53.962  40.726  1.00  0.00     0.269 C 
ENDBRANCH  10  11
ENDBRANCH   6  10
BRANCH   7  15
HETATM   15  C   UNL     1      35.337  51.903  41.417  1.00  0.00     0.225 A 
HETATM   16  N   UNL     1      35.391  52.931  40.566  1.00  0.00    -0.081 NA
HETATM   17  O   UNL     1      36.307  53.805  41.163  1.00  0.00    -0.103 OA
HETATM   18  N   UNL     1      36.762  53.303  42.373  1.00  0.00    -0.083 NA
HETATM   19  C   UNL     1      36.160  52.125  42.533  1.00  0.00     0.201 A 
BRANCH  19  20
HETATM   20  N   UNL     1      36.339  51.314  43.587  1.00  0.00    -0.379 N 
HETATM   21  H   UNL     1      35.645  50.608  43.816  1.00  0.00     0.158 HD
HETATM   22  H   UNL     1      37.211  51.242  44.109  1.00  0.00     0.158 HD
ENDBRANCH  19  20
ENDBRANCH   7  15
ENDBRANCH   1   5
BRANCH   2  23
HETATM   23  N   UNL     1      30.009  48.242  38.741  1.00  0.00    -0.183 NA
HETATM   24  C   UNL     1      29.939  46.957  38.648  1.00  0.00     0.153 C 
BRANCH  24  25
HETATM   25  C   UNL     1      28.668  46.306  38.286  1.00  0.00     0.016 A 
HETATM   26  C   UNL     1      27.454  46.441  38.983  1.00  0.00     0.080 A 
HETATM   27  C   UNL     1      26.337  45.725  38.527  1.00  0.00     0.037 A 
HETATM   28  C   UNL     1      26.412  44.913  37.392  1.00  0.00     0.003 A 
HETATM   29  C   UNL     1      27.618  44.782  36.711  1.00  0.00     0.001 A 
HETATM   30  C   UNL     1      28.745  45.470  37.159  1.00  0.00     0.016 A 
BRANCH  26  31
HETATM   31  O   UNL     1      27.234  47.073  40.179  1.00  0.00    -0.346 OA
BRANCH  31  32
HETATM   32  C   UNL     1      26.264  48.118  40.180  1.00  0.00     0.219 C 
BRANCH  32  33
HETATM   33  C   UNL     1      26.927  49.428  39.836  1.00  0.00     0.026 A 
HETATM   34  C   UNL     1      26.910  49.982  38.550  1.00  0.00     0.045 A 
HETATM   35 CL   UNL     1      26.110  49.206  37.230  1.00  0.00    -0.084 Cl
HETATM   36  C   UNL     1      27.565  51.193  38.286  1.00  0.00     0.024 A 
HETATM   37  C   UNL     1      28.229  51.875  39.305  1.00  0.00     0.005 A 
HETATM   38  C   UNL     1      28.242  51.345  40.590  1.00  0.00     0.043 A 
HETATM   39  C   UNL     1      27.599  50.134  40.842  1.00  0.00     0.126 A 
HETATM   40  F   UNL     1      27.668  49.631  42.084  1.00  0.00    -0.205 F 
ENDBRANCH  32  33
ENDBRANCH  31  32
ENDBRANCH  26  31
ENDBRANCH  24  25
ENDBRANCH   2  23
TORSDOF 10
ENDMDL
MODEL 10
REMARK VINA RESULT:      -8.1     13.338     16.255
REMARK  10 active torsions:
REMARK  status: ('A' for Active; 'I' for Inactive)
REMARK    1  A    between atoms: N_2  and  C_4 
REMARK    2  A    between atoms: C_4  and  C_5 
REMARK    3  A    between atoms: N_6  and  C_7 
REMARK    4  A    between atoms: C_11  and  N_12 
REMARK    5  A    between atoms: C_15  and  C_16 
REMARK       I    between atoms: C_16  and  N_17 
REMARK    6  A    between atoms: N_17  and  N_18 
REMARK    7  A    between atoms: C_19  and  C_20 
REMARK    8  A    between atoms: C_21  and  O_22 
REMARK    9  A    between atoms: O_22  and  C_23 
REMARK   10  A    between atoms: C_23  and  C_24 
ROOT
HETATM    1  C   UNL     1      32.684  50.680  42.331  1.00  0.00     0.293 C 
HETATM    2  N   UNL     1      32.630  49.302  42.455  1.00  0.00    -0.242 N 
HETATM    3  O   UNL     1      31.744  51.397  41.992  1.00  0.00    -0.264 OA
HETATM    4  H   UNL     1      33.413  48.776  42.836  1.00  0.00     0.192 HD
ENDROOT
BRANCH   1   5
HETATM    5  C   UNL     1      33.953  51.279  42.712  1.00  0.00     0.170 A 
HETATM    6  C   UNL     1      35.149  51.195  42.014  1.00  0.00     0.096 A 
HETATM    7  N   UNL     1      36.032  51.982  42.747  1.00  0.00    -0.215 N 
HETATM    8  N   UNL     1      35.397  52.427  43.863  1.00  0.00     0.012 NA
HETATM    9  N   UNL     1      34.132  52.037  43.830  1.00  0.00    -0.152 NA
BRANCH   6  10
HETATM   10  C   UNL     1      35.499  50.400  40.811  1.00  0.00     0.295 C 
BRANCH  10  11
HETATM   11  N   UNL     1      35.403  51.152  39.504  1.00  0.00    -0.073 N 
HETATM   12  C   UNL     1      36.738  51.452  38.879  1.00  0.00     0.269 C 
HETATM   13  H   UNL     1      34.865  50.559  38.856  1.00  0.00     0.279 HD
HETATM   14  C   UNL     1      34.599  52.415  39.667  1.00  0.00     0.269 C 
ENDBRANCH  10  11
ENDBRANCH   6  10
BRANCH   7  15
HETATM   15  C   UNL     1      37.358  52.357  42.425  1.00  0.00     0.225 A 
HETATM   16  N   UNL     1      38.368  51.520  42.682  1.00  0.00    -0.081 NA
HETATM   17  O   UNL     1      39.494  52.213  42.222  1.00  0.00    -0.103 OA
HETATM   18  N   UNL     1      39.140  53.436  41.672  1.00  0.00    -0.083 NA
HETATM   19  C   UNL     1      37.817  53.526  41.795  1.00  0.00     0.201 A 
BRANCH  19  20
HETATM   20  N   UNL     1      37.082  54.570  41.384  1.00  0.00    -0.379 N 
HETATM   21  H   UNL     1      36.153  54.425  40.998  1.00  0.00     0.158 HD
HETATM   22  H   UNL     1      37.322  55.543  41.568  1.00  0.00     0.158 HD
ENDBRANCH  19  20
ENDBRANCH   7  15
ENDBRANCH   1   5
BRANCH   2  23
HETATM   23  N   UNL     1      31.452  48.692  42.183  1.00  0.00    -0.183 NA
HETATM   24  C   UNL     1      31.129  48.515  40.946  1.00  0.00     0.153 C 
BRANCH  24  25
HETATM   25  C   UNL     1      29.866  47.842  40.596  1.00  0.00     0.016 A 
HETATM   26  C   UNL     1      28.578  48.295  40.935  1.00  0.00     0.080 A 
HETATM   27  C   UNL     1      27.474  47.519  40.554  1.00  0.00     0.037 A 
HETATM   28  C   UNL     1      27.637  46.333  39.832  1.00  0.00     0.003 A 
HETATM   29  C   UNL     1      28.914  45.891  39.504  1.00  0.00     0.001 A 
HETATM   30  C   UNL     1      30.027  46.638  39.891  1.00  0.00     0.016 A 
BRANCH  26  31
HETATM   31  O   UNL     1      28.240  49.345  41.748  1.00  0.00    -0.346 OA
BRANCH  31  32
HETATM   32  C   UNL     1      27.242  50.238  41.258  1.00  0.00     0.219 C 
BRANCH  32  33
HETATM   33  C   UNL     1      27.877  51.263  40.353  1.00  0.00     0.026 A 
HETATM   34  C   UNL     1      27.773  51.223  38.957  1.00  0.00     0.045 A 
HETATM   35 CL   UNL     1      26.893  49.981  38.140  1.00  0.00    -0.084 Cl
HETATM   36  C   UNL     1      28.405  52.193  38.167  1.00  0.00     0.024 A 
HETATM   37  C   UNL     1      29.132  53.226  38.759  1.00  0.00     0.005 A 
HETATM   38  C   UNL     1      29.231  53.287  40.144  1.00  0.00     0.043 A 
HETATM   39  C   UNL     1      28.609  52.312  40.923  1.00  0.00     0.126 A 
HETATM   40  F   UNL     1      28.761  52.378  42.255  1.00  0.00    -0.205 F 
ENDBRANCH  32  33
ENDBRANCH  31  32
ENDBRANCH  26  31
ENDBRANCH  24  25
ENDBRANCH   2  23
TORSDOF 10
ENDMDL
