MODEL 1
REMARK VINA RESULT:      -9.5      0.000      0.000
REMARK  10 active torsions:
REMARK  status: ('A' for Active; 'I' for Inactive)
REMARK    1  A    between atoms: O_2  and  C_3 
REMARK    2  A    between atoms: C_3  and  C_4 
REMARK    3  A    between atoms: C_8  and  N_9 
REMARK       I    between atoms: N_9  and  C_10 
REMARK    4  A    between atoms: C_10  and  C_11 
REMARK    5  A    between atoms: C_12  and  C_13 
REMARK    6  A    between atoms: C_22  and  C_23 
REMARK    7  A    between atoms: C_23  and  N_24 
REMARK    8  A    between atoms: C_26  and  C_27 
REMARK    9  A    between atoms: C_27  and  C_28 
REMARK   10  A    between atoms: C_28  and  O_29 
ROOT
HETATM    1  C   UNL     1      25.155  48.503  49.141  1.00  0.00     0.110 C 
HETATM    2  S   UNL     1      26.720  47.823  49.272  1.00  0.00    -0.061 SA
HETATM    3  C   UNL     1      26.129  46.415  50.009  1.00  0.00     0.111 A 
HETATM    4  C   UNL     1      24.750  46.440  50.191  1.00  0.00     0.028 A 
HETATM    5  C   UNL     1      24.169  47.623  49.585  1.00  0.00     0.071 C 
HETATM    6  N   UNL     1      26.987  45.434  50.380  1.00  0.00    -0.243 NA
HETATM    7  C   UNL     1      26.404  44.395  51.028  1.00  0.00     0.061 A 
HETATM    8  C   UNL     1      25.054  44.319  51.329  1.00  0.00     0.030 A 
HETATM    9  C   UNL     1      24.219  45.356  50.926  1.00  0.00     0.019 A 
ENDROOT
BRANCH   5  10
HETATM   10  N   UNL     1      22.812  47.957  49.454  1.00  0.00    -0.321 N 
HETATM   11  C   UNL     1      22.013  47.668  48.369  1.00  0.00     0.245 C 
HETATM   12  O   UNL     1      22.372  47.133  47.327  1.00  0.00    -0.268 OA
HETATM   13  H   UNL     1      22.462  48.646  50.120  1.00  0.00     0.169 HD
BRANCH  11  14
HETATM   14  C   UNL     1      20.609  48.135  48.548  1.00  0.00     0.075 C 
HETATM   15  C   UNL     1      20.383  49.446  48.732  1.00  0.00     0.017 C 
BRANCH  15  16
HETATM   16  C   UNL     1      19.075  50.101  48.918  1.00  0.00    -0.036 A 
HETATM   17  C   UNL     1      17.874  49.598  48.399  1.00  0.00     0.014 A 
HETATM   18  C   UNL     1      16.670  50.283  48.597  1.00  0.00     0.043 A 
HETATM   19  C   UNL     1      16.666  51.476  49.309  1.00  0.00     0.116 A 
HETATM   20  F   UNL     1      15.513  52.131  49.493  1.00  0.00    -0.206 F 
HETATM   21  C   UNL     1      17.842  51.998  49.826  1.00  0.00     0.043 A 
HETATM   22  C   UNL     1      19.043  51.313  49.630  1.00  0.00     0.014 A 
ENDBRANCH  15  16
ENDBRANCH  11  14
ENDBRANCH   5  10
BRANCH   1  23
HETATM   23  C   UNL     1      24.935  49.827  48.576  1.00  0.00     0.302 C 
HETATM   24  O   UNL     1      25.530  50.249  47.589  1.00  0.00    -0.259 OA
BRANCH  23  25
HETATM   25  O   UNL     1      23.986  50.528  49.258  1.00  0.00    -0.322 OA
HETATM   26  C   UNL     1      23.149  51.343  48.433  1.00  0.00     0.213 C 
ENDBRANCH  23  25
ENDBRANCH   1  23
BRANCH   7  27
HETATM   27  C   UNL     1      27.298  43.225  51.377  1.00  0.00     0.294 C 
BRANCH  27  28
HETATM   28  N   UNL     1      28.378  43.532  52.410  1.00  0.00    -0.061 N 
HETATM   29  H   UNL     1      28.874  44.327  51.975  1.00  0.00     0.280 HD
HETATM   30  C   UNL     1      27.870  44.081  53.749  1.00  0.00     0.190 C 
HETATM   31  C   UNL     1      29.098  44.452  54.594  1.00  0.00     0.033 C 
HETATM   32  C   UNL     1      30.066  43.288  54.772  1.00  0.00     0.004 C 
HETATM   33  C   UNL     1      30.518  42.759  53.418  1.00  0.00     0.028 C 
HETATM   34  C   UNL     1      29.345  42.381  52.531  1.00  0.00     0.235 C 
BRANCH  30  35
HETATM   35  C   UNL     1      26.895  43.107  54.423  1.00  0.00     0.059 C 
BRANCH  35  36
HETATM   36  C   UNL     1      25.805  43.802  55.233  1.00  0.00     0.166 C 
BRANCH  36  37
HETATM   37  O   UNL     1      24.638  43.842  54.429  1.00  0.00    -0.401 OA
HETATM   38  H   UNL     1      24.358  42.923  54.260  1.00  0.00     0.209 HD
ENDBRANCH  36  37
ENDBRANCH  35  36
ENDBRANCH  30  35
ENDBRANCH  27  28
ENDBRANCH   7  27
TORSDOF 10
ENDMDL
MODEL 2
REMARK VINA RESULT:      -9.1      4.128     10.650
REMARK  10 active torsions:
REMARK  status: ('A' for Active; 'I' for Inactive)
REMARK    1  A    between atoms: O_2  and  C_3 
REMARK    2  A    between atoms: C_3  and  C_4 
REMARK    3  A    between atoms: C_8  and  N_9 
REMARK       I    between atoms: N_9  and  C_10 
REMARK    4  A    between atoms: C_10  and  C_11 
REMARK    5  A    between atoms: C_12  and  C_13 
REMARK    6  A    between atoms: C_22  and  C_23 
REMARK    7  A    between atoms: C_23  and  N_24 
REMARK    8  A    between atoms: C_26  and  C_27 
REMARK    9  A    between atoms: C_27  and  C_28 
REMARK   10  A    between atoms: C_28  and  O_29 
ROOT
HETATM    1  C   UNL     1      24.633  43.270  48.914  1.00  0.00     0.110 C 
HETATM    2  S   UNL     1      23.400  43.660  47.793  1.00  0.00    -0.061 SA
HETATM    3  C   UNL     1      23.330  45.272  48.315  1.00  0.00     0.111 A 
HETATM    4  C   UNL     1      24.215  45.540  49.355  1.00  0.00     0.028 A 
HETATM    5  C   UNL     1      25.051  44.388  49.633  1.00  0.00     0.071 C 
HETATM    6  N   UNL     1      22.451  46.131  47.744  1.00  0.00    -0.243 NA
HETATM    7  C   UNL     1      22.436  47.368  48.299  1.00  0.00     0.061 A 
HETATM    8  C   UNL     1      23.218  47.752  49.376  1.00  0.00     0.030 A 
HETATM    9  C   UNL     1      24.103  46.829  49.924  1.00  0.00     0.019 A 
ENDROOT
BRANCH   5  10
HETATM   10  N   UNL     1      26.133  44.293  50.524  1.00  0.00    -0.321 N 
HETATM   11  C   UNL     1      26.040  44.215  51.896  1.00  0.00     0.245 C 
HETATM   12  O   UNL     1      25.012  44.279  52.558  1.00  0.00    -0.268 OA
HETATM   13  H   UNL     1      27.048  44.512  50.129  1.00  0.00     0.169 HD
BRANCH  11  14
HETATM   14  C   UNL     1      27.372  44.096  52.556  1.00  0.00     0.075 C 
HETATM   15  C   UNL     1      27.480  44.417  53.856  1.00  0.00     0.017 C 
BRANCH  15  16
HETATM   16  C   UNL     1      28.699  44.359  54.683  1.00  0.00    -0.036 A 
HETATM   17  C   UNL     1      29.124  45.405  55.515  1.00  0.00     0.014 A 
HETATM   18  C   UNL     1      30.304  45.289  56.257  1.00  0.00     0.043 A 
HETATM   19  C   UNL     1      31.065  44.130  56.165  1.00  0.00     0.116 A 
HETATM   20  F   UNL     1      32.196  44.025  56.874  1.00  0.00    -0.206 F 
HETATM   21  C   UNL     1      30.670  43.085  55.344  1.00  0.00     0.043 A 
HETATM   22  C   UNL     1      29.491  43.200  54.605  1.00  0.00     0.014 A 
ENDBRANCH  15  16
ENDBRANCH  11  14
ENDBRANCH   5  10
BRANCH   1  23
HETATM   23  C   UNL     1      25.177  41.924  49.023  1.00  0.00     0.302 C 
HETATM   24  O   UNL     1      25.666  41.313  48.078  1.00  0.00    -0.259 OA
BRANCH  23  25
HETATM   25  O   UNL     1      25.097  41.436  50.293  1.00  0.00    -0.322 OA
HETATM   26  C   UNL     1      26.201  40.613  50.679  1.00  0.00     0.213 C 
ENDBRANCH  23  25
ENDBRANCH   1  23
BRANCH   7  27
HETATM   27  C   UNL     1      21.545  48.397  47.638  1.00  0.00     0.294 C 
BRANCH  27  28
HETATM   28  N   UNL     1      20.210  48.631  48.337  1.00  0.00    -0.061 N 
HETATM   29  H   UNL     1      19.976  47.684  48.679  1.00  0.00     0.280 HD
HETATM   30  C   UNL     1      20.274  49.491  49.605  1.00  0.00     0.190 C 
HETATM   31  C   UNL     1      18.872  49.498  50.233  1.00  0.00     0.033 C 
HETATM   32  C   UNL     1      17.794  49.967  49.263  1.00  0.00     0.004 C 
HETATM   33  C   UNL     1      17.789  49.103  48.011  1.00  0.00     0.028 C 
HETATM   34  C   UNL     1      19.154  49.050  47.347  1.00  0.00     0.235 C 
BRANCH  30  35
HETATM   35  C   UNL     1      20.855  50.881  49.313  1.00  0.00     0.059 C 
BRANCH  35  36
HETATM   36  C   UNL     1      22.190  51.139  50.004  1.00  0.00     0.166 C 
BRANCH  36  37
HETATM   37  O   UNL     1      21.973  51.036  51.401  1.00  0.00    -0.401 OA
HETATM   38  H   UNL     1      22.545  51.691  51.843  1.00  0.00     0.209 HD
ENDBRANCH  36  37
ENDBRANCH  35  36
ENDBRANCH  30  35
ENDBRANCH  27  28
ENDBRANCH   7  27
TORSDOF 10
ENDMDL
MODEL 3
REMARK VINA RESULT:      -8.9      4.244     10.848
REMARK  10 active torsions:
REMARK  status: ('A' for Active; 'I' for Inactive)
REMARK    1  A    between atoms: O_2  and  C_3 
REMARK    2  A    between atoms: C_3  and  C_4 
REMARK    3  A    between atoms: C_8  and  N_9 
REMARK       I    between atoms: N_9  and  C_10 
REMARK    4  A    between atoms: C_10  and  C_11 
REMARK    5  A    between atoms: C_12  and  C_13 
REMARK    6  A    between atoms: C_22  and  C_23 
REMARK    7  A    between atoms: C_23  and  N_24 
REMARK    8  A    between atoms: C_26  and  C_27 
REMARK    9  A    between atoms: C_27  and  C_28 
REMARK   10  A    between atoms: C_28  and  O_29 
ROOT
HETATM    1  C   UNL     1      24.259  44.038  48.943  1.00  0.00     0.110 C 
HETATM    2  S   UNL     1      23.030  44.577  47.880  1.00  0.00    -0.061 SA
HETATM    3  C   UNL     1      23.180  46.184  48.401  1.00  0.00     0.111 A 
HETATM    4  C   UNL     1      24.138  46.340  49.398  1.00  0.00     0.028 A 
HETATM    5  C   UNL     1      24.842  45.095  49.639  1.00  0.00     0.071 C 
HETATM    6  N   UNL     1      22.384  47.145  47.871  1.00  0.00    -0.243 NA
HETATM    7  C   UNL     1      22.545  48.372  48.422  1.00  0.00     0.061 A 
HETATM    8  C   UNL     1      23.417  48.656  49.461  1.00  0.00     0.030 A 
HETATM    9  C   UNL     1      24.209  47.631  49.968  1.00  0.00     0.019 A 
ENDROOT
BRANCH   5  10
HETATM   10  N   UNL     1      25.945  44.867  50.477  1.00  0.00    -0.321 N 
HETATM   11  C   UNL     1      25.931  44.909  51.855  1.00  0.00     0.245 C 
HETATM   12  O   UNL     1      24.977  45.211  52.561  1.00  0.00    -0.268 OA
HETATM   13  H   UNL     1      26.857  44.884  50.019  1.00  0.00     0.169 HD
BRANCH  11  14
HETATM   14  C   UNL     1      27.260  44.595  52.453  1.00  0.00     0.075 C 
HETATM   15  C   UNL     1      27.438  44.790  53.770  1.00  0.00     0.017 C 
BRANCH  15  16
HETATM   16  C   UNL     1      28.666  44.534  54.543  1.00  0.00    -0.036 A 
HETATM   17  C   UNL     1      29.428  43.362  54.426  1.00  0.00     0.014 A 
HETATM   18  C   UNL     1      30.573  43.176  55.208  1.00  0.00     0.043 A 
HETATM   19  C   UNL     1      30.956  44.157  56.113  1.00  0.00     0.116 A 
HETATM   20  F   UNL     1      32.051  43.973  56.863  1.00  0.00    -0.206 F 
HETATM   21  C   UNL     1      30.216  45.321  56.253  1.00  0.00     0.043 A 
HETATM   22  C   UNL     1      29.074  45.508  55.471  1.00  0.00     0.014 A 
ENDBRANCH  15  16
ENDBRANCH  11  14
ENDBRANCH   5  10
BRANCH   1  23
HETATM   23  C   UNL     1      24.641  42.636  49.030  1.00  0.00     0.302 C 
HETATM   24  O   UNL     1      24.881  41.938  48.049  1.00  0.00    -0.259 OA
BRANCH  23  25
HETATM   25  O   UNL     1      24.719  42.200  50.318  1.00  0.00    -0.322 OA
HETATM   26  C   UNL     1      25.822  41.328  50.580  1.00  0.00     0.213 C 
ENDBRANCH  23  25
ENDBRANCH   1  23
BRANCH   7  27
HETATM   27  C   UNL     1      21.754  49.504  47.802  1.00  0.00     0.294 C 
BRANCH  27  28
HETATM   28  N   UNL     1      20.770  50.188  48.745  1.00  0.00    -0.061 N 
HETATM   29  H   UNL     1      21.402  50.695  49.387  1.00  0.00     0.280 HD
HETATM   30  C   UNL     1      19.907  51.286  48.110  1.00  0.00     0.190 C 
HETATM   31  C   UNL     1      19.090  51.941  49.233  1.00  0.00     0.033 C 
HETATM   32  C   UNL     1      18.263  50.935  50.026  1.00  0.00     0.004 C 
HETATM   33  C   UNL     1      19.158  49.852  50.610  1.00  0.00     0.028 C 
HETATM   34  C   UNL     1      20.000  49.170  49.546  1.00  0.00     0.235 C 
BRANCH  30  35
HETATM   35  C   UNL     1      19.075  50.743  46.942  1.00  0.00     0.059 C 
BRANCH  35  36
HETATM   36  C   UNL     1      17.969  51.691  46.490  1.00  0.00     0.166 C 
BRANCH  36  37
HETATM   37  O   UNL     1      16.732  51.030  46.696  1.00  0.00    -0.401 OA
HETATM   38  H   UNL     1      16.478  50.600  45.858  1.00  0.00     0.209 HD
ENDBRANCH  36  37
ENDBRANCH  35  36
ENDBRANCH  30  35
ENDBRANCH  27  28
ENDBRANCH   7  27
TORSDOF 10
ENDMDL
MODEL 4
REMARK VINA RESULT:      -8.4      3.813      5.592
REMARK  10 active torsions:
REMARK  status: ('A' for Active; 'I' for Inactive)
REMARK    1  A    between atoms: O_2  and  C_3 
REMARK    2  A    between atoms: C_3  and  C_4 
REMARK    3  A    between atoms: C_8  and  N_9 
REMARK       I    between atoms: N_9  and  C_10 
REMARK    4  A    between atoms: C_10  and  C_11 
REMARK    5  A    between atoms: C_12  and  C_13 
REMARK    6  A    between atoms: C_22  and  C_23 
REMARK    7  A    between atoms: C_23  and  N_24 
REMARK    8  A    between atoms: C_26  and  C_27 
REMARK    9  A    between atoms: C_27  and  C_28 
REMARK   10  A    between atoms: C_28  and  O_29 
ROOT
HETATM    1  C   UNL     1      26.468  45.971  52.942  1.00  0.00     0.110 C 
HETATM    2  S   UNL     1      27.400  44.670  53.551  1.00  0.00    -0.061 SA
HETATM    3  C   UNL     1      27.218  43.772  52.124  1.00  0.00     0.111 A 
HETATM    4  C   UNL     1      26.435  44.422  51.175  1.00  0.00     0.028 A 
HETATM    5  C   UNL     1      26.083  45.757  51.619  1.00  0.00     0.071 C 
HETATM    6  N   UNL     1      27.782  42.544  52.021  1.00  0.00    -0.243 NA
HETATM    7  C   UNL     1      27.501  41.895  50.864  1.00  0.00     0.061 A 
HETATM    8  C   UNL     1      26.688  42.398  49.862  1.00  0.00     0.030 A 
HETATM    9  C   UNL     1      26.133  43.663  50.022  1.00  0.00     0.019 A 
ENDROOT
BRANCH   5  10
HETATM   10  N   UNL     1      25.405  46.761  50.909  1.00  0.00    -0.321 N 
HETATM   11  C   UNL     1      25.883  47.423  49.798  1.00  0.00     0.245 C 
HETATM   12  O   UNL     1      26.991  47.288  49.295  1.00  0.00    -0.268 OA
HETATM   13  H   UNL     1      24.598  47.166  51.383  1.00  0.00     0.169 HD
BRANCH  11  14
HETATM   14  C   UNL     1      24.910  48.417  49.260  1.00  0.00     0.075 C 
HETATM   15  C   UNL     1      23.609  48.275  49.561  1.00  0.00     0.017 C 
BRANCH  15  16
HETATM   16  C   UNL     1      22.503  49.151  49.136  1.00  0.00    -0.036 A 
HETATM   17  C   UNL     1      21.202  48.693  48.882  1.00  0.00     0.014 A 
HETATM   18  C   UNL     1      20.204  49.579  48.460  1.00  0.00     0.043 A 
HETATM   19  C   UNL     1      20.506  50.924  48.286  1.00  0.00     0.116 A 
HETATM   20  F   UNL     1      19.549  51.768  47.878  1.00  0.00    -0.206 F 
HETATM   21  C   UNL     1      21.786  51.401  48.523  1.00  0.00     0.043 A 
HETATM   22  C   UNL     1      22.781  50.516  48.946  1.00  0.00     0.014 A 
ENDBRANCH  15  16
ENDBRANCH  11  14
ENDBRANCH   5  10
BRANCH   1  23
HETATM   23  C   UNL     1      26.185  47.156  53.739  1.00  0.00     0.302 C 
HETATM   24  O   UNL     1      25.299  47.960  53.466  1.00  0.00    -0.259 OA
BRANCH  23  25
HETATM   25  O   UNL     1      27.001  47.253  54.826  1.00  0.00    -0.322 OA
HETATM   26  C   UNL     1      26.622  48.269  55.759  1.00  0.00     0.213 C 
ENDBRANCH  23  25
ENDBRANCH   1  23
BRANCH   7  27
HETATM   27  C   UNL     1      28.186  40.562  50.651  1.00  0.00     0.294 C 
BRANCH  27  28
HETATM   28  N   UNL     1      27.886  39.896  49.312  1.00  0.00    -0.061 N 
HETATM   29  H   UNL     1      27.975  40.687  48.653  1.00  0.00     0.280 HD
HETATM   30  C   UNL     1      28.932  38.881  48.835  1.00  0.00     0.190 C 
HETATM   31  C   UNL     1      28.528  38.427  47.424  1.00  0.00     0.033 C 
HETATM   32  C   UNL     1      27.109  37.875  47.365  1.00  0.00     0.004 C 
HETATM   33  C   UNL     1      26.113  38.906  47.875  1.00  0.00     0.028 C 
HETATM   34  C   UNL     1      26.464  39.400  49.267  1.00  0.00     0.235 C 
BRANCH  30  35
HETATM   35  C   UNL     1      29.114  37.743  49.848  1.00  0.00     0.059 C 
BRANCH  35  36
HETATM   36  C   UNL     1      30.363  37.894  50.711  1.00  0.00     0.166 C 
BRANCH  36  37
HETATM   37  O   UNL     1      31.416  38.322  49.864  1.00  0.00    -0.401 OA
HETATM   38  H   UNL     1      32.254  38.227  50.355  1.00  0.00     0.209 HD
ENDBRANCH  36  37
ENDBRANCH  35  36
ENDBRANCH  30  35
ENDBRANCH  27  28
ENDBRANCH   7  27
TORSDOF 10
ENDMDL
MODEL 5
REMARK VINA RESULT:      -8.2      5.580      9.927
REMARK  10 active torsions:
REMARK  status: ('A' for Active; 'I' for Inactive)
REMARK    1  A    between atoms: O_2  and  C_3 
REMARK    2  A    between atoms: C_3  and  C_4 
REMARK    3  A    between atoms: C_8  and  N_9 
REMARK       I    between atoms: N_9  and  C_10 
REMARK    4  A    between atoms: C_10  and  C_11 
REMARK    5  A    between atoms: C_12  and  C_13 
REMARK    6  A    between atoms: C_22  and  C_23 
REMARK    7  A    between atoms: C_23  and  N_24 
REMARK    8  A    between atoms: C_26  and  C_27 
REMARK    9  A    between atoms: C_27  and  C_28 
REMARK   10  A    between atoms: C_28  and  O_29 
ROOT
HETATM    1  C   UNL     1      24.882  45.876  50.427  1.00  0.00     0.110 C 
HETATM    2  S   UNL     1      23.899  45.505  49.076  1.00  0.00    -0.061 SA
HETATM    3  C   UNL     1      24.258  43.851  49.173  1.00  0.00     0.111 A 
HETATM    4  C   UNL     1      25.141  43.551  50.206  1.00  0.00     0.028 A 
HETATM    5  C   UNL     1      25.423  44.728  51.004  1.00  0.00     0.071 C 
HETATM    6  N   UNL     1      23.723  42.988  48.275  1.00  0.00    -0.243 NA
HETATM    7  C   UNL     1      24.146  41.707  48.409  1.00  0.00     0.061 A 
HETATM    8  C   UNL     1      25.067  41.281  49.353  1.00  0.00     0.030 A 
HETATM    9  C   UNL     1      25.585  42.210  50.249  1.00  0.00     0.019 A 
ENDROOT
BRANCH   5  10
HETATM   10  N   UNL     1      26.169  44.818  52.190  1.00  0.00    -0.321 N 
HETATM   11  C   UNL     1      25.709  44.519  53.455  1.00  0.00     0.245 C 
HETATM   12  O   UNL     1      24.567  44.191  53.752  1.00  0.00    -0.268 OA
HETATM   13  H   UNL     1      27.041  45.344  52.123  1.00  0.00     0.169 HD
BRANCH  11  14
HETATM   14  C   UNL     1      26.756  44.693  54.503  1.00  0.00     0.075 C 
HETATM   15  C   UNL     1      27.960  44.128  54.312  1.00  0.00     0.017 C 
BRANCH  15  16
HETATM   16  C   UNL     1      29.119  44.192  55.220  1.00  0.00    -0.036 A 
HETATM   17  C   UNL     1      29.371  45.267  56.084  1.00  0.00     0.014 A 
HETATM   18  C   UNL     1      30.505  45.270  56.904  1.00  0.00     0.043 A 
HETATM   19  C   UNL     1      31.392  44.203  56.858  1.00  0.00     0.116 A 
HETATM   20  F   UNL     1      32.478  44.212  57.642  1.00  0.00    -0.206 F 
HETATM   21  C   UNL     1      31.170  43.131  56.007  1.00  0.00     0.043 A 
HETATM   22  C   UNL     1      30.037  43.127  55.189  1.00  0.00     0.014 A 
ENDBRANCH  15  16
ENDBRANCH  11  14
ENDBRANCH   5  10
BRANCH   1  23
HETATM   23  C   UNL     1      25.056  47.242  50.901  1.00  0.00     0.302 C 
HETATM   24  O   UNL     1      25.043  47.553  52.088  1.00  0.00    -0.259 OA
BRANCH  23  25
HETATM   25  O   UNL     1      25.252  48.122  49.880  1.00  0.00    -0.322 OA
HETATM   26  C   UNL     1      26.618  48.277  49.489  1.00  0.00     0.213 C 
ENDBRANCH  23  25
ENDBRANCH   1  23
BRANCH   7  27
HETATM   27  C   UNL     1      23.506  40.682  47.498  1.00  0.00     0.294 C 
BRANCH  27  28
HETATM   28  N   UNL     1      23.734  40.920  46.008  1.00  0.00    -0.061 N 
HETATM   29  H   UNL     1      23.237  41.812  45.853  1.00  0.00     0.280 HD
HETATM   30  C   UNL     1      25.185  41.213  45.605  1.00  0.00     0.190 C 
HETATM   31  C   UNL     1      25.189  41.555  44.107  1.00  0.00     0.033 C 
HETATM   32  C   UNL     1      24.554  40.465  43.251  1.00  0.00     0.004 C 
HETATM   33  C   UNL     1      23.129  40.190  43.708  1.00  0.00     0.028 C 
HETATM   34  C   UNL     1      23.058  39.852  45.187  1.00  0.00     0.235 C 
BRANCH  30  35
HETATM   35  C   UNL     1      26.123  40.067  46.005  1.00  0.00     0.059 C 
BRANCH  35  36
HETATM   36  C   UNL     1      27.592  40.473  46.053  1.00  0.00     0.166 C 
BRANCH  36  37
HETATM   37  O   UNL     1      27.698  41.585  46.927  1.00  0.00    -0.401 OA
HETATM   38  H   UNL     1      28.646  41.761  47.076  1.00  0.00     0.209 HD
ENDBRANCH  36  37
ENDBRANCH  35  36
ENDBRANCH  30  35
ENDBRANCH  27  28
ENDBRANCH   7  27
TORSDOF 10
ENDMDL
MODEL 6
REMARK VINA RESULT:      -8.2      4.458     10.901
REMARK  10 active torsions:
REMARK  status: ('A' for Active; 'I' for Inactive)
REMARK    1  A    between atoms: O_2  and  C_3 
REMARK    2  A    between atoms: C_3  and  C_4 
REMARK    3  A    between atoms: C_8  and  N_9 
REMARK       I    between atoms: N_9  and  C_10 
REMARK    4  A    between atoms: C_10  and  C_11 
REMARK    5  A    between atoms: C_12  and  C_13 
REMARK    6  A    between atoms: C_22  and  C_23 
REMARK    7  A    between atoms: C_23  and  N_24 
REMARK    8  A    between atoms: C_26  and  C_27 
REMARK    9  A    between atoms: C_27  and  C_28 
REMARK   10  A    between atoms: C_28  and  O_29 
ROOT
HETATM    1  C   UNL     1      25.583  41.493  49.760  1.00  0.00     0.110 C 
HETATM    2  S   UNL     1      24.680  41.696  48.320  1.00  0.00    -0.061 SA
HETATM    3  C   UNL     1      24.208  43.268  48.749  1.00  0.00     0.111 A 
HETATM    4  C   UNL     1      24.700  43.659  49.990  1.00  0.00     0.028 A 
HETATM    5  C   UNL     1      25.593  42.653  50.533  1.00  0.00     0.071 C 
HETATM    6  N   UNL     1      23.405  43.982  47.923  1.00  0.00    -0.243 NA
HETATM    7  C   UNL     1      23.035  45.191  48.410  1.00  0.00     0.061 A 
HETATM    8  C   UNL     1      23.401  45.680  49.654  1.00  0.00     0.030 A 
HETATM    9  C   UNL     1      24.225  44.903  50.461  1.00  0.00     0.019 A 
ENDROOT
BRANCH   5  10
HETATM   10  N   UNL     1      26.373  42.720  51.699  1.00  0.00    -0.321 N 
HETATM   11  C   UNL     1      27.464  43.539  51.891  1.00  0.00     0.245 C 
HETATM   12  O   UNL     1      27.964  44.288  51.060  1.00  0.00    -0.268 OA
HETATM   13  H   UNL     1      26.242  41.953  52.359  1.00  0.00     0.169 HD
BRANCH  11  14
HETATM   14  C   UNL     1      28.061  43.391  53.250  1.00  0.00     0.075 C 
HETATM   15  C   UNL     1      29.017  44.253  53.632  1.00  0.00     0.017 C 
BRANCH  15  16
HETATM   16  C   UNL     1      29.718  44.277  54.929  1.00  0.00    -0.036 A 
HETATM   17  C   UNL     1      30.567  43.252  55.372  1.00  0.00     0.014 A 
HETATM   18  C   UNL     1      31.184  43.332  56.625  1.00  0.00     0.043 A 
HETATM   19  C   UNL     1      30.950  44.432  57.441  1.00  0.00     0.116 A 
HETATM   20  F   UNL     1      31.540  44.502  58.641  1.00  0.00    -0.206 F 
HETATM   21  C   UNL     1      30.109  45.455  57.028  1.00  0.00     0.043 A 
HETATM   22  C   UNL     1      29.494  45.376  55.776  1.00  0.00     0.014 A 
ENDBRANCH  15  16
ENDBRANCH  11  14
ENDBRANCH   5  10
BRANCH   1  23
HETATM   23  C   UNL     1      26.280  40.251  50.064  1.00  0.00     0.302 C 
HETATM   24  O   UNL     1      26.097  39.606  51.092  1.00  0.00    -0.259 OA
BRANCH  23  25
HETATM   25  O   UNL     1      27.137  39.883  49.070  1.00  0.00    -0.322 OA
HETATM   26  C   UNL     1      28.407  39.417  49.531  1.00  0.00     0.213 C 
ENDBRANCH  23  25
ENDBRANCH   1  23
BRANCH   7  27
HETATM   27  C   UNL     1      22.220  46.074  47.489  1.00  0.00     0.294 C 
BRANCH  27  28
HETATM   28  N   UNL     1      20.940  46.632  48.104  1.00  0.00    -0.061 N 
HETATM   29  H   UNL     1      20.758  45.961  48.868  1.00  0.00     0.280 HD
HETATM   30  C   UNL     1      21.086  47.986  48.808  1.00  0.00     0.190 C 
HETATM   31  C   UNL     1      19.740  48.311  49.472  1.00  0.00     0.033 C 
HETATM   32  C   UNL     1      18.575  48.287  48.489  1.00  0.00     0.004 C 
HETATM   33  C   UNL     1      18.491  46.935  47.795  1.00  0.00     0.028 C 
HETATM   34  C   UNL     1      19.798  46.554  47.124  1.00  0.00     0.235 C 
BRANCH  30  35
HETATM   35  C   UNL     1      21.608  49.065  47.850  1.00  0.00     0.059 C 
BRANCH  35  36
HETATM   36  C   UNL     1      22.899  49.724  48.322  1.00  0.00     0.166 C 
BRANCH  36  37
HETATM   37  O   UNL     1      23.609  50.145  47.169  1.00  0.00    -0.401 OA
HETATM   38  H   UNL     1      23.754  51.107  47.240  1.00  0.00     0.209 HD
ENDBRANCH  36  37
ENDBRANCH  35  36
ENDBRANCH  30  35
ENDBRANCH  27  28
ENDBRANCH   7  27
TORSDOF 10
ENDMDL
MODEL 7
REMARK VINA RESULT:      -8.1     13.523     17.227
REMARK  10 active torsions:
REMARK  status: ('A' for Active; 'I' for Inactive)
REMARK    1  A    between atoms: O_2  and  C_3 
REMARK    2  A    between atoms: C_3  and  C_4 
REMARK    3  A    between atoms: C_8  and  N_9 
REMARK       I    between atoms: N_9  and  C_10 
REMARK    4  A    between atoms: C_10  and  C_11 
REMARK    5  A    between atoms: C_12  and  C_13 
REMARK    6  A    between atoms: C_22  and  C_23 
REMARK    7  A    between atoms: C_23  and  N_24 
REMARK    8  A    between atoms: C_26  and  C_27 
REMARK    9  A    between atoms: C_27  and  C_28 
REMARK   10  A    between atoms: C_28  and  O_29 
ROOT
HETATM    1  C   UNL     1      36.878  51.393  42.124  1.00  0.00     0.110 C 
HETATM    2  S   UNL     1      35.925  50.282  41.236  1.00  0.00    -0.061 SA
HETATM    3  C   UNL     1      34.526  50.663  42.116  1.00  0.00     0.111 A 
HETATM    4  C   UNL     1      34.755  51.613  43.106  1.00  0.00     0.028 A 
HETATM    5  C   UNL     1      36.113  52.115  43.038  1.00  0.00     0.071 C 
HETATM    6  N   UNL     1      33.359  50.032  41.837  1.00  0.00    -0.243 NA
HETATM    7  C   UNL     1      32.333  50.366  42.658  1.00  0.00     0.061 A 
HETATM    8  C   UNL     1      32.436  51.249  43.721  1.00  0.00     0.030 A 
HETATM    9  C   UNL     1      33.659  51.866  43.962  1.00  0.00     0.019 A 
ENDROOT
BRANCH   5  10
HETATM   10  N   UNL     1      36.696  53.154  43.783  1.00  0.00    -0.321 N 
HETATM   11  C   UNL     1      37.347  53.011  44.989  1.00  0.00     0.245 C 
HETATM   12  O   UNL     1      37.465  51.974  45.631  1.00  0.00    -0.268 OA
HETATM   13  H   UNL     1      36.426  54.098  43.507  1.00  0.00     0.169 HD
BRANCH  11  14
HETATM   14  C   UNL     1      37.877  54.303  45.512  1.00  0.00     0.075 C 
HETATM   15  C   UNL     1      38.154  55.287  44.641  1.00  0.00     0.017 C 
BRANCH  15  16
HETATM   16  C   UNL     1      38.673  56.630  44.959  1.00  0.00    -0.036 A 
HETATM   17  C   UNL     1      39.753  56.860  45.824  1.00  0.00     0.014 A 
HETATM   18  C   UNL     1      40.180  58.164  46.097  1.00  0.00     0.043 A 
HETATM   19  C   UNL     1      39.525  59.241  45.513  1.00  0.00     0.116 A 
HETATM   20  F   UNL     1      39.934  60.487  45.780  1.00  0.00    -0.206 F 
HETATM   21  C   UNL     1      38.450  59.040  44.660  1.00  0.00     0.043 A 
HETATM   22  C   UNL     1      38.025  57.738  44.385  1.00  0.00     0.014 A 
ENDBRANCH  15  16
ENDBRANCH  11  14
ENDBRANCH   5  10
BRANCH   1  23
HETATM   23  C   UNL     1      38.303  51.557  41.874  1.00  0.00     0.302 C 
HETATM   24  O   UNL     1      39.116  50.642  41.967  1.00  0.00    -0.259 OA
BRANCH  23  25
HETATM   25  O   UNL     1      38.620  52.831  41.509  1.00  0.00    -0.322 OA
HETATM   26  C   UNL     1      38.222  53.181  40.181  1.00  0.00     0.213 C 
ENDBRANCH  23  25
ENDBRANCH   1  23
BRANCH   7  27
HETATM   27  C   UNL     1      30.982  49.769  42.332  1.00  0.00     0.294 C 
BRANCH  27  28
HETATM   28  N   UNL     1      29.987  50.740  41.705  1.00  0.00    -0.061 N 
HETATM   29  H   UNL     1      29.955  51.499  42.405  1.00  0.00     0.280 HD
HETATM   30  C   UNL     1      30.462  51.427  40.418  1.00  0.00     0.190 C 
HETATM   31  C   UNL     1      29.393  52.455  40.019  1.00  0.00     0.033 C 
HETATM   32  C   UNL     1      28.006  51.840  39.874  1.00  0.00     0.004 C 
HETATM   33  C   UNL     1      27.593  51.147  41.165  1.00  0.00     0.028 C 
HETATM   34  C   UNL     1      28.617  50.120  41.616  1.00  0.00     0.235 C 
BRANCH  30  35
HETATM   35  C   UNL     1      30.807  50.403  39.329  1.00  0.00     0.059 C 
BRANCH  35  36
HETATM   36  C   UNL     1      31.790  50.930  38.288  1.00  0.00     0.166 C 
BRANCH  36  37
HETATM   37  O   UNL     1      33.088  50.857  38.854  1.00  0.00    -0.401 OA
HETATM   38  H   UNL     1      33.655  51.502  38.390  1.00  0.00     0.209 HD
ENDBRANCH  36  37
ENDBRANCH  35  36
ENDBRANCH  30  35
ENDBRANCH  27  28
ENDBRANCH   7  27
TORSDOF 10
ENDMDL
MODEL 8
REMARK VINA RESULT:      -8.1      5.879     10.117
REMARK  10 active torsions:
REMARK  status: ('A' for Active; 'I' for Inactive)
REMARK    1  A    between atoms: O_2  and  C_3 
REMARK    2  A    between atoms: C_3  and  C_4 
REMARK    3  A    between atoms: C_8  and  N_9 
REMARK       I    between atoms: N_9  and  C_10 
REMARK    4  A    between atoms: C_10  and  C_11 
REMARK    5  A    between atoms: C_12  and  C_13 
REMARK    6  A    between atoms: C_22  and  C_23 
REMARK    7  A    between atoms: C_23  and  N_24 
REMARK    8  A    between atoms: C_26  and  C_27 
REMARK    9  A    between atoms: C_27  and  C_28 
REMARK   10  A    between atoms: C_28  and  O_29 
ROOT
HETATM    1  C   UNL     1      24.681  46.292  50.065  1.00  0.00     0.110 C 
HETATM    2  S   UNL     1      23.393  46.532  48.963  1.00  0.00    -0.061 SA
HETATM    3  C   UNL     1      23.345  44.889  48.544  1.00  0.00     0.111 A 
HETATM    4  C   UNL     1      24.310  44.136  49.205  1.00  0.00     0.028 A 
HETATM    5  C   UNL     1      25.023  44.945  50.175  1.00  0.00     0.071 C 
HETATM    6  N   UNL     1      22.450  44.451  47.625  1.00  0.00    -0.243 NA
HETATM    7  C   UNL     1      22.561  43.135  47.319  1.00  0.00     0.061 A 
HETATM    8  C   UNL     1      23.515  42.284  47.855  1.00  0.00     0.030 A 
HETATM    9  C   UNL     1      24.410  42.788  48.792  1.00  0.00     0.019 A 
ENDROOT
BRANCH   5  10
HETATM   10  N   UNL     1      25.985  44.534  51.113  1.00  0.00    -0.321 N 
HETATM   11  C   UNL     1      25.723  44.097  52.393  1.00  0.00     0.245 C 
HETATM   12  O   UNL     1      24.626  44.056  52.936  1.00  0.00    -0.268 OA
HETATM   13  H   UNL     1      26.949  44.784  50.892  1.00  0.00     0.169 HD
BRANCH  11  14
HETATM   14  C   UNL     1      26.960  43.708  53.130  1.00  0.00     0.075 C 
HETATM   15  C   UNL     1      27.580  44.632  53.883  1.00  0.00     0.017 C 
BRANCH  15  16
HETATM   16  C   UNL     1      28.800  44.443  54.688  1.00  0.00    -0.036 A 
HETATM   17  C   UNL     1      29.578  43.276  54.658  1.00  0.00     0.014 A 
HETATM   18  C   UNL     1      30.714  43.156  55.465  1.00  0.00     0.043 A 
HETATM   19  C   UNL     1      31.073  44.200  56.310  1.00  0.00     0.116 A 
HETATM   20  F   UNL     1      32.158  44.080  57.084  1.00  0.00    -0.206 F 
HETATM   21  C   UNL     1      30.316  45.361  56.364  1.00  0.00     0.043 A 
HETATM   22  C   UNL     1      29.183  45.481  55.556  1.00  0.00     0.014 A 
ENDBRANCH  15  16
ENDBRANCH  11  14
ENDBRANCH   5  10
BRANCH   1  23
HETATM   23  C   UNL     1      25.275  47.394  50.808  1.00  0.00     0.302 C 
HETATM   24  O   UNL     1      25.404  47.396  52.028  1.00  0.00    -0.259 OA
BRANCH  23  25
HETATM   25  O   UNL     1      25.683  48.406  49.991  1.00  0.00    -0.322 OA
HETATM   26  C   UNL     1      26.959  48.194  49.383  1.00  0.00     0.213 C 
ENDBRANCH  23  25
ENDBRANCH   1  23
BRANCH   7  27
HETATM   27  C   UNL     1      21.524  42.568  46.374  1.00  0.00     0.294 C 
BRANCH  27  28
HETATM   28  N   UNL     1      22.027  41.447  45.469  1.00  0.00    -0.061 N 
HETATM   29  H   UNL     1      23.052  41.567  45.526  1.00  0.00     0.280 HD
HETATM   30  C   UNL     1      21.778  40.025  45.986  1.00  0.00     0.190 C 
HETATM   31  C   UNL     1      22.468  39.052  45.017  1.00  0.00     0.033 C 
HETATM   32  C   UNL     1      22.016  39.237  43.573  1.00  0.00     0.004 C 
HETATM   33  C   UNL     1      22.256  40.669  43.118  1.00  0.00     0.028 C 
HETATM   34  C   UNL     1      21.602  41.681  44.042  1.00  0.00     0.235 C 
BRANCH  30  35
HETATM   35  C   UNL     1      20.282  39.761  46.205  1.00  0.00     0.059 C 
BRANCH  35  36
HETATM   36  C   UNL     1      20.003  38.537  47.073  1.00  0.00     0.166 C 
BRANCH  36  37
HETATM   37  O   UNL     1      19.542  39.004  48.330  1.00  0.00    -0.401 OA
HETATM   38  H   UNL     1      20.199  39.637  48.675  1.00  0.00     0.209 HD
ENDBRANCH  36  37
ENDBRANCH  35  36
ENDBRANCH  30  35
ENDBRANCH  27  28
ENDBRANCH   7  27
TORSDOF 10
ENDMDL
MODEL 9
REMARK VINA RESULT:      -8.1      6.728     10.939
REMARK  10 active torsions:
REMARK  status: ('A' for Active; 'I' for Inactive)
REMARK    1  A    between atoms: O_2  and  C_3 
REMARK    2  A    between atoms: C_3  and  C_4 
REMARK    3  A    between atoms: C_8  and  N_9 
REMARK       I    between atoms: N_9  and  C_10 
REMARK    4  A    between atoms: C_10  and  C_11 
REMARK    5  A    between atoms: C_12  and  C_13 
REMARK    6  A    between atoms: C_22  and  C_23 
REMARK    7  A    between atoms: C_23  and  N_24 
REMARK    8  A    between atoms: C_26  and  C_27 
REMARK    9  A    between atoms: C_27  and  C_28 
REMARK   10  A    between atoms: C_28  and  O_29 
ROOT
HETATM    1  C   UNL     1      25.219  42.371  50.385  1.00  0.00     0.110 C 
HETATM    2  S   UNL     1      24.643  41.463  49.052  1.00  0.00    -0.061 SA
HETATM    3  C   UNL     1      25.953  40.389  49.120  1.00  0.00     0.111 A 
HETATM    4  C   UNL     1      26.858  40.707  50.129  1.00  0.00     0.028 A 
HETATM    5  C   UNL     1      26.369  41.808  50.935  1.00  0.00     0.071 C 
HETATM    6  N   UNL     1      26.046  39.377  48.223  1.00  0.00    -0.243 NA
HETATM    7  C   UNL     1      27.176  38.636  48.332  1.00  0.00     0.061 A 
HETATM    8  C   UNL     1      28.186  38.877  49.248  1.00  0.00     0.030 A 
HETATM    9  C   UNL     1      28.039  39.931  50.144  1.00  0.00     0.019 A 
ENDROOT
BRANCH   5  10
HETATM   10  N   UNL     1      26.929  42.346  52.105  1.00  0.00    -0.321 N 
HETATM   11  C   UNL     1      27.758  43.445  52.168  1.00  0.00     0.245 C 
HETATM   12  O   UNL     1      28.187  44.085  51.216  1.00  0.00    -0.268 OA
HETATM   13  H   UNL     1      26.884  41.748  52.930  1.00  0.00     0.169 HD
BRANCH  11  14
HETATM   14  C   UNL     1      28.164  43.780  53.564  1.00  0.00     0.075 C 
HETATM   15  C   UNL     1      29.462  43.692  53.898  1.00  0.00     0.017 C 
BRANCH  15  16
HETATM   16  C   UNL     1      30.058  43.987  55.213  1.00  0.00    -0.036 A 
HETATM   17  C   UNL     1      30.951  43.128  55.871  1.00  0.00     0.014 A 
HETATM   18  C   UNL     1      31.462  43.462  57.130  1.00  0.00     0.043 A 
HETATM   19  C   UNL     1      31.078  44.652  57.737  1.00  0.00     0.116 A 
HETATM   20  F   UNL     1      31.567  44.966  58.943  1.00  0.00    -0.206 F 
HETATM   21  C   UNL     1      30.191  45.514  57.110  1.00  0.00     0.043 A 
HETATM   22  C   UNL     1      29.681  45.181  55.853  1.00  0.00     0.014 A 
ENDBRANCH  15  16
ENDBRANCH  11  14
ENDBRANCH   5  10
BRANCH   1  23
HETATM   23  C   UNL     1      24.520  43.551  50.873  1.00  0.00     0.302 C 
HETATM   24  O   UNL     1      24.263  43.744  52.057  1.00  0.00    -0.259 OA
BRANCH  23  25
HETATM   25  O   UNL     1      24.205  44.416  49.869  1.00  0.00    -0.322 OA
HETATM   26  C   UNL     1      25.290  45.244  49.442  1.00  0.00     0.213 C 
ENDBRANCH  23  25
ENDBRANCH   1  23
BRANCH   7  27
HETATM   27  C   UNL     1      27.286  37.431  47.422  1.00  0.00     0.294 C 
BRANCH  27  28
HETATM   28  N   UNL     1      28.294  37.578  46.286  1.00  0.00    -0.061 N 
HETATM   29  H   UNL     1      29.099  38.012  46.767  1.00  0.00     0.280 HD
HETATM   30  C   UNL     1      28.846  36.262  45.724  1.00  0.00     0.190 C 
HETATM   31  C   UNL     1      29.933  36.616  44.698  1.00  0.00     0.033 C 
HETATM   32  C   UNL     1      29.431  37.552  43.605  1.00  0.00     0.004 C 
HETATM   33  C   UNL     1      28.867  38.828  44.213  1.00  0.00     0.028 C 
HETATM   34  C   UNL     1      27.789  38.543  45.244  1.00  0.00     0.235 C 
BRANCH  30  35
HETATM   35  C   UNL     1      27.724  35.365  45.188  1.00  0.00     0.059 C 
BRANCH  35  36
HETATM   36  C   UNL     1      27.606  34.034  45.925  1.00  0.00     0.166 C 
BRANCH  36  37
HETATM   37  O   UNL     1      26.235  33.837  46.230  1.00  0.00    -0.401 OA
HETATM   38  H   UNL     1      26.180  33.429  47.115  1.00  0.00     0.209 HD
ENDBRANCH  36  37
ENDBRANCH  35  36
ENDBRANCH  30  35
ENDBRANCH  27  28
ENDBRANCH   7  27
TORSDOF 10
ENDMDL
MODEL 10
REMARK VINA RESULT:      -8.0      1.424      2.095
REMARK  10 active torsions:
REMARK  status: ('A' for Active; 'I' for Inactive)
REMARK    1  A    between atoms: O_2  and  C_3 
REMARK    2  A    between atoms: C_3  and  C_4 
REMARK    3  A    between atoms: C_8  and  N_9 
REMARK       I    between atoms: N_9  and  C_10 
REMARK    4  A    between atoms: C_10  and  C_11 
REMARK    5  A    between atoms: C_12  and  C_13 
REMARK    6  A    between atoms: C_22  and  C_23 
REMARK    7  A    between atoms: C_23  and  N_24 
REMARK    8  A    between atoms: C_26  and  C_27 
REMARK    9  A    between atoms: C_27  and  C_28 
REMARK   10  A    between atoms: C_28  and  O_29 
ROOT
HETATM    1  C   UNL     1      25.058  48.702  48.950  1.00  0.00     0.110 C 
HETATM    2  S   UNL     1      26.599  47.965  48.827  1.00  0.00    -0.061 SA
HETATM    3  C   UNL     1      26.063  46.545  49.585  1.00  0.00     0.111 A 
HETATM    4  C   UNL     1      24.726  46.609  49.965  1.00  0.00     0.028 A 
HETATM    5  C   UNL     1      24.113  47.836  49.496  1.00  0.00     0.071 C 
HETATM    6  N   UNL     1      26.926  45.520  49.789  1.00  0.00    -0.243 NA
HETATM    7  C   UNL     1      26.401  44.474  50.472  1.00  0.00     0.061 A 
HETATM    8  C   UNL     1      25.105  44.430  50.962  1.00  0.00     0.030 A 
HETATM    9  C   UNL     1      24.263  45.511  50.724  1.00  0.00     0.019 A 
ENDROOT
BRANCH   5  10
HETATM   10  N   UNL     1      22.765  48.222  49.576  1.00  0.00    -0.321 N 
HETATM   11  C   UNL     1      21.814  48.030  48.597  1.00  0.00     0.245 C 
HETATM   12  O   UNL     1      22.005  47.554  47.485  1.00  0.00    -0.268 OA
HETATM   13  H   UNL     1      22.538  48.876  50.325  1.00  0.00     0.169 HD
BRANCH  11  14
HETATM   14  C   UNL     1      20.467  48.529  48.998  1.00  0.00     0.075 C 
HETATM   15  C   UNL     1      20.048  49.712  48.520  1.00  0.00     0.017 C 
BRANCH  15  16
HETATM   16  C   UNL     1      18.756  50.367  48.790  1.00  0.00    -0.036 A 
HETATM   17  C   UNL     1      18.594  51.417  49.707  1.00  0.00     0.014 A 
HETATM   18  C   UNL     1      17.332  51.979  49.929  1.00  0.00     0.043 A 
HETATM   19  C   UNL     1      16.229  51.490  49.242  1.00  0.00     0.116 A 
HETATM   20  F   UNL     1      15.022  52.028  49.461  1.00  0.00    -0.206 F 
HETATM   21  C   UNL     1      16.361  50.448  48.336  1.00  0.00     0.043 A 
HETATM   22  C   UNL     1      17.621  49.888  48.112  1.00  0.00     0.014 A 
ENDBRANCH  15  16
ENDBRANCH  11  14
ENDBRANCH   5  10
BRANCH   1  23
HETATM   23  C   UNL     1      24.814  50.057  48.477  1.00  0.00     0.302 C 
HETATM   24  O   UNL     1      25.319  50.520  47.459  1.00  0.00    -0.259 OA
BRANCH  23  25
HETATM   25  O   UNL     1      23.950  50.737  49.281  1.00  0.00    -0.322 OA
HETATM   26  C   UNL     1      22.971  51.506  48.578  1.00  0.00     0.213 C 
ENDBRANCH  23  25
ENDBRANCH   1  23
BRANCH   7  27
HETATM   27  C   UNL     1      27.288  43.260  50.642  1.00  0.00     0.294 C 
BRANCH  27  28
HETATM   28  N   UNL     1      27.656  42.933  52.086  1.00  0.00    -0.061 N 
HETATM   29  H   UNL     1      26.818  43.253  52.600  1.00  0.00     0.280 HD
HETATM   30  C   UNL     1      27.761  41.439  52.415  1.00  0.00     0.190 C 
HETATM   31  C   UNL     1      28.001  41.313  53.927  1.00  0.00     0.033 C 
HETATM   32  C   UNL     1      29.217  42.102  54.400  1.00  0.00     0.004 C 
HETATM   33  C   UNL     1      29.079  43.570  54.025  1.00  0.00     0.028 C 
HETATM   34  C   UNL     1      28.832  43.760  52.538  1.00  0.00     0.235 C 
BRANCH  30  35
HETATM   35  C   UNL     1      28.809  40.743  51.538  1.00  0.00     0.059 C 
BRANCH  35  36
HETATM   36  C   UNL     1      28.210  39.739  50.557  1.00  0.00     0.166 C 
BRANCH  36  37
HETATM   37  O   UNL     1      26.802  39.784  50.710  1.00  0.00    -0.401 OA
HETATM   38  H   UNL     1      26.598  40.395  51.443  1.00  0.00     0.209 HD
ENDBRANCH  36  37
ENDBRANCH  35  36
ENDBRANCH  30  35
ENDBRANCH  27  28
ENDBRANCH   7  27
TORSDOF 10
ENDMDL
