MODEL 1
REMARK VINA RESULT:      -9.8      0.000      0.000
REMARK  6 active torsions:
REMARK  status: ('A' for Active; 'I' for Inactive)
REMARK    1  A    between atoms: C_2  and  C_3 
REMARK    2  A    between atoms: C_8  and  N_9 
REMARK       I    between atoms: N_9  and  C_10 
REMARK       I    between atoms: C_10  and  N_11 
REMARK    3  A    between atoms: N_11  and  N_12 
REMARK       I    between atoms: N_12  and  C_13 
REMARK    4  A    between atoms: C_13  and  C_14 
REMARK    5  A    between atoms: C_14  and  N_15 
REMARK       I    between atoms: N_15  and  C_16 
REMARK       I    between atoms: C_16  and  N_17 
REMARK    6  A    between atoms: N_17  and  C_18 
ROOT
HETATM    1  N   UNL     1      26.178  45.927  52.757  1.00  0.00    -0.306 N 
HETATM    2  C   UNL     1      25.118  45.128  52.418  1.00  0.00     0.339 C 
HETATM    3  N   UNL     1      24.358  45.592  51.376  1.00  0.00    -0.249 N 
HETATM    4  O   UNL     1      24.812  44.065  52.948  1.00  0.00    -0.245 OA
HETATM    5  H   UNL     1      26.150  46.863  52.373  1.00  0.00     0.171 HD
HETATM    6  H   UNL     1      23.498  45.084  51.167  1.00  0.00     0.192 HD
ENDROOT
BRANCH   3   7
HETATM    7  N   UNL     1      24.544  46.815  50.709  1.00  0.00    -0.265 N 
HETATM    8  C   UNL     1      25.565  46.810  49.766  1.00  0.00     0.253 C 
HETATM    9  O   UNL     1      26.129  45.770  49.417  1.00  0.00    -0.270 OA
HETATM   10  H   UNL     1      24.457  47.670  51.269  1.00  0.00     0.190 HD
BRANCH   8  11
HETATM   11  C   UNL     1      26.086  48.185  49.349  1.00  0.00     0.228 C 
BRANCH  11  12
HETATM   12  N   UNL     1      25.066  49.195  49.161  1.00  0.00    -0.334 N 
HETATM   13  C   UNL     1      25.024  50.023  48.087  1.00  0.00     0.322 C 
HETATM   14  N   UNL     1      23.899  50.758  47.896  1.00  0.00    -0.287 N 
HETATM   15  O   UNL     1      25.985  50.134  47.324  1.00  0.00    -0.247 OA
HETATM   16  H   UNL     1      23.894  51.379  47.101  1.00  0.00     0.172 HD
HETATM   17  H   UNL     1      24.212  49.120  49.711  1.00  0.00     0.164 HD
BRANCH  14  18
HETATM   18  C   UNL     1      22.783  50.721  48.682  1.00  0.00     0.174 A 
HETATM   19  S   UNL     1      21.371  50.160  47.911  1.00  0.00    -0.062 SA
HETATM   20  C   UNL     1      20.506  50.400  49.374  1.00  0.00     0.072 A 
HETATM   21  C   UNL     1      21.361  50.884  50.343  1.00  0.00     0.126 A 
HETATM   22  N   UNL     1      22.673  51.062  49.944  1.00  0.00    -0.236 NA
ENDBRANCH  14  18
ENDBRANCH  11  12
ENDBRANCH   8  11
ENDBRANCH   3   7
BRANCH   1  23
HETATM   23  C   UNL     1      27.194  45.654  53.705  1.00  0.00     0.059 A 
HETATM   24  C   UNL     1      28.015  44.521  53.629  1.00  0.00     0.047 A 
HETATM   25  C   UNL     1      29.029  44.282  54.575  1.00  0.00     0.050 A 
HETATM   26  C   UNL     1      29.211  45.197  55.621  1.00  0.00     0.018 A 
HETATM   27  C   UNL     1      28.407  46.335  55.708  1.00  0.00     0.027 A 
HETATM   28  C   UNL     1      27.410  46.565  54.754  1.00  0.00     0.060 A 
HETATM   29 CL   UNL     1      26.448  47.996  54.910  1.00  0.00    -0.082 Cl
BRANCH  25  30
HETATM   30  C   UNL     1      29.884  43.042  54.457  1.00  0.00     0.417 C 
HETATM   31  F   UNL     1      30.772  42.903  55.482  1.00  0.00    -0.166 F 
HETATM   32  F   UNL     1      29.146  41.898  54.449  1.00  0.00    -0.166 F 
HETATM   33  F   UNL     1      30.629  43.022  53.319  1.00  0.00    -0.166 F 
ENDBRANCH  25  30
ENDBRANCH   1  23
TORSDOF 6
ENDMDL
MODEL 2
REMARK VINA RESULT:      -9.8      2.410      2.870
REMARK  6 active torsions:
REMARK  status: ('A' for Active; 'I' for Inactive)
REMARK    1  A    between atoms: C_2  and  C_3 
REMARK    2  A    between atoms: C_8  and  N_9 
REMARK       I    between atoms: N_9  and  C_10 
REMARK       I    between atoms: C_10  and  N_11 
REMARK    3  A    between atoms: N_11  and  N_12 
REMARK       I    between atoms: N_12  and  C_13 
REMARK    4  A    between atoms: C_13  and  C_14 
REMARK    5  A    between atoms: C_14  and  N_15 
REMARK       I    between atoms: N_15  and  C_16 
REMARK       I    between atoms: C_16  and  N_17 
REMARK    6  A    between atoms: N_17  and  C_18 
ROOT
HETATM    1  N   UNL     1      27.816  45.056  53.405  1.00  0.00    -0.306 N 
HETATM    2  C   UNL     1      26.502  44.670  53.369  1.00  0.00     0.339 C 
HETATM    3  N   UNL     1      25.828  45.023  52.228  1.00  0.00    -0.249 N 
HETATM    4  O   UNL     1      25.904  44.049  54.243  1.00  0.00    -0.245 OA
HETATM    5  H   UNL     1      28.079  45.746  52.713  1.00  0.00     0.171 HD
HETATM    6  H   UNL     1      24.822  44.852  52.212  1.00  0.00     0.192 HD
ENDROOT
BRANCH   3   7
HETATM    7  N   UNL     1      26.354  45.783  51.170  1.00  0.00    -0.265 N 
HETATM    8  C   UNL     1      25.807  47.054  51.043  1.00  0.00     0.253 C 
HETATM    9  O   UNL     1      25.061  47.534  51.900  1.00  0.00    -0.270 OA
HETATM   10  H   UNL     1      26.547  45.290  50.292  1.00  0.00     0.190 HD
BRANCH   8  11
HETATM   11  C   UNL     1      26.013  47.730  49.688  1.00  0.00     0.228 C 
BRANCH  11  12
HETATM   12  N   UNL     1      25.111  48.827  49.407  1.00  0.00    -0.334 N 
HETATM   13  C   UNL     1      25.277  49.683  48.368  1.00  0.00     0.322 C 
HETATM   14  N   UNL     1      24.249  50.516  48.061  1.00  0.00    -0.287 N 
HETATM   15  O   UNL     1      26.336  49.732  47.740  1.00  0.00    -0.247 OA
HETATM   16  H   UNL     1      24.399  51.155  47.295  1.00  0.00     0.172 HD
HETATM   17  H   UNL     1      24.188  48.810  49.840  1.00  0.00     0.164 HD
BRANCH  14  18
HETATM   18  C   UNL     1      23.041  50.552  48.695  1.00  0.00     0.174 A 
HETATM   19  S   UNL     1      21.704  50.108  47.736  1.00  0.00    -0.062 SA
HETATM   20  C   UNL     1      20.676  50.395  49.080  1.00  0.00     0.072 A 
HETATM   21  C   UNL     1      21.430  50.801  50.161  1.00  0.00     0.126 A 
HETATM   22  N   UNL     1      22.792  50.885  49.940  1.00  0.00    -0.236 NA
ENDBRANCH  14  18
ENDBRANCH  11  12
ENDBRANCH   8  11
ENDBRANCH   3   7
BRANCH   1  23
HETATM   23  C   UNL     1      28.781  44.738  54.390  1.00  0.00     0.059 A 
HETATM   24  C   UNL     1      28.859  45.411  55.617  1.00  0.00     0.047 A 
HETATM   25  C   UNL     1      29.817  45.064  56.587  1.00  0.00     0.050 A 
HETATM   26  C   UNL     1      30.718  44.027  56.312  1.00  0.00     0.018 A 
HETATM   27  C   UNL     1      30.650  43.340  55.098  1.00  0.00     0.027 A 
HETATM   28  C   UNL     1      29.685  43.689  54.147  1.00  0.00     0.060 A 
HETATM   29 CL   UNL     1      29.645  42.798  52.662  1.00  0.00    -0.082 Cl
BRANCH  25  30
HETATM   30  C   UNL     1      29.869  45.825  57.892  1.00  0.00     0.417 C 
HETATM   31  F   UNL     1      28.766  46.596  58.108  1.00  0.00    -0.166 F 
HETATM   32  F   UNL     1      29.965  45.004  58.972  1.00  0.00    -0.166 F 
HETATM   33  F   UNL     1      30.931  46.673  57.964  1.00  0.00    -0.166 F 
ENDBRANCH  25  30
ENDBRANCH   1  23
TORSDOF 6
ENDMDL
MODEL 3
REMARK VINA RESULT:      -9.5      2.758      3.389
REMARK  6 active torsions:
REMARK  status: ('A' for Active; 'I' for Inactive)
REMARK    1  A    between atoms: C_2  and  C_3 
REMARK    2  A    between atoms: C_8  and  N_9 
REMARK       I    between atoms: N_9  and  C_10 
REMARK       I    between atoms: C_10  and  N_11 
REMARK    3  A    between atoms: N_11  and  N_12 
REMARK       I    between atoms: N_12  and  C_13 
REMARK    4  A    between atoms: C_13  and  C_14 
REMARK    5  A    between atoms: C_14  and  N_15 
REMARK       I    between atoms: N_15  and  C_16 
REMARK       I    between atoms: C_16  and  N_17 
REMARK    6  A    between atoms: N_17  and  C_18 
ROOT
HETATM    1  N   UNL     1      28.017  44.854  53.792  1.00  0.00    -0.306 N 
HETATM    2  C   UNL     1      26.680  44.594  53.944  1.00  0.00     0.339 C 
HETATM    3  N   UNL     1      25.895  44.979  52.889  1.00  0.00    -0.249 N 
HETATM    4  O   UNL     1      26.152  44.053  54.911  1.00  0.00    -0.245 OA
HETATM    5  H   UNL     1      28.245  45.500  53.046  1.00  0.00     0.171 HD
HETATM    6  H   UNL     1      24.884  44.904  53.011  1.00  0.00     0.192 HD
ENDROOT
BRANCH   3   7
HETATM    7  N   UNL     1      26.340  45.660  51.744  1.00  0.00    -0.265 N 
HETATM    8  C   UNL     1      25.961  46.996  51.681  1.00  0.00     0.253 C 
HETATM    9  O   UNL     1      25.440  47.574  52.637  1.00  0.00    -0.270 OA
HETATM   10  H   UNL     1      26.315  45.147  50.856  1.00  0.00     0.190 HD
BRANCH   8  11
HETATM   11  C   UNL     1      26.033  47.639  50.296  1.00  0.00     0.228 C 
BRANCH  11  12
HETATM   12  N   UNL     1      24.754  47.974  49.709  1.00  0.00    -0.334 N 
HETATM   13  C   UNL     1      23.768  47.067  49.498  1.00  0.00     0.322 C 
HETATM   14  N   UNL     1      22.535  47.533  49.170  1.00  0.00    -0.287 N 
HETATM   15  O   UNL     1      23.985  45.856  49.566  1.00  0.00    -0.247 OA
HETATM   16  H   UNL     1      21.821  46.841  49.001  1.00  0.00     0.172 HD
HETATM   17  H   UNL     1      24.480  48.956  49.687  1.00  0.00     0.164 HD
BRANCH  14  18
HETATM   18  C   UNL     1      22.188  48.849  49.057  1.00  0.00     0.174 A 
HETATM   19  S   UNL     1      20.922  49.174  47.964  1.00  0.00    -0.062 SA
HETATM   20  C   UNL     1      21.072  50.845  48.327  1.00  0.00     0.072 A 
HETATM   21  C   UNL     1      22.071  51.028  49.260  1.00  0.00     0.126 A 
HETATM   22  N   UNL     1      22.709  49.876  49.684  1.00  0.00    -0.236 NA
ENDBRANCH  14  18
ENDBRANCH  11  12
ENDBRANCH   8  11
ENDBRANCH   3   7
BRANCH   1  23
HETATM   23  C   UNL     1      29.073  44.471  54.653  1.00  0.00     0.059 A 
HETATM   24  C   UNL     1      29.319  45.108  55.878  1.00  0.00     0.047 A 
HETATM   25  C   UNL     1      30.365  44.697  56.724  1.00  0.00     0.050 A 
HETATM   26  C   UNL     1      31.183  43.632  56.324  1.00  0.00     0.018 A 
HETATM   27  C   UNL     1      30.948  42.981  55.112  1.00  0.00     0.027 A 
HETATM   28  C   UNL     1      29.897  43.394  54.285  1.00  0.00     0.060 A 
HETATM   29 CL   UNL     1      29.650  42.545  52.796  1.00  0.00    -0.082 Cl
BRANCH  25  30
HETATM   30  C   UNL     1      30.598  45.420  58.030  1.00  0.00     0.417 C 
HETATM   31  F   UNL     1      30.816  46.757  57.872  1.00  0.00    -0.166 F 
HETATM   32  F   UNL     1      29.542  45.315  58.881  1.00  0.00    -0.166 F 
HETATM   33  F   UNL     1      31.680  44.949  58.707  1.00  0.00    -0.166 F 
ENDBRANCH  25  30
ENDBRANCH   1  23
TORSDOF 6
ENDMDL
MODEL 4
REMARK VINA RESULT:      -9.2      2.682      3.360
REMARK  6 active torsions:
REMARK  status: ('A' for Active; 'I' for Inactive)
REMARK    1  A    between atoms: C_2  and  C_3 
REMARK    2  A    between atoms: C_8  and  N_9 
REMARK       I    between atoms: N_9  and  C_10 
REMARK       I    between atoms: C_10  and  N_11 
REMARK    3  A    between atoms: N_11  and  N_12 
REMARK       I    between atoms: N_12  and  C_13 
REMARK    4  A    between atoms: C_13  and  C_14 
REMARK    5  A    between atoms: C_14  and  N_15 
REMARK       I    between atoms: N_15  and  C_16 
REMARK       I    between atoms: C_16  and  N_17 
REMARK    6  A    between atoms: N_17  and  C_18 
ROOT
HETATM    1  N   UNL     1      27.511  45.871  54.107  1.00  0.00    -0.306 N 
HETATM    2  C   UNL     1      27.008  47.111  54.402  1.00  0.00     0.339 C 
HETATM    3  N   UNL     1      25.878  47.455  53.708  1.00  0.00    -0.249 N 
HETATM    4  O   UNL     1      27.469  47.904  55.218  1.00  0.00    -0.245 OA
HETATM    5  H   UNL     1      27.145  45.451  53.261  1.00  0.00     0.171 HD
HETATM    6  H   UNL     1      25.539  48.411  53.818  1.00  0.00     0.192 HD
ENDROOT
BRANCH   3   7
HETATM    7  N   UNL     1      25.269  46.684  52.704  1.00  0.00    -0.265 N 
HETATM    8  C   UNL     1      25.576  47.077  51.406  1.00  0.00     0.253 C 
HETATM    9  O   UNL     1      26.452  47.910  51.165  1.00  0.00    -0.270 OA
HETATM   10  H   UNL     1      24.299  46.391  52.864  1.00  0.00     0.190 HD
BRANCH   8  11
HETATM   11  C   UNL     1      24.622  46.576  50.321  1.00  0.00     0.228 C 
BRANCH  11  12
HETATM   12  N   UNL     1      23.544  47.483  49.988  1.00  0.00    -0.334 N 
HETATM   13  C   UNL     1      23.684  48.530  49.137  1.00  0.00     0.322 C 
HETATM   14  N   UNL     1      22.558  49.160  48.715  1.00  0.00    -0.287 N 
HETATM   15  O   UNL     1      24.797  48.923  48.782  1.00  0.00    -0.247 OA
HETATM   16  H   UNL     1      22.685  49.946  48.095  1.00  0.00     0.172 HD
HETATM   17  H   UNL     1      22.590  47.186  50.191  1.00  0.00     0.164 HD
BRANCH  14  18
HETATM   18  C   UNL     1      21.281  48.815  49.052  1.00  0.00     0.174 A 
HETATM   19  S   UNL     1      20.366  50.051  49.785  1.00  0.00    -0.062 SA
HETATM   20  C   UNL     1      19.045  48.961  49.914  1.00  0.00     0.072 A 
HETATM   21  C   UNL     1      19.400  47.739  49.383  1.00  0.00     0.126 A 
HETATM   22  N   UNL     1      20.686  47.658  48.881  1.00  0.00    -0.236 NA
ENDBRANCH  14  18
ENDBRANCH  11  12
ENDBRANCH   8  11
ENDBRANCH   3   7
BRANCH   1  23
HETATM   23  C   UNL     1      28.588  45.204  54.739  1.00  0.00     0.059 A 
HETATM   24  C   UNL     1      29.065  45.569  56.005  1.00  0.00     0.047 A 
HETATM   25  C   UNL     1      30.127  44.880  56.619  1.00  0.00     0.050 A 
HETATM   26  C   UNL     1      30.724  43.809  55.940  1.00  0.00     0.018 A 
HETATM   27  C   UNL     1      30.256  43.426  54.681  1.00  0.00     0.027 A 
HETATM   28  C   UNL     1      29.192  44.115  54.088  1.00  0.00     0.060 A 
HETATM   29 CL   UNL     1      28.652  43.591  52.528  1.00  0.00    -0.082 Cl
BRANCH  25  30
HETATM   30  C   UNL     1      30.614  45.316  57.981  1.00  0.00     0.417 C 
HETATM   31  F   UNL     1      29.678  45.161  58.960  1.00  0.00    -0.166 F 
HETATM   32  F   UNL     1      31.704  44.616  58.395  1.00  0.00    -0.166 F 
HETATM   33  F   UNL     1      30.970  46.629  58.017  1.00  0.00    -0.166 F 
ENDBRANCH  25  30
ENDBRANCH   1  23
TORSDOF 6
ENDMDL
MODEL 5
REMARK VINA RESULT:      -9.0      4.275      5.873
REMARK  6 active torsions:
REMARK  status: ('A' for Active; 'I' for Inactive)
REMARK    1  A    between atoms: C_2  and  C_3 
REMARK    2  A    between atoms: C_8  and  N_9 
REMARK       I    between atoms: N_9  and  C_10 
REMARK       I    between atoms: C_10  and  N_11 
REMARK    3  A    between atoms: N_11  and  N_12 
REMARK       I    between atoms: N_12  and  C_13 
REMARK    4  A    between atoms: C_13  and  C_14 
REMARK    5  A    between atoms: C_14  and  N_15 
REMARK       I    between atoms: N_15  and  C_16 
REMARK       I    between atoms: C_16  and  N_17 
REMARK    6  A    between atoms: N_17  and  C_18 
ROOT
HETATM    1  N   UNL     1      27.719  45.608  54.108  1.00  0.00    -0.306 N 
HETATM    2  C   UNL     1      27.221  46.874  54.266  1.00  0.00     0.339 C 
HETATM    3  N   UNL     1      26.083  47.140  53.550  1.00  0.00    -0.249 N 
HETATM    4  O   UNL     1      27.692  47.754  54.981  1.00  0.00    -0.245 OA
HETATM    5  H   UNL     1      27.344  45.095  53.320  1.00  0.00     0.171 HD
HETATM    6  H   UNL     1      25.746  48.103  53.555  1.00  0.00     0.192 HD
ENDROOT
BRANCH   3   7
HETATM    7  N   UNL     1      25.461  46.261  52.647  1.00  0.00    -0.265 N 
HETATM    8  C   UNL     1      25.418  46.715  51.335  1.00  0.00     0.253 C 
HETATM    9  O   UNL     1      26.037  47.716  50.968  1.00  0.00    -0.270 OA
HETATM   10  H   UNL     1      24.624  45.768  52.977  1.00  0.00     0.190 HD
BRANCH   8  11
HETATM   11  C   UNL     1      24.394  46.028  50.431  1.00  0.00     0.228 C 
BRANCH  11  12
HETATM   12  N   UNL     1      24.716  44.665  50.068  1.00  0.00    -0.334 N 
HETATM   13  C   UNL     1      24.490  44.147  48.835  1.00  0.00     0.322 C 
HETATM   14  N   UNL     1      25.048  42.944  48.539  1.00  0.00    -0.287 N 
HETATM   15  O   UNL     1      23.775  44.727  48.016  1.00  0.00    -0.247 OA
HETATM   16  H   UNL     1      24.855  42.569  47.623  1.00  0.00     0.172 HD
HETATM   17  H   UNL     1      25.361  44.150  50.667  1.00  0.00     0.164 HD
BRANCH  14  18
HETATM   18  C   UNL     1      25.846  42.213  49.372  1.00  0.00     0.174 A 
HETATM   19  S   UNL     1      27.238  41.551  48.645  1.00  0.00    -0.062 SA
HETATM   20  C   UNL     1      27.656  40.842  50.152  1.00  0.00     0.072 A 
HETATM   21  C   UNL     1      26.706  41.170  51.097  1.00  0.00     0.126 A 
HETATM   22  N   UNL     1      25.667  41.965  50.648  1.00  0.00    -0.236 NA
ENDBRANCH  14  18
ENDBRANCH  11  12
ENDBRANCH   8  11
ENDBRANCH   3   7
BRANCH   1  23
HETATM   23  C   UNL     1      28.803  45.015  54.798  1.00  0.00     0.059 A 
HETATM   24  C   UNL     1      29.215  45.442  56.068  1.00  0.00     0.047 A 
HETATM   25  C   UNL     1      30.286  44.824  56.741  1.00  0.00     0.050 A 
HETATM   26  C   UNL     1      30.958  43.764  56.119  1.00  0.00     0.018 A 
HETATM   27  C   UNL     1      30.556  43.320  54.857  1.00  0.00     0.027 A 
HETATM   28  C   UNL     1      29.483  43.937  54.205  1.00  0.00     0.060 A 
HETATM   29 CL   UNL     1      29.027  43.340  52.645  1.00  0.00    -0.082 Cl
BRANCH  25  30
HETATM   30  C   UNL     1      30.700  45.326  58.105  1.00  0.00     0.417 C 
HETATM   31  F   UNL     1      30.949  46.666  58.131  1.00  0.00    -0.166 F 
HETATM   32  F   UNL     1      29.750  45.107  59.053  1.00  0.00    -0.166 F 
HETATM   33  F   UNL     1      31.837  44.732  58.561  1.00  0.00    -0.166 F 
ENDBRANCH  25  30
ENDBRANCH   1  23
TORSDOF 6
ENDMDL
MODEL 6
REMARK VINA RESULT:      -8.9      2.168      3.174
REMARK  6 active torsions:
REMARK  status: ('A' for Active; 'I' for Inactive)
REMARK    1  A    between atoms: C_2  and  C_3 
REMARK    2  A    between atoms: C_8  and  N_9 
REMARK       I    between atoms: N_9  and  C_10 
REMARK       I    between atoms: C_10  and  N_11 
REMARK    3  A    between atoms: N_11  and  N_12 
REMARK       I    between atoms: N_12  and  C_13 
REMARK    4  A    between atoms: C_13  and  C_14 
REMARK    5  A    between atoms: C_14  and  N_15 
REMARK       I    between atoms: N_15  and  C_16 
REMARK       I    between atoms: C_16  and  N_17 
REMARK    6  A    between atoms: N_17  and  C_18 
ROOT
HETATM    1  N   UNL     1      27.909  44.143  53.595  1.00  0.00    -0.306 N 
HETATM    2  C   UNL     1      27.432  42.876  53.387  1.00  0.00     0.339 C 
HETATM    3  N   UNL     1      26.829  42.679  52.171  1.00  0.00    -0.249 N 
HETATM    4  O   UNL     1      27.508  41.934  54.171  1.00  0.00    -0.245 OA
HETATM    5  H   UNL     1      27.565  44.842  52.949  1.00  0.00     0.171 HD
HETATM    6  H   UNL     1      26.364  41.783  52.023  1.00  0.00     0.192 HD
ENDROOT
BRANCH   3   7
HETATM    7  N   UNL     1      26.614  43.668  51.197  1.00  0.00    -0.265 N 
HETATM    8  C   UNL     1      25.282  43.849  50.842  1.00  0.00     0.253 C 
HETATM    9  O   UNL     1      24.360  43.318  51.465  1.00  0.00    -0.270 OA
HETATM   10  H   UNL     1      27.292  43.723  50.429  1.00  0.00     0.190 HD
BRANCH   8  11
HETATM   11  C   UNL     1      25.045  44.568  49.514  1.00  0.00     0.228 C 
BRANCH  11  12
HETATM   12  N   UNL     1      25.048  46.013  49.590  1.00  0.00    -0.334 N 
HETATM   13  C   UNL     1      26.182  46.759  49.583  1.00  0.00     0.322 C 
HETATM   14  N   UNL     1      26.058  48.101  49.416  1.00  0.00    -0.287 N 
HETATM   15  O   UNL     1      27.288  46.246  49.756  1.00  0.00    -0.247 OA
HETATM   16  H   UNL     1      26.911  48.639  49.430  1.00  0.00     0.172 HD
HETATM   17  H   UNL     1      24.179  46.505  49.387  1.00  0.00     0.164 HD
BRANCH  14  18
HETATM   18  C   UNL     1      24.884  48.772  49.227  1.00  0.00     0.174 A 
HETATM   19  S   UNL     1      24.928  49.989  48.034  1.00  0.00    -0.062 SA
HETATM   20  C   UNL     1      23.281  50.340  48.368  1.00  0.00     0.072 A 
HETATM   21  C   UNL     1      22.820  49.499  49.359  1.00  0.00     0.126 A 
HETATM   22  N   UNL     1      23.742  48.592  49.848  1.00  0.00    -0.236 NA
ENDBRANCH  14  18
ENDBRANCH  11  12
ENDBRANCH   8  11
ENDBRANCH   3   7
BRANCH   1  23
HETATM   23  C   UNL     1      28.671  44.607  54.695  1.00  0.00     0.059 A 
HETATM   24  C   UNL     1      29.702  43.855  55.272  1.00  0.00     0.047 A 
HETATM   25  C   UNL     1      30.456  44.346  56.354  1.00  0.00     0.050 A 
HETATM   26  C   UNL     1      30.158  45.615  56.868  1.00  0.00     0.018 A 
HETATM   27  C   UNL     1      29.138  46.382  56.300  1.00  0.00     0.027 A 
HETATM   28  C   UNL     1      28.404  45.884  55.218  1.00  0.00     0.060 A 
HETATM   29 CL   UNL     1      27.156  46.883  54.552  1.00  0.00    -0.082 Cl
BRANCH  25  30
HETATM   30  C   UNL     1      31.552  43.494  56.949  1.00  0.00     0.417 C 
HETATM   31  F   UNL     1      32.489  43.110  56.037  1.00  0.00    -0.166 F 
HETATM   32  F   UNL     1      32.236  44.136  57.935  1.00  0.00    -0.166 F 
HETATM   33  F   UNL     1      31.082  42.342  57.501  1.00  0.00    -0.166 F 
ENDBRANCH  25  30
ENDBRANCH   1  23
TORSDOF 6
ENDMDL
MODEL 7
REMARK VINA RESULT:      -8.8      5.531      9.363
REMARK  6 active torsions:
REMARK  status: ('A' for Active; 'I' for Inactive)
REMARK    1  A    between atoms: C_2  and  C_3 
REMARK    2  A    between atoms: C_8  and  N_9 
REMARK       I    between atoms: N_9  and  C_10 
REMARK       I    between atoms: C_10  and  N_11 
REMARK    3  A    between atoms: N_11  and  N_12 
REMARK       I    between atoms: N_12  and  C_13 
REMARK    4  A    between atoms: C_13  and  C_14 
REMARK    5  A    between atoms: C_14  and  N_15 
REMARK       I    between atoms: N_15  and  C_16 
REMARK       I    between atoms: C_16  and  N_17 
REMARK    6  A    between atoms: N_17  and  C_18 
ROOT
HETATM    1  N   UNL     1      25.266  46.979  50.305  1.00  0.00    -0.306 N 
HETATM    2  C   UNL     1      25.140  45.664  49.941  1.00  0.00     0.339 C 
HETATM    3  N   UNL     1      25.431  44.761  50.931  1.00  0.00    -0.249 N 
HETATM    4  O   UNL     1      24.790  45.246  48.841  1.00  0.00    -0.245 OA
HETATM    5  H   UNL     1      25.775  47.138  51.165  1.00  0.00     0.171 HD
HETATM    6  H   UNL     1      25.456  43.776  50.667  1.00  0.00     0.192 HD
ENDROOT
BRANCH   3   7
HETATM    7  N   UNL     1      25.899  45.081  52.216  1.00  0.00    -0.265 N 
HETATM    8  C   UNL     1      26.403  44.002  52.933  1.00  0.00     0.253 C 
HETATM    9  O   UNL     1      26.591  42.900  52.412  1.00  0.00    -0.270 OA
HETATM   10  H   UNL     1      25.353  45.760  52.757  1.00  0.00     0.190 HD
BRANCH   8  11
HETATM   11  C   UNL     1      26.506  44.203  54.445  1.00  0.00     0.228 C 
BRANCH  11  12
HETATM   12  N   UNL     1      27.793  44.671  54.913  1.00  0.00    -0.334 N 
HETATM   13  C   UNL     1      28.134  45.983  54.975  1.00  0.00     0.322 C 
HETATM   14  N   UNL     1      29.264  46.314  55.651  1.00  0.00    -0.287 N 
HETATM   15  O   UNL     1      27.464  46.847  54.408  1.00  0.00    -0.247 OA
HETATM   16  H   UNL     1      29.509  47.293  55.671  1.00  0.00     0.172 HD
HETATM   17  H   UNL     1      28.369  44.026  55.452  1.00  0.00     0.164 HD
BRANCH  14  18
HETATM   18  C   UNL     1      30.084  45.439  56.304  1.00  0.00     0.174 A 
HETATM   19  S   UNL     1      30.345  45.783  57.953  1.00  0.00    -0.062 SA
HETATM   20  C   UNL     1      31.372  44.410  58.049  1.00  0.00     0.072 A 
HETATM   21  C   UNL     1      31.433  43.789  56.820  1.00  0.00     0.126 A 
HETATM   22  N   UNL     1      30.685  44.380  55.817  1.00  0.00    -0.236 NA
ENDBRANCH  14  18
ENDBRANCH  11  12
ENDBRANCH   8  11
ENDBRANCH   3   7
BRANCH   1  23
HETATM   23  C   UNL     1      24.927  48.121  49.540  1.00  0.00     0.059 A 
HETATM   24  C   UNL     1      23.608  48.572  49.398  1.00  0.00     0.047 A 
HETATM   25  C   UNL     1      23.300  49.720  48.646  1.00  0.00     0.050 A 
HETATM   26  C   UNL     1      24.338  50.421  48.019  1.00  0.00     0.018 A 
HETATM   27  C   UNL     1      25.660  49.991  48.157  1.00  0.00     0.027 A 
HETATM   28  C   UNL     1      25.952  48.853  48.916  1.00  0.00     0.060 A 
HETATM   29 CL   UNL     1      27.610  48.371  49.056  1.00  0.00    -0.082 Cl
BRANCH  25  30
HETATM   30  C   UNL     1      21.861  50.162  48.513  1.00  0.00     0.417 C 
HETATM   31  F   UNL     1      21.573  51.279  49.240  1.00  0.00    -0.166 F 
HETATM   32  F   UNL     1      21.522  50.459  47.229  1.00  0.00    -0.166 F 
HETATM   33  F   UNL     1      20.978  49.214  48.929  1.00  0.00    -0.166 F 
ENDBRANCH  25  30
ENDBRANCH   1  23
TORSDOF 6
ENDMDL
MODEL 8
REMARK VINA RESULT:      -8.7      2.890      3.596
REMARK  6 active torsions:
REMARK  status: ('A' for Active; 'I' for Inactive)
REMARK    1  A    between atoms: C_2  and  C_3 
REMARK    2  A    between atoms: C_8  and  N_9 
REMARK       I    between atoms: N_9  and  C_10 
REMARK       I    between atoms: C_10  and  N_11 
REMARK    3  A    between atoms: N_11  and  N_12 
REMARK       I    between atoms: N_12  and  C_13 
REMARK    4  A    between atoms: C_13  and  C_14 
REMARK    5  A    between atoms: C_14  and  N_15 
REMARK       I    between atoms: N_15  and  C_16 
REMARK       I    between atoms: C_16  and  N_17 
REMARK    6  A    between atoms: N_17  and  C_18 
ROOT
HETATM    1  N   UNL     1      25.862  45.322  51.648  1.00  0.00    -0.306 N 
HETATM    2  C   UNL     1      26.054  45.949  50.445  1.00  0.00     0.339 C 
HETATM    3  N   UNL     1      24.935  46.041  49.658  1.00  0.00    -0.249 N 
HETATM    4  O   UNL     1      27.108  46.426  50.036  1.00  0.00    -0.245 OA
HETATM    5  H   UNL     1      25.000  44.797  51.725  1.00  0.00     0.171 HD
HETATM    6  H   UNL     1      25.062  46.400  48.711  1.00  0.00     0.192 HD
ENDROOT
BRANCH   3   7
HETATM    7  N   UNL     1      23.677  45.494  49.959  1.00  0.00    -0.265 N 
HETATM    8  C   UNL     1      23.144  44.684  48.963  1.00  0.00     0.253 C 
HETATM    9  O   UNL     1      23.805  44.331  47.983  1.00  0.00    -0.270 OA
HETATM   10  H   UNL     1      23.008  46.101  50.446  1.00  0.00     0.190 HD
BRANCH   8  11
HETATM   11  C   UNL     1      21.638  44.437  49.047  1.00  0.00     0.228 C 
BRANCH  11  12
HETATM   12  N   UNL     1      20.815  45.622  48.924  1.00  0.00    -0.334 N 
HETATM   13  C   UNL     1      19.479  45.582  48.692  1.00  0.00     0.322 C 
HETATM   14  N   UNL     1      18.776  46.735  48.836  1.00  0.00    -0.287 N 
HETATM   15  O   UNL     1      18.921  44.546  48.329  1.00  0.00    -0.247 OA
HETATM   16  H   UNL     1      17.787  46.688  48.643  1.00  0.00     0.172 HD
HETATM   17  H   UNL     1      21.191  46.503  49.272  1.00  0.00     0.164 HD
BRANCH  14  18
HETATM   18  C   UNL     1      19.293  47.938  49.222  1.00  0.00     0.174 A 
HETATM   19  S   UNL     1      18.565  48.632  50.597  1.00  0.00    -0.062 SA
HETATM   20  C   UNL     1      19.626  49.973  50.451  1.00  0.00     0.072 A 
HETATM   21  C   UNL     1      20.461  49.788  49.368  1.00  0.00     0.126 A 
HETATM   22  N   UNL     1      20.272  48.611  48.666  1.00  0.00    -0.236 NA
ENDBRANCH  14  18
ENDBRANCH  11  12
ENDBRANCH   8  11
ENDBRANCH   3   7
BRANCH   1  23
HETATM   23  C   UNL     1      26.793  45.182  52.705  1.00  0.00     0.059 A 
HETATM   24  C   UNL     1      27.748  44.156  52.740  1.00  0.00     0.047 A 
HETATM   25  C   UNL     1      28.674  44.049  53.795  1.00  0.00     0.050 A 
HETATM   26  C   UNL     1      28.629  44.986  54.836  1.00  0.00     0.018 A 
HETATM   27  C   UNL     1      27.690  46.019  54.813  1.00  0.00     0.027 A 
HETATM   28  C   UNL     1      26.782  46.119  53.752  1.00  0.00     0.060 A 
HETATM   29 CL   UNL     1      25.644  47.424  53.775  1.00  0.00    -0.082 Cl
BRANCH  25  30
HETATM   30  C   UNL     1      29.679  42.920  53.795  1.00  0.00     0.417 C 
HETATM   31  F   UNL     1      30.581  43.006  54.813  1.00  0.00    -0.166 F 
HETATM   32  F   UNL     1      29.093  41.699  53.920  1.00  0.00    -0.166 F 
HETATM   33  F   UNL     1      30.417  42.873  52.653  1.00  0.00    -0.166 F 
ENDBRANCH  25  30
ENDBRANCH   1  23
TORSDOF 6
ENDMDL
MODEL 9
REMARK VINA RESULT:      -8.7      5.334      7.152
REMARK  6 active torsions:
REMARK  status: ('A' for Active; 'I' for Inactive)
REMARK    1  A    between atoms: C_2  and  C_3 
REMARK    2  A    between atoms: C_8  and  N_9 
REMARK       I    between atoms: N_9  and  C_10 
REMARK       I    between atoms: C_10  and  N_11 
REMARK    3  A    between atoms: N_11  and  N_12 
REMARK       I    between atoms: N_12  and  C_13 
REMARK    4  A    between atoms: C_13  and  C_14 
REMARK    5  A    between atoms: C_14  and  N_15 
REMARK       I    between atoms: N_15  and  C_16 
REMARK       I    between atoms: C_16  and  N_17 
REMARK    6  A    between atoms: N_17  and  C_18 
ROOT
HETATM    1  N   UNL     1      28.042  44.651  53.582  1.00  0.00    -0.306 N 
HETATM    2  C   UNL     1      27.206  45.720  53.393  1.00  0.00     0.339 C 
HETATM    3  N   UNL     1      26.277  45.556  52.398  1.00  0.00    -0.249 N 
HETATM    4  O   UNL     1      27.216  46.770  54.028  1.00  0.00    -0.245 OA
HETATM    5  H   UNL     1      28.043  43.971  52.832  1.00  0.00     0.171 HD
HETATM    6  H   UNL     1      25.711  46.369  52.153  1.00  0.00     0.192 HD
ENDROOT
BRANCH   3   7
HETATM    7  N   UNL     1      26.178  44.442  51.548  1.00  0.00    -0.265 N 
HETATM    8  C   UNL     1      24.893  43.928  51.416  1.00  0.00     0.253 C 
HETATM    9  O   UNL     1      23.904  44.516  51.860  1.00  0.00    -0.270 OA
HETATM   10  H   UNL     1      26.933  43.750  51.595  1.00  0.00     0.190 HD
BRANCH   8  11
HETATM   11  C   UNL     1      24.805  42.499  50.881  1.00  0.00     0.228 C 
BRANCH  11  12
HETATM   12  N   UNL     1      26.001  42.017  50.223  1.00  0.00    -0.334 N 
HETATM   13  C   UNL     1      27.080  41.539  50.892  1.00  0.00     0.322 C 
HETATM   14  N   UNL     1      28.038  40.896  50.176  1.00  0.00    -0.287 N 
HETATM   15  O   UNL     1      27.211  41.711  52.105  1.00  0.00    -0.247 OA
HETATM   16  H   UNL     1      28.839  40.563  50.689  1.00  0.00     0.172 HD
HETATM   17  H   UNL     1      25.942  41.787  49.232  1.00  0.00     0.164 HD
BRANCH  14  18
HETATM   18  C   UNL     1      27.999  40.660  48.831  1.00  0.00     0.174 A 
HETATM   19  S   UNL     1      28.266  39.042  48.370  1.00  0.00    -0.062 SA
HETATM   20  C   UNL     1      28.102  39.510  46.727  1.00  0.00     0.072 A 
HETATM   21  C   UNL     1      27.849  40.863  46.653  1.00  0.00     0.126 A 
HETATM   22  N   UNL     1      27.784  41.524  47.867  1.00  0.00    -0.236 NA
ENDBRANCH  14  18
ENDBRANCH  11  12
ENDBRANCH   8  11
ENDBRANCH   3   7
BRANCH   1  23
HETATM   23  C   UNL     1      29.014  44.486  54.598  1.00  0.00     0.059 A 
HETATM   24  C   UNL     1      28.987  45.215  55.795  1.00  0.00     0.047 A 
HETATM   25  C   UNL     1      29.955  45.019  56.797  1.00  0.00     0.050 A 
HETATM   26  C   UNL     1      30.973  44.080  56.585  1.00  0.00     0.018 A 
HETATM   27  C   UNL     1      31.010  43.339  55.401  1.00  0.00     0.027 A 
HETATM   28  C   UNL     1      30.035  43.537  54.418  1.00  0.00     0.060 A 
HETATM   29 CL   UNL     1      30.129  42.586  52.974  1.00  0.00    -0.082 Cl
BRANCH  25  30
HETATM   30  C   UNL     1      29.891  45.835  58.067  1.00  0.00     0.417 C 
HETATM   31  F   UNL     1      30.905  46.741  58.175  1.00  0.00    -0.166 F 
HETATM   32  F   UNL     1      28.741  46.554  58.169  1.00  0.00    -0.166 F 
HETATM   33  F   UNL     1      29.962  45.069  59.189  1.00  0.00    -0.166 F 
ENDBRANCH  25  30
ENDBRANCH   1  23
TORSDOF 6
ENDMDL
MODEL 10
REMARK VINA RESULT:      -8.7      2.900      4.265
REMARK  6 active torsions:
REMARK  status: ('A' for Active; 'I' for Inactive)
REMARK    1  A    between atoms: C_2  and  C_3 
REMARK    2  A    between atoms: C_8  and  N_9 
REMARK       I    between atoms: N_9  and  C_10 
REMARK       I    between atoms: C_10  and  N_11 
REMARK    3  A    between atoms: N_11  and  N_12 
REMARK       I    between atoms: N_12  and  C_13 
REMARK    4  A    between atoms: C_13  and  C_14 
REMARK    5  A    between atoms: C_14  and  N_15 
REMARK       I    between atoms: N_15  and  C_16 
REMARK       I    between atoms: C_16  and  N_17 
REMARK    6  A    between atoms: N_17  and  C_18 
ROOT
HETATM    1  N   UNL     1      25.177  47.284  50.990  1.00  0.00    -0.306 N 
HETATM    2  C   UNL     1      25.852  47.379  49.802  1.00  0.00     0.339 C 
HETATM    3  N   UNL     1      25.317  48.266  48.904  1.00  0.00    -0.249 N 
HETATM    4  O   UNL     1      26.867  46.762  49.493  1.00  0.00    -0.245 OA
HETATM    5  H   UNL     1      24.249  47.687  50.989  1.00  0.00     0.171 HD
HETATM    6  H   UNL     1      25.725  48.283  47.969  1.00  0.00     0.192 HD
ENDROOT
BRANCH   3   7
HETATM    7  N   UNL     1      24.132  48.998  49.086  1.00  0.00    -0.265 N 
HETATM    8  C   UNL     1      23.978  50.073  48.219  1.00  0.00     0.253 C 
HETATM    9  O   UNL     1      24.727  50.250  47.256  1.00  0.00    -0.270 OA
HETATM   10  H   UNL     1      23.824  49.156  50.052  1.00  0.00     0.190 HD
BRANCH   8  11
HETATM   11  C   UNL     1      22.963  51.131  48.652  1.00  0.00     0.228 C 
BRANCH  11  12
HETATM   12  N   UNL     1      21.704  50.609  49.140  1.00  0.00    -0.334 N 
HETATM   13  C   UNL     1      21.260  50.794  50.408  1.00  0.00     0.322 C 
HETATM   14  N   UNL     1      19.970  50.471  50.682  1.00  0.00    -0.287 N 
HETATM   15  O   UNL     1      22.007  51.207  51.296  1.00  0.00    -0.247 OA
HETATM   16  H   UNL     1      19.664  50.600  51.634  1.00  0.00     0.172 HD
HETATM   17  H   UNL     1      21.011  50.316  48.453  1.00  0.00     0.164 HD
BRANCH  14  18
HETATM   18  C   UNL     1      19.061  49.997  49.779  1.00  0.00     0.174 A 
HETATM   19  S   UNL     1      18.602  48.371  49.998  1.00  0.00    -0.062 SA
HETATM   20  C   UNL     1      17.579  48.502  48.626  1.00  0.00     0.072 A 
HETATM   21  C   UNL     1      17.659  49.778  48.108  1.00  0.00     0.126 A 
HETATM   22  N   UNL     1      18.509  50.640  48.778  1.00  0.00    -0.236 NA
ENDBRANCH  14  18
ENDBRANCH  11  12
ENDBRANCH   8  11
ENDBRANCH   3   7
BRANCH   1  23
HETATM   23  C   UNL     1      25.553  46.547  52.139  1.00  0.00     0.059 A 
HETATM   24  C   UNL     1      26.372  47.079  53.144  1.00  0.00     0.047 A 
HETATM   25  C   UNL     1      26.718  46.331  54.285  1.00  0.00     0.050 A 
HETATM   26  C   UNL     1      26.236  45.021  54.409  1.00  0.00     0.018 A 
HETATM   27  C   UNL     1      25.412  44.478  53.421  1.00  0.00     0.027 A 
HETATM   28  C   UNL     1      25.069  45.237  52.298  1.00  0.00     0.060 A 
HETATM   29 CL   UNL     1      24.039  44.513  51.109  1.00  0.00    -0.082 Cl
BRANCH  25  30
HETATM   30  C   UNL     1      27.612  46.943  55.338  1.00  0.00     0.417 C 
HETATM   31  F   UNL     1      28.623  47.692  54.813  1.00  0.00    -0.166 F 
HETATM   32  F   UNL     1      26.937  47.770  56.180  1.00  0.00    -0.166 F 
HETATM   33  F   UNL     1      28.216  46.010  56.123  1.00  0.00    -0.166 F 
ENDBRANCH  25  30
ENDBRANCH   1  23
TORSDOF 6
ENDMDL
