MODEL 1
REMARK VINA RESULT:      -8.5      0.000      0.000
REMARK  3 active torsions:
REMARK  status: ('A' for Active; 'I' for Inactive)
REMARK    1  A    between atoms: C_7  and  C_8 
REMARK    2  A    between atoms: N_11  and  C_13 
REMARK    3  A    between atoms: C_13  and  C_14 
ROOT
HETATM    1  C   UNL     1      25.464  45.176  53.443  1.00  0.00     0.024 C 
HETATM    2  C   UNL     1      24.752  45.007  52.084  1.00  0.00     0.037 C 
HETATM    3  C   UNL     1      25.568  45.602  50.943  1.00  0.00     0.236 C 
HETATM    4  N   UNL     1      25.865  47.064  51.196  1.00  0.00    -0.067 N 
HETATM    5  H   UNL     1      24.978  47.583  51.154  1.00  0.00     0.280 HD
HETATM    6  C   UNL     1      26.472  47.323  52.558  1.00  0.00     0.236 C 
HETATM    7  C   UNL     1      25.620  46.684  53.646  1.00  0.00     0.037 C 
ENDROOT
BRANCH   1   8
HETATM    8  C   UNL     1      26.748  44.358  53.532  1.00  0.00    -0.026 A 
HETATM    9  C   UNL     1      27.902  44.504  54.395  1.00  0.00    -0.001 A 
HETATM   10  C   UNL     1      28.839  43.540  54.003  1.00  0.00     0.045 A 
HETATM   11  C   UNL     1      28.271  45.358  55.464  1.00  0.00     0.017 A 
HETATM   12  C   UNL     1      30.116  43.429  54.572  1.00  0.00     0.072 A 
HETATM   13  N   UNL     1      28.256  42.768  53.032  1.00  0.00    -0.365 N 
HETATM   14  C   UNL     1      30.445  44.317  55.588  1.00  0.00     0.118 A 
HETATM   15  C   UNL     1      29.543  45.262  56.044  1.00  0.00     0.043 A 
HETATM   16  F   UNL     1      31.660  44.250  56.148  1.00  0.00    -0.206 F 
HETATM   17  C   UNL     1      27.007  43.241  52.751  1.00  0.00     0.096 A 
HETATM   18  H   UNL     1      28.689  41.958  52.607  1.00  0.00     0.165 HD
ENDBRANCH   1   8
BRANCH   4  19
HETATM   19  C   UNL     1      26.728  47.616  50.068  1.00  0.00     0.282 C 
BRANCH  19  20
HETATM   20  C   UNL     1      26.029  48.579  49.180  1.00  0.00     0.027 A 
HETATM   21  S   UNL     1      24.315  48.663  49.110  1.00  0.00    -0.084 SA
HETATM   22  C   UNL     1      24.440  49.929  47.958  1.00  0.00     0.166 A 
HETATM   23  N   UNL     1      25.661  50.290  47.638  1.00  0.00    -0.265 NA
HETATM   24  C   UNL     1      26.571  49.509  48.314  1.00  0.00     0.133 A 
ENDBRANCH  19  20
ENDBRANCH   4  19
TORSDOF 3
ENDMDL
MODEL 2
REMARK VINA RESULT:      -8.3      1.418      2.164
REMARK  3 active torsions:
REMARK  status: ('A' for Active; 'I' for Inactive)
REMARK    1  A    between atoms: C_7  and  C_8 
REMARK    2  A    between atoms: N_11  and  C_13 
REMARK    3  A    between atoms: C_13  and  C_14 
ROOT
HETATM    1  C   UNL     1      25.996  44.192  51.300  1.00  0.00     0.024 C 
HETATM    2  C   UNL     1      26.767  44.497  49.998  1.00  0.00     0.037 C 
HETATM    3  C   UNL     1      26.987  45.993  49.812  1.00  0.00     0.236 C 
HETATM    4  N   UNL     1      25.671  46.739  49.822  1.00  0.00    -0.067 N 
HETATM    5  H   UNL     1      25.141  46.466  48.982  1.00  0.00     0.280 HD
HETATM    6  C   UNL     1      24.808  46.410  51.021  1.00  0.00     0.236 C 
HETATM    7  C   UNL     1      24.648  44.902  51.160  1.00  0.00     0.037 C 
ENDROOT
BRANCH   1   8
HETATM    8  C   UNL     1      26.802  44.537  52.548  1.00  0.00    -0.026 A 
HETATM    9  C   UNL     1      28.066  44.018  53.029  1.00  0.00    -0.001 A 
HETATM   10  C   UNL     1      28.315  44.614  54.271  1.00  0.00     0.045 A 
HETATM   11  C   UNL     1      29.030  43.092  52.557  1.00  0.00     0.017 A 
HETATM   12  C   UNL     1      29.421  44.296  55.071  1.00  0.00     0.072 A 
HETATM   13  N   UNL     1      27.322  45.533  54.494  1.00  0.00    -0.365 N 
HETATM   14  C   UNL     1      30.316  43.352  54.584  1.00  0.00     0.118 A 
HETATM   15  C   UNL     1      30.141  42.762  53.344  1.00  0.00     0.043 A 
HETATM   16  F   UNL     1      31.378  43.013  55.326  1.00  0.00    -0.206 F 
HETATM   17  C   UNL     1      26.421  45.502  53.469  1.00  0.00     0.096 A 
HETATM   18  H   UNL     1      27.284  46.152  55.294  1.00  0.00     0.165 HD
ENDBRANCH   1   8
BRANCH   4  19
HETATM   19  C   UNL     1      25.925  48.235  49.689  1.00  0.00     0.282 C 
BRANCH  19  20
HETATM   20  C   UNL     1      24.910  48.958  48.881  1.00  0.00     0.027 A 
HETATM   21  S   UNL     1      23.232  48.626  49.032  1.00  0.00    -0.084 SA
HETATM   22  C   UNL     1      22.904  49.826  47.850  1.00  0.00     0.166 A 
HETATM   23  N   UNL     1      23.953  50.453  47.369  1.00  0.00    -0.265 NA
HETATM   24  C   UNL     1      25.101  49.946  47.935  1.00  0.00     0.133 A 
ENDBRANCH  19  20
ENDBRANCH   4  19
TORSDOF 3
ENDMDL
MODEL 3
REMARK VINA RESULT:      -8.1      1.498      2.122
REMARK  3 active torsions:
REMARK  status: ('A' for Active; 'I' for Inactive)
REMARK    1  A    between atoms: C_7  and  C_8 
REMARK    2  A    between atoms: N_11  and  C_13 
REMARK    3  A    between atoms: C_13  and  C_14 
ROOT
HETATM    1  C   UNL     1      26.232  44.142  53.706  1.00  0.00     0.024 C 
HETATM    2  C   UNL     1      26.727  43.413  52.439  1.00  0.00     0.037 C 
HETATM    3  C   UNL     1      27.201  44.393  51.374  1.00  0.00     0.236 C 
HETATM    4  N   UNL     1      26.105  45.373  51.014  1.00  0.00    -0.067 N 
HETATM    5  H   UNL     1      25.352  44.853  50.545  1.00  0.00     0.280 HD
HETATM    6  C   UNL     1      25.495  46.055  52.220  1.00  0.00     0.236 C 
HETATM    7  C   UNL     1      25.064  45.020  53.251  1.00  0.00     0.037 C 
ENDROOT
BRANCH   1   8
HETATM    8  C   UNL     1      27.358  44.863  54.439  1.00  0.00    -0.026 A 
HETATM    9  C   UNL     1      28.654  44.388  54.881  1.00  0.00    -0.001 A 
HETATM   10  C   UNL     1      29.264  45.435  55.582  1.00  0.00     0.045 A 
HETATM   11  C   UNL     1      29.380  43.175  54.779  1.00  0.00     0.017 A 
HETATM   12  C   UNL     1      30.507  45.315  56.219  1.00  0.00     0.072 A 
HETATM   13  N   UNL     1      28.446  46.530  55.483  1.00  0.00    -0.365 N 
HETATM   14  C   UNL     1      31.161  44.093  56.126  1.00  0.00     0.118 A 
HETATM   15  C   UNL     1      30.623  43.037  55.411  1.00  0.00     0.043 A 
HETATM   16  F   UNL     1      32.345  43.936  56.733  1.00  0.00    -0.206 F 
HETATM   17  C   UNL     1      27.312  46.203  54.795  1.00  0.00     0.096 A 
HETATM   18  H   UNL     1      28.668  47.447  55.850  1.00  0.00     0.165 HD
ENDBRANCH   1   8
BRANCH   4  19
HETATM   19  C   UNL     1      26.625  46.373  49.989  1.00  0.00     0.282 C 
BRANCH  19  20
HETATM   20  C   UNL     1      25.644  47.419  49.605  1.00  0.00     0.027 A 
HETATM   21  S   UNL     1      23.968  47.075  49.460  1.00  0.00    -0.084 SA
HETATM   22  C   UNL     1      23.683  48.715  49.041  1.00  0.00     0.166 A 
HETATM   23  N   UNL     1      24.744  49.488  49.015  1.00  0.00    -0.265 NA
HETATM   24  C   UNL     1      25.868  48.750  49.312  1.00  0.00     0.133 A 
ENDBRANCH  19  20
ENDBRANCH   4  19
TORSDOF 3
ENDMDL
MODEL 4
REMARK VINA RESULT:      -7.6      2.161      3.927
REMARK  3 active torsions:
REMARK  status: ('A' for Active; 'I' for Inactive)
REMARK    1  A    between atoms: C_7  and  C_8 
REMARK    2  A    between atoms: N_11  and  C_13 
REMARK    3  A    between atoms: C_13  and  C_14 
ROOT
HETATM    1  C   UNL     1      29.234  42.841  53.254  1.00  0.00     0.024 C 
HETATM    2  C   UNL     1      28.977  43.394  51.837  1.00  0.00     0.037 C 
HETATM    3  C   UNL     1      27.585  44.002  51.713  1.00  0.00     0.236 C 
HETATM    4  N   UNL     1      26.520  42.992  52.077  1.00  0.00    -0.067 N 
HETATM    5  H   UNL     1      26.524  42.251  51.363  1.00  0.00     0.280 HD
HETATM    6  C   UNL     1      26.760  42.326  53.415  1.00  0.00     0.236 C 
HETATM    7  C   UNL     1      28.173  41.761  53.477  1.00  0.00     0.037 C 
ENDROOT
BRANCH   1   8
HETATM    8  C   UNL     1      29.291  43.943  54.307  1.00  0.00    -0.026 A 
HETATM    9  C   UNL     1      30.083  44.054  55.515  1.00  0.00    -0.001 A 
HETATM   10  C   UNL     1      29.686  45.228  56.166  1.00  0.00     0.045 A 
HETATM   11  C   UNL     1      31.090  43.281  56.145  1.00  0.00     0.017 A 
HETATM   12  C   UNL     1      30.190  45.628  57.412  1.00  0.00     0.072 A 
HETATM   13  N   UNL     1      28.784  45.866  55.355  1.00  0.00    -0.365 N 
HETATM   14  C   UNL     1      31.145  44.815  58.008  1.00  0.00     0.118 A 
HETATM   15  C   UNL     1      31.605  43.665  57.390  1.00  0.00     0.043 A 
HETATM   16  F   UNL     1      31.641  45.157  59.205  1.00  0.00    -0.206 F 
HETATM   17  C   UNL     1      28.549  45.113  54.240  1.00  0.00     0.096 A 
HETATM   18  H   UNL     1      28.373  46.770  55.552  1.00  0.00     0.165 HD
ENDBRANCH   1   8
BRANCH   4  19
HETATM   19  C   UNL     1      25.144  43.643  51.998  1.00  0.00     0.282 C 
BRANCH  19  20
HETATM   20  C   UNL     1      25.171  45.083  51.635  1.00  0.00     0.027 A 
HETATM   21  S   UNL     1      24.909  45.613  50.022  1.00  0.00    -0.084 SA
HETATM   22  C   UNL     1      25.095  47.238  50.542  1.00  0.00     0.166 A 
HETATM   23  N   UNL     1      25.326  47.402  51.825  1.00  0.00    -0.265 NA
HETATM   24  C   UNL     1      25.393  46.177  52.448  1.00  0.00     0.133 A 
ENDBRANCH  19  20
ENDBRANCH   4  19
TORSDOF 3
ENDMDL
MODEL 5
REMARK VINA RESULT:      -7.3     12.694     14.884
REMARK  3 active torsions:
REMARK  status: ('A' for Active; 'I' for Inactive)
REMARK    1  A    between atoms: C_7  and  C_8 
REMARK    2  A    between atoms: N_11  and  C_13 
REMARK    3  A    between atoms: C_13  and  C_14 
ROOT
HETATM    1  C   UNL     1      31.443  50.577  43.065  1.00  0.00     0.024 C 
HETATM    2  C   UNL     1      32.697  51.218  43.696  1.00  0.00     0.037 C 
HETATM    3  C   UNL     1      33.830  51.352  42.685  1.00  0.00     0.236 C 
HETATM    4  N   UNL     1      34.180  50.009  42.083  1.00  0.00    -0.067 N 
HETATM    5  H   UNL     1      34.586  49.422  42.824  1.00  0.00     0.280 HD
HETATM    6  C   UNL     1      32.979  49.270  41.534  1.00  0.00     0.236 C 
HETATM    7  C   UNL     1      31.880  49.191  42.586  1.00  0.00     0.037 C 
ENDROOT
BRANCH   1   8
HETATM    8  C   UNL     1      30.802  51.472  42.010  1.00  0.00    -0.026 A 
HETATM    9  C   UNL     1      29.722  51.210  41.080  1.00  0.00    -0.001 A 
HETATM   10  C   UNL     1      29.585  52.346  40.272  1.00  0.00     0.045 A 
HETATM   11  C   UNL     1      28.847  50.127  40.817  1.00  0.00     0.017 A 
HETATM   12  C   UNL     1      28.679  52.428  39.205  1.00  0.00     0.072 A 
HETATM   13  N   UNL     1      30.449  53.297  40.746  1.00  0.00    -0.365 N 
HETATM   14  C   UNL     1      27.872  51.324  38.961  1.00  0.00     0.118 A 
HETATM   15  C   UNL     1      27.937  50.192  39.754  1.00  0.00     0.043 A 
HETATM   16  F   UNL     1      27.003  51.360  37.942  1.00  0.00    -0.206 F 
HETATM   17  C   UNL     1      31.172  52.791  41.788  1.00  0.00     0.096 A 
HETATM   18  H   UNL     1      30.520  54.241  40.384  1.00  0.00     0.165 HD
ENDBRANCH   1   8
BRANCH   4  19
HETATM   19  C   UNL     1      35.275  50.183  41.038  1.00  0.00     0.282 C 
BRANCH  19  20
HETATM   20  C   UNL     1      35.227  51.479  40.314  1.00  0.00     0.027 A 
HETATM   21  S   UNL     1      36.473  52.650  40.474  1.00  0.00    -0.084 SA
HETATM   22  C   UNL     1      35.634  53.670  39.378  1.00  0.00     0.166 A 
HETATM   23  N   UNL     1      34.508  53.191  38.903  1.00  0.00    -0.265 NA
HETATM   24  C   UNL     1      34.258  51.952  39.451  1.00  0.00     0.133 A 
ENDBRANCH  19  20
ENDBRANCH   4  19
TORSDOF 3
ENDMDL
MODEL 6
REMARK VINA RESULT:      -7.2      3.146      4.479
REMARK  3 active torsions:
REMARK  status: ('A' for Active; 'I' for Inactive)
REMARK    1  A    between atoms: C_7  and  C_8 
REMARK    2  A    between atoms: N_11  and  C_13 
REMARK    3  A    between atoms: C_13  and  C_14 
ROOT
HETATM    1  C   UNL     1      26.949  45.874  53.701  1.00  0.00     0.024 C 
HETATM    2  C   UNL     1      25.586  45.346  54.194  1.00  0.00     0.037 C 
HETATM    3  C   UNL     1      25.173  44.078  53.456  1.00  0.00     0.236 C 
HETATM    4  N   UNL     1      25.130  44.311  51.962  1.00  0.00    -0.067 N 
HETATM    5  H   UNL     1      24.363  44.967  51.762  1.00  0.00     0.280 HD
HETATM    6  C   UNL     1      26.401  44.928  51.418  1.00  0.00     0.236 C 
HETATM    7  C   UNL     1      26.766  46.175  52.212  1.00  0.00     0.037 C 
ENDROOT
BRANCH   1   8
HETATM    8  C   UNL     1      28.098  44.933  54.051  1.00  0.00    -0.026 A 
HETATM    9  C   UNL     1      28.982  44.909  55.199  1.00  0.00    -0.001 A 
HETATM   10  C   UNL     1      29.918  43.891  54.981  1.00  0.00     0.045 A 
HETATM   11  C   UNL     1      29.109  45.650  56.400  1.00  0.00     0.017 A 
HETATM   12  C   UNL     1      30.980  43.620  55.855  1.00  0.00     0.072 A 
HETATM   13  N   UNL     1      29.566  43.246  53.824  1.00  0.00    -0.365 N 
HETATM   14  C   UNL     1      31.086  44.401  56.999  1.00  0.00     0.118 A 
HETATM   15  C   UNL     1      30.165  45.394  57.284  1.00  0.00     0.043 A 
HETATM   16  F   UNL     1      32.095  44.181  57.851  1.00  0.00    -0.206 F 
HETATM   17  C   UNL     1      28.477  43.853  53.267  1.00  0.00     0.096 A 
HETATM   18  H   UNL     1      30.037  42.429  53.456  1.00  0.00     0.165 HD
ENDBRANCH   1   8
BRANCH   4  19
HETATM   19  C   UNL     1      24.770  43.014  51.249  1.00  0.00     0.282 C 
BRANCH  19  20
HETATM   20  C   UNL     1      25.939  42.243  50.755  1.00  0.00     0.027 A 
HETATM   21  S   UNL     1      26.411  42.278  49.104  1.00  0.00    -0.084 SA
HETATM   22  C   UNL     1      27.712  41.220  49.470  1.00  0.00     0.166 A 
HETATM   23  N   UNL     1      27.816  40.859  50.729  1.00  0.00    -0.265 NA
HETATM   24  C   UNL     1      26.794  41.420  51.461  1.00  0.00     0.133 A 
ENDBRANCH  19  20
ENDBRANCH   4  19
TORSDOF 3
ENDMDL
MODEL 7
REMARK VINA RESULT:      -7.2     12.719     14.070
REMARK  3 active torsions:
REMARK  status: ('A' for Active; 'I' for Inactive)
REMARK    1  A    between atoms: C_7  and  C_8 
REMARK    2  A    between atoms: N_11  and  C_13 
REMARK    3  A    between atoms: C_13  and  C_14 
ROOT
HETATM    1  C   UNL     1      29.783  53.037  40.161  1.00  0.00     0.024 C 
HETATM    2  C   UNL     1      28.959  52.562  41.375  1.00  0.00     0.037 C 
HETATM    3  C   UNL     1      28.348  51.186  41.138  1.00  0.00     0.236 C 
HETATM    4  N   UNL     1      27.488  51.184  39.894  1.00  0.00    -0.067 N 
HETATM    5  H   UNL     1      26.671  51.784  40.068  1.00  0.00     0.280 HD
HETATM    6  C   UNL     1      28.198  51.737  38.676  1.00  0.00     0.236 C 
HETATM    7  C   UNL     1      28.801  53.099  38.989  1.00  0.00     0.037 C 
ENDROOT
BRANCH   1   8
HETATM    8  C   UNL     1      31.030  52.188  39.936  1.00  0.00    -0.026 A 
HETATM    9  C   UNL     1      32.049  51.742  40.865  1.00  0.00    -0.001 A 
HETATM   10  C   UNL     1      33.021  51.062  40.121  1.00  0.00     0.045 A 
HETATM   11  C   UNL     1      32.269  51.850  42.260  1.00  0.00     0.017 A 
HETATM   12  C   UNL     1      34.199  50.547  40.679  1.00  0.00     0.072 A 
HETATM   13  N   UNL     1      32.575  50.991  38.827  1.00  0.00    -0.365 N 
HETATM   14  C   UNL     1      34.388  50.715  42.045  1.00  0.00     0.118 A 
HETATM   15  C   UNL     1      33.442  51.343  42.836  1.00  0.00     0.043 A 
HETATM   16  F   UNL     1      35.508  50.248  42.613  1.00  0.00    -0.206 F 
HETATM   17  C   UNL     1      31.386  51.650  38.707  1.00  0.00     0.096 A 
HETATM   18  H   UNL     1      33.055  50.501  38.081  1.00  0.00     0.165 HD
ENDBRANCH   1   8
BRANCH   4  19
HETATM   19  C   UNL     1      26.937  49.784  39.652  1.00  0.00     0.282 C 
BRANCH  19  20
HETATM   20  C   UNL     1      27.972  48.720  39.604  1.00  0.00     0.027 A 
HETATM   21  S   UNL     1      28.047  47.480  40.790  1.00  0.00    -0.084 SA
HETATM   22  C   UNL     1      29.398  46.804  39.975  1.00  0.00     0.166 A 
HETATM   23  N   UNL     1      29.780  47.433  38.887  1.00  0.00    -0.265 NA
HETATM   24  C   UNL     1      28.986  48.539  38.684  1.00  0.00     0.133 A 
ENDBRANCH  19  20
ENDBRANCH   4  19
TORSDOF 3
ENDMDL
MODEL 8
REMARK VINA RESULT:      -7.0     11.871     13.975
REMARK  3 active torsions:
REMARK  status: ('A' for Active; 'I' for Inactive)
REMARK    1  A    between atoms: C_7  and  C_8 
REMARK    2  A    between atoms: N_11  and  C_13 
REMARK    3  A    between atoms: C_13  and  C_14 
ROOT
HETATM    1  C   UNL     1      31.949  49.025  42.373  1.00  0.00     0.024 C 
HETATM    2  C   UNL     1      32.440  47.885  41.457  1.00  0.00     0.037 C 
HETATM    3  C   UNL     1      31.592  47.771  40.196  1.00  0.00     0.236 C 
HETATM    4  N   UNL     1      30.133  47.568  40.541  1.00  0.00    -0.067 N 
HETATM    5  H   UNL     1      30.034  46.644  40.983  1.00  0.00     0.280 HD
HETATM    6  C   UNL     1      29.604  48.592  41.523  1.00  0.00     0.236 C 
HETATM    7  C   UNL     1      30.508  48.669  42.745  1.00  0.00     0.037 C 
ENDROOT
BRANCH   1   8
HETATM    8  C   UNL     1      32.152  50.401  41.748  1.00  0.00    -0.026 A 
HETATM    9  C   UNL     1      31.196  51.439  41.417  1.00  0.00    -0.001 A 
HETATM   10  C   UNL     1      31.902  52.468  40.782  1.00  0.00     0.045 A 
HETATM   11  C   UNL     1      29.799  51.619  41.571  1.00  0.00     0.017 A 
HETATM   12  C   UNL     1      31.289  53.613  40.255  1.00  0.00     0.072 A 
HETATM   13  N   UNL     1      33.232  52.140  40.819  1.00  0.00    -0.365 N 
HETATM   14  C   UNL     1      29.911  53.724  40.394  1.00  0.00     0.118 A 
HETATM   15  C   UNL     1      29.169  52.757  41.049  1.00  0.00     0.043 A 
HETATM   16  F   UNL     1      29.287  54.798  39.892  1.00  0.00    -0.206 F 
HETATM   17  C   UNL     1      33.393  50.915  41.401  1.00  0.00     0.096 A 
HETATM   18  H   UNL     1      33.979  52.734  40.481  1.00  0.00     0.165 HD
ENDBRANCH   1   8
BRANCH   4  19
HETATM   19  C   UNL     1      29.305  47.513  39.264  1.00  0.00     0.282 C 
BRANCH  19  20
HETATM   20  C   UNL     1      28.722  48.817  38.858  1.00  0.00     0.027 A 
HETATM   21  S   UNL     1      27.036  49.125  38.966  1.00  0.00    -0.084 SA
HETATM   22  C   UNL     1      27.302  50.709  38.360  1.00  0.00     0.166 A 
HETATM   23  N   UNL     1      28.552  51.016  38.098  1.00  0.00    -0.265 NA
HETATM   24  C   UNL     1      29.363  49.934  38.357  1.00  0.00     0.133 A 
ENDBRANCH  19  20
ENDBRANCH   4  19
TORSDOF 3
ENDMDL
MODEL 9
REMARK VINA RESULT:      -6.9      7.570     10.134
REMARK  3 active torsions:
REMARK  status: ('A' for Active; 'I' for Inactive)
REMARK    1  A    between atoms: C_7  and  C_8 
REMARK    2  A    between atoms: N_11  and  C_13 
REMARK    3  A    between atoms: C_13  and  C_14 
ROOT
HETATM    1  C   UNL     1      18.922  51.646  49.611  1.00  0.00     0.024 C 
HETATM    2  C   UNL     1      17.454  51.219  49.814  1.00  0.00     0.037 C 
HETATM    3  C   UNL     1      16.911  50.476  48.598  1.00  0.00     0.236 C 
HETATM    4  N   UNL     1      17.039  51.319  47.348  1.00  0.00    -0.067 N 
HETATM    5  H   UNL     1      16.408  52.126  47.439  1.00  0.00     0.280 HD
HETATM    6  C   UNL     1      18.435  51.864  47.137  1.00  0.00     0.236 C 
HETATM    7  C   UNL     1      18.922  52.573  48.393  1.00  0.00     0.037 C 
ENDROOT
BRANCH   1   8
HETATM    8  C   UNL     1      19.871  50.454  49.538  1.00  0.00    -0.026 A 
HETATM    9  C   UNL     1      21.265  50.379  49.152  1.00  0.00    -0.001 A 
HETATM   10  C   UNL     1      21.632  49.028  49.178  1.00  0.00     0.045 A 
HETATM   11  C   UNL     1      22.264  51.307  48.765  1.00  0.00     0.017 A 
HETATM   12  C   UNL     1      22.897  48.565  48.792  1.00  0.00     0.072 A 
HETATM   13  N   UNL     1      20.563  48.319  49.662  1.00  0.00    -0.365 N 
HETATM   14  C   UNL     1      23.828  49.510  48.380  1.00  0.00     0.118 A 
HETATM   15  C   UNL     1      23.533  50.862  48.374  1.00  0.00     0.043 A 
HETATM   16  F   UNL     1      25.044  49.104  47.992  1.00  0.00    -0.206 F 
HETATM   17  C   UNL     1      19.512  49.161  49.889  1.00  0.00     0.096 A 
HETATM   18  H   UNL     1      20.569  47.323  49.840  1.00  0.00     0.165 HD
ENDBRANCH   1   8
BRANCH   4  19
HETATM   19  C   UNL     1      16.541  50.530  46.143  1.00  0.00     0.282 C 
BRANCH  19  20
HETATM   20  C   UNL     1      17.014  49.123  46.096  1.00  0.00     0.027 A 
HETATM   21  S   UNL     1      15.937  47.801  46.301  1.00  0.00    -0.084 SA
HETATM   22  C   UNL     1      17.253  46.718  46.094  1.00  0.00     0.166 A 
HETATM   23  N   UNL     1      18.421  47.276  45.876  1.00  0.00    -0.265 NA
HETATM   24  C   UNL     1      18.296  48.647  45.899  1.00  0.00     0.133 A 
ENDBRANCH  19  20
ENDBRANCH   4  19
TORSDOF 3
ENDMDL
MODEL 10
REMARK VINA RESULT:      -6.9      7.597     10.454
REMARK  3 active torsions:
REMARK  status: ('A' for Active; 'I' for Inactive)
REMARK    1  A    between atoms: C_7  and  C_8 
REMARK    2  A    between atoms: N_11  and  C_13 
REMARK    3  A    between atoms: C_13  and  C_14 
ROOT
HETATM    1  C   UNL     1      18.859  51.602  49.641  1.00  0.00     0.024 C 
HETATM    2  C   UNL     1      17.390  51.149  49.777  1.00  0.00     0.037 C 
HETATM    3  C   UNL     1      16.899  50.447  48.516  1.00  0.00     0.236 C 
HETATM    4  N   UNL     1      17.058  51.339  47.304  1.00  0.00    -0.067 N 
HETATM    5  H   UNL     1      16.412  52.134  47.405  1.00  0.00     0.280 HD
HETATM    6  C   UNL     1      18.452  51.910  47.162  1.00  0.00     0.236 C 
HETATM    7  C   UNL     1      18.887  52.575  48.461  1.00  0.00     0.037 C 
ENDROOT
BRANCH   1   8
HETATM    8  C   UNL     1      19.825  50.425  49.555  1.00  0.00    -0.026 A 
HETATM    9  C   UNL     1      21.214  50.372  49.147  1.00  0.00    -0.001 A 
HETATM   10  C   UNL     1      21.603  49.028  49.169  1.00  0.00     0.045 A 
HETATM   11  C   UNL     1      22.191  51.316  48.743  1.00  0.00     0.017 A 
HETATM   12  C   UNL     1      22.870  48.584  48.763  1.00  0.00     0.072 A 
HETATM   13  N   UNL     1      20.554  48.302  49.670  1.00  0.00    -0.365 N 
HETATM   14  C   UNL     1      23.779  49.543  48.337  1.00  0.00     0.118 A 
HETATM   15  C   UNL     1      23.462  50.891  48.334  1.00  0.00     0.043 A 
HETATM   16  F   UNL     1      24.995  49.157  47.929  1.00  0.00    -0.206 F 
HETATM   17  C   UNL     1      19.493  49.127  49.913  1.00  0.00     0.096 A 
HETATM   18  H   UNL     1      20.579  47.306  49.850  1.00  0.00     0.165 HD
ENDBRANCH   1   8
BRANCH   4  19
HETATM   19  C   UNL     1      16.611  50.592  46.053  1.00  0.00     0.282 C 
BRANCH  19  20
HETATM   20  C   UNL     1      16.816  51.343  44.788  1.00  0.00     0.027 A 
HETATM   21  S   UNL     1      17.951  50.828  43.607  1.00  0.00    -0.084 SA
HETATM   22  C   UNL     1      17.508  52.162  42.622  1.00  0.00     0.166 A 
HETATM   23  N   UNL     1      16.575  52.946  43.112  1.00  0.00    -0.265 NA
HETATM   24  C   UNL     1      16.193  52.497  44.356  1.00  0.00     0.133 A 
ENDBRANCH  19  20
ENDBRANCH   4  19
TORSDOF 3
ENDMDL
