MODEL 1
REMARK VINA RESULT:      -7.7      0.000      0.000
REMARK  5 active torsions:
REMARK  status: ('A' for Active; 'I' for Inactive)
REMARK    1  A    between atoms: C_2  and  C_3 
REMARK    2  A    between atoms: C_3  and  N_4 
REMARK       I    between atoms: N_4  and  C_5 
REMARK    3  A    between atoms: C_5  and  C_6 
REMARK    4  A    between atoms: C_7  and  O_8 
REMARK    5  A    between atoms: O_8  and  C_9 
ROOT
HETATM    1  C   UNL     1      20.781  49.725  49.259  1.00  0.00     0.121 C 
HETATM    2  C   UNL     1      20.266  48.342  49.022  1.00  0.00     0.091 C 
HETATM    3  N   UNL     1      19.904  47.255  48.834  1.00  0.00    -0.195 NA
HETATM    4  C   UNL     1      20.143  50.228  50.571  1.00  0.00     0.055 C 
ENDROOT
BRANCH   1   5
HETATM    5  C   UNL     1      20.411  50.649  48.044  1.00  0.00     0.020 C 
HETATM    6  C   UNL     1      19.847  52.019  48.450  1.00  0.00     0.013 C 
HETATM    7  C   UNL     1      19.435  49.979  47.060  1.00  0.00     0.013 C 
ENDBRANCH   1   5
BRANCH   1   8
HETATM    8  N   UNL     1      22.252  49.635  49.421  1.00  0.00    -0.335 N 
HETATM    9  C   UNL     1      23.118  49.169  48.460  1.00  0.00     0.257 C 
HETATM   10  O   UNL     1      22.748  48.826  47.342  1.00  0.00    -0.267 OA
HETATM   11  H   UNL     1      22.628  49.892  50.329  1.00  0.00     0.164 HD
BRANCH   9  12
HETATM   12  C   UNL     1      24.553  49.024  48.824  1.00  0.00     0.085 A 
HETATM   13  C   UNL     1      25.067  48.079  49.711  1.00  0.00     0.185 A 
HETATM   14  N   UNL     1      26.394  47.947  49.976  1.00  0.00    -0.236 NA
HETATM   15  C   UNL     1      27.240  48.806  49.370  1.00  0.00     0.119 A 
HETATM   16  C   UNL     1      26.827  49.797  48.500  1.00  0.00     0.020 A 
HETATM   17  C   UNL     1      25.466  49.905  48.226  1.00  0.00     0.023 A 
BRANCH  13  18
HETATM   18  O   UNL     1      24.184  47.197  50.324  1.00  0.00    -0.291 OA
BRANCH  18  19
HETATM   19  C   UNL     1      24.571  45.883  50.442  1.00  0.00     0.078 A 
HETATM   20  C   UNL     1      24.815  45.286  51.682  1.00  0.00     0.039 A 
HETATM   21  C   UNL     1      25.164  43.935  51.745  1.00  0.00     0.026 A 
HETATM   22  C   UNL     1      25.242  43.185  50.572  1.00  0.00     0.034 A 
HETATM   23 CL   UNL     1      25.676  41.521  50.651  1.00  0.00    -0.084 Cl
HETATM   24  C   UNL     1      24.967  43.770  49.337  1.00  0.00     0.026 A 
HETATM   25  C   UNL     1      24.621  45.122  49.272  1.00  0.00     0.039 A 
ENDBRANCH  18  19
ENDBRANCH  13  18
ENDBRANCH   9  12
ENDBRANCH   1   8
TORSDOF 5
ENDMDL
MODEL 2
REMARK VINA RESULT:      -7.6      3.164      6.843
REMARK  5 active torsions:
REMARK  status: ('A' for Active; 'I' for Inactive)
REMARK    1  A    between atoms: C_2  and  C_3 
REMARK    2  A    between atoms: C_3  and  N_4 
REMARK       I    between atoms: N_4  and  C_5 
REMARK    3  A    between atoms: C_5  and  C_6 
REMARK    4  A    between atoms: C_7  and  O_8 
REMARK    5  A    between atoms: O_8  and  C_9 
ROOT
HETATM    1  C   UNL     1      25.999  44.588  51.060  1.00  0.00     0.121 C 
HETATM    2  C   UNL     1      24.543  44.252  51.008  1.00  0.00     0.091 C 
HETATM    3  N   UNL     1      23.406  44.026  50.951  1.00  0.00    -0.195 NA
HETATM    4  C   UNL     1      26.757  43.428  50.382  1.00  0.00     0.055 C 
ENDROOT
BRANCH   1   5
HETATM    5  C   UNL     1      26.450  44.780  52.553  1.00  0.00     0.020 C 
HETATM    6  C   UNL     1      27.831  44.186  52.869  1.00  0.00     0.013 C 
HETATM    7  C   UNL     1      25.427  44.229  53.562  1.00  0.00     0.013 C 
ENDBRANCH   1   5
BRANCH   1   8
HETATM    8  N   UNL     1      26.200  45.836  50.286  1.00  0.00    -0.335 N 
HETATM    9  C   UNL     1      25.653  47.055  50.613  1.00  0.00     0.257 C 
HETATM   10  O   UNL     1      24.979  47.232  51.622  1.00  0.00    -0.267 OA
HETATM   11  H   UNL     1      26.739  45.761  49.429  1.00  0.00     0.164 HD
BRANCH   9  12
HETATM   12  C   UNL     1      25.847  48.184  49.663  1.00  0.00     0.085 A 
HETATM   13  C   UNL     1      24.835  48.800  48.928  1.00  0.00     0.185 A 
HETATM   14  N   UNL     1      25.049  49.865  48.109  1.00  0.00    -0.236 NA
HETATM   15  C   UNL     1      26.316  50.313  47.985  1.00  0.00     0.119 A 
HETATM   16  C   UNL     1      27.392  49.751  48.647  1.00  0.00     0.020 A 
HETATM   17  C   UNL     1      27.151  48.673  49.495  1.00  0.00     0.023 A 
BRANCH  13  18
HETATM   18  O   UNL     1      23.534  48.331  49.069  1.00  0.00    -0.291 OA
BRANCH  18  19
HETATM   19  C   UNL     1      22.510  49.242  48.952  1.00  0.00     0.078 A 
HETATM   20  C   UNL     1      22.322  50.274  49.875  1.00  0.00     0.039 A 
HETATM   21  C   UNL     1      21.291  51.197  49.683  1.00  0.00     0.026 A 
HETATM   22  C   UNL     1      20.473  51.097  48.559  1.00  0.00     0.034 A 
HETATM   23 CL   UNL     1      19.202  52.233  48.325  1.00  0.00    -0.084 Cl
HETATM   24  C   UNL     1      20.680  50.088  47.619  1.00  0.00     0.026 A 
HETATM   25  C   UNL     1      21.709  49.162  47.812  1.00  0.00     0.039 A 
ENDBRANCH  18  19
ENDBRANCH  13  18
ENDBRANCH   9  12
ENDBRANCH   1   8
TORSDOF 5
ENDMDL
MODEL 3
REMARK VINA RESULT:      -7.6      3.855      6.591
REMARK  5 active torsions:
REMARK  status: ('A' for Active; 'I' for Inactive)
REMARK    1  A    between atoms: C_2  and  C_3 
REMARK    2  A    between atoms: C_3  and  N_4 
REMARK       I    between atoms: N_4  and  C_5 
REMARK    3  A    between atoms: C_5  and  C_6 
REMARK    4  A    between atoms: C_7  and  O_8 
REMARK    5  A    between atoms: O_8  and  C_9 
ROOT
HETATM    1  C   UNL     1      25.533  46.896  50.547  1.00  0.00     0.121 C 
HETATM    2  C   UNL     1      24.242  47.018  49.805  1.00  0.00     0.091 C 
HETATM    3  N   UNL     1      23.244  47.076  49.214  1.00  0.00    -0.195 NA
HETATM    4  C   UNL     1      25.238  47.213  52.028  1.00  0.00     0.055 C 
ENDROOT
BRANCH   1   5
HETATM    5  C   UNL     1      26.592  47.887  49.943  1.00  0.00     0.020 C 
HETATM    6  C   UNL     1      25.985  48.988  49.060  1.00  0.00     0.013 C 
HETATM    7  C   UNL     1      27.701  47.168  49.155  1.00  0.00     0.013 C 
ENDBRANCH   1   5
BRANCH   1   8
HETATM    8  N   UNL     1      25.995  45.493  50.419  1.00  0.00    -0.335 N 
HETATM    9  C   UNL     1      25.388  44.413  51.017  1.00  0.00     0.257 C 
HETATM   10  O   UNL     1      24.361  44.510  51.681  1.00  0.00    -0.267 OA
HETATM   11  H   UNL     1      26.849  45.338  49.893  1.00  0.00     0.164 HD
BRANCH   9  12
HETATM   12  C   UNL     1      26.048  43.085  50.894  1.00  0.00     0.085 A 
HETATM   13  C   UNL     1      27.397  42.831  51.134  1.00  0.00     0.185 A 
HETATM   14  N   UNL     1      27.949  41.590  51.061  1.00  0.00    -0.236 NA
HETATM   15  C   UNL     1      27.144  40.570  50.699  1.00  0.00     0.119 A 
HETATM   16  C   UNL     1      25.801  40.723  50.411  1.00  0.00     0.020 A 
HETATM   17  C   UNL     1      25.249  41.998  50.510  1.00  0.00     0.023 A 
BRANCH  13  18
HETATM   18  O   UNL     1      28.214  43.892  51.510  1.00  0.00    -0.291 OA
BRANCH  18  19
HETATM   19  C   UNL     1      28.859  43.804  52.722  1.00  0.00     0.078 A 
HETATM   20  C   UNL     1      28.386  44.452  53.866  1.00  0.00     0.039 A 
HETATM   21  C   UNL     1      29.056  44.293  55.081  1.00  0.00     0.026 A 
HETATM   22  C   UNL     1      30.178  43.468  55.149  1.00  0.00     0.034 A 
HETATM   23 CL   UNL     1      31.005  43.276  56.646  1.00  0.00    -0.084 Cl
HETATM   24  C   UNL     1      30.632  42.793  54.016  1.00  0.00     0.026 A 
HETATM   25  C   UNL     1      29.964  42.955  52.800  1.00  0.00     0.039 A 
ENDBRANCH  18  19
ENDBRANCH  13  18
ENDBRANCH   9  12
ENDBRANCH   1   8
TORSDOF 5
ENDMDL
MODEL 4
REMARK VINA RESULT:      -7.4      3.074      6.491
REMARK  5 active torsions:
REMARK  status: ('A' for Active; 'I' for Inactive)
REMARK    1  A    between atoms: C_2  and  C_3 
REMARK    2  A    between atoms: C_3  and  N_4 
REMARK       I    between atoms: N_4  and  C_5 
REMARK    3  A    between atoms: C_5  and  C_6 
REMARK    4  A    between atoms: C_7  and  O_8 
REMARK    5  A    between atoms: O_8  and  C_9 
ROOT
HETATM    1  C   UNL     1      26.320  44.312  52.199  1.00  0.00     0.121 C 
HETATM    2  C   UNL     1      25.495  44.349  53.446  1.00  0.00     0.091 C 
HETATM    3  N   UNL     1      24.848  44.416  54.407  1.00  0.00    -0.195 NA
HETATM    4  C   UNL     1      25.799  43.138  51.345  1.00  0.00     0.055 C 
ENDROOT
BRANCH   1   5
HETATM    5  C   UNL     1      27.837  44.133  52.567  1.00  0.00     0.020 C 
HETATM    6  C   UNL     1      28.397  42.740  52.241  1.00  0.00     0.013 C 
HETATM    7  C   UNL     1      28.137  44.461  54.040  1.00  0.00     0.013 C 
ENDBRANCH   1   5
BRANCH   1   8
HETATM    8  N   UNL     1      26.102  45.589  51.478  1.00  0.00    -0.335 N 
HETATM    9  C   UNL     1      26.614  45.883  50.237  1.00  0.00     0.257 C 
HETATM   10  O   UNL     1      27.268  45.080  49.580  1.00  0.00    -0.267 OA
HETATM   11  H   UNL     1      25.578  46.308  51.969  1.00  0.00     0.164 HD
BRANCH   9  12
HETATM   12  C   UNL     1      26.409  47.258  49.704  1.00  0.00     0.085 A 
HETATM   13  C   UNL     1      25.176  47.896  49.577  1.00  0.00     0.185 A 
HETATM   14  N   UNL     1      25.039  49.174  49.133  1.00  0.00    -0.236 NA
HETATM   15  C   UNL     1      26.158  49.831  48.765  1.00  0.00     0.119 A 
HETATM   16  C   UNL     1      27.423  49.275  48.824  1.00  0.00     0.020 A 
HETATM   17  C   UNL     1      27.546  47.972  49.299  1.00  0.00     0.023 A 
BRANCH  13  18
HETATM   18  O   UNL     1      24.031  47.209  49.965  1.00  0.00    -0.291 OA
BRANCH  18  19
HETATM   19  C   UNL     1      23.297  46.584  48.984  1.00  0.00     0.078 A 
HETATM   20  C   UNL     1      23.403  45.213  48.734  1.00  0.00     0.039 A 
HETATM   21  C   UNL     1      22.601  44.623  47.753  1.00  0.00     0.026 A 
HETATM   22  C   UNL     1      21.684  45.401  47.049  1.00  0.00     0.034 A 
HETATM   23 CL   UNL     1      20.699  44.673  45.840  1.00  0.00    -0.084 Cl
HETATM   24  C   UNL     1      21.552  46.762  47.321  1.00  0.00     0.026 A 
HETATM   25  C   UNL     1      22.356  47.355  48.298  1.00  0.00     0.039 A 
ENDBRANCH  18  19
ENDBRANCH  13  18
ENDBRANCH   9  12
ENDBRANCH   1   8
TORSDOF 5
ENDMDL
MODEL 5
REMARK VINA RESULT:      -7.3      4.939      7.503
REMARK  5 active torsions:
REMARK  status: ('A' for Active; 'I' for Inactive)
REMARK    1  A    between atoms: C_2  and  C_3 
REMARK    2  A    between atoms: C_3  and  N_4 
REMARK       I    between atoms: N_4  and  C_5 
REMARK    3  A    between atoms: C_5  and  C_6 
REMARK    4  A    between atoms: C_7  and  O_8 
REMARK    5  A    between atoms: O_8  and  C_9 
ROOT
HETATM    1  C   UNL     1      26.139  45.308  50.085  1.00  0.00     0.121 C 
HETATM    2  C   UNL     1      26.954  46.424  49.517  1.00  0.00     0.091 C 
HETATM    3  N   UNL     1      27.617  47.266  49.071  1.00  0.00    -0.195 NA
HETATM    4  C   UNL     1      24.828  45.244  49.275  1.00  0.00     0.055 C 
ENDROOT
BRANCH   1   5
HETATM    5  C   UNL     1      25.866  45.568  51.610  1.00  0.00     0.020 C 
HETATM    6  C   UNL     1      24.791  44.654  52.217  1.00  0.00     0.013 C 
HETATM    7  C   UNL     1      25.503  47.033  51.910  1.00  0.00     0.013 C 
ENDBRANCH   1   5
BRANCH   1   8
HETATM    8  N   UNL     1      26.904  44.052  49.896  1.00  0.00    -0.335 N 
HETATM    9  C   UNL     1      26.354  42.852  49.510  1.00  0.00     0.257 C 
HETATM   10  O   UNL     1      25.166  42.724  49.232  1.00  0.00    -0.267 OA
HETATM   11  H   UNL     1      27.894  44.081  50.120  1.00  0.00     0.164 HD
BRANCH   9  12
HETATM   12  C   UNL     1      27.236  41.654  49.487  1.00  0.00     0.085 A 
HETATM   13  C   UNL     1      27.611  40.910  50.605  1.00  0.00     0.185 A 
HETATM   14  N   UNL     1      28.378  39.789  50.534  1.00  0.00    -0.236 NA
HETATM   15  C   UNL     1      28.821  39.413  49.316  1.00  0.00     0.119 A 
HETATM   16  C   UNL     1      28.531  40.100  48.152  1.00  0.00     0.020 A 
HETATM   17  C   UNL     1      27.729  41.235  48.243  1.00  0.00     0.023 A 
BRANCH  13  18
HETATM   18  O   UNL     1      27.143  41.307  51.853  1.00  0.00    -0.291 OA
BRANCH  18  19
HETATM   19  C   UNL     1      28.024  41.951  52.691  1.00  0.00     0.078 A 
HETATM   20  C   UNL     1      29.401  41.965  52.456  1.00  0.00     0.039 A 
HETATM   21  C   UNL     1      30.245  42.671  53.317  1.00  0.00     0.026 A 
HETATM   22  C   UNL     1      29.704  43.378  54.389  1.00  0.00     0.034 A 
HETATM   23 CL   UNL     1      30.745  44.245  55.451  1.00  0.00    -0.084 Cl
HETATM   24  C   UNL     1      28.327  43.393  54.606  1.00  0.00     0.026 A 
HETATM   25  C   UNL     1      27.482  42.684  53.749  1.00  0.00     0.039 A 
ENDBRANCH  18  19
ENDBRANCH  13  18
ENDBRANCH   9  12
ENDBRANCH   1   8
TORSDOF 5
ENDMDL
MODEL 6
REMARK VINA RESULT:      -7.3      3.224      6.675
REMARK  5 active torsions:
REMARK  status: ('A' for Active; 'I' for Inactive)
REMARK    1  A    between atoms: C_2  and  C_3 
REMARK    2  A    between atoms: C_3  and  N_4 
REMARK       I    between atoms: N_4  and  C_5 
REMARK    3  A    between atoms: C_5  and  C_6 
REMARK    4  A    between atoms: C_7  and  O_8 
REMARK    5  A    between atoms: O_8  and  C_9 
ROOT
HETATM    1  C   UNL     1      25.536  44.499  50.513  1.00  0.00     0.121 C 
HETATM    2  C   UNL     1      26.338  43.446  49.818  1.00  0.00     0.091 C 
HETATM    3  N   UNL     1      26.970  42.655  49.251  1.00  0.00    -0.195 NA
HETATM    4  C   UNL     1      26.013  44.540  51.980  1.00  0.00     0.055 C 
ENDROOT
BRANCH   1   5
HETATM    5  C   UNL     1      24.006  44.160  50.410  1.00  0.00     0.020 C 
HETATM    6  C   UNL     1      23.692  42.658  50.485  1.00  0.00     0.013 C 
HETATM    7  C   UNL     1      23.347  44.746  49.149  1.00  0.00     0.013 C 
ENDBRANCH   1   5
BRANCH   1   8
HETATM    8  N   UNL     1      25.832  45.795  49.856  1.00  0.00    -0.335 N 
HETATM    9  C   UNL     1      25.530  47.027  50.386  1.00  0.00     0.257 C 
HETATM   10  O   UNL     1      25.026  47.168  51.495  1.00  0.00    -0.267 OA
HETATM   11  H   UNL     1      26.240  45.755  48.927  1.00  0.00     0.164 HD
BRANCH   9  12
HETATM   12  C   UNL     1      25.778  48.230  49.545  1.00  0.00     0.085 A 
HETATM   13  C   UNL     1      24.801  48.939  48.848  1.00  0.00     0.185 A 
HETATM   14  N   UNL     1      25.064  50.065  48.132  1.00  0.00    -0.236 NA
HETATM   15  C   UNL     1      26.346  50.483  48.073  1.00  0.00     0.119 A 
HETATM   16  C   UNL     1      27.390  49.831  48.703  1.00  0.00     0.020 A 
HETATM   17  C   UNL     1      27.099  48.691  49.447  1.00  0.00     0.023 A 
BRANCH  13  18
HETATM   18  O   UNL     1      23.484  48.500  48.922  1.00  0.00    -0.291 OA
BRANCH  18  19
HETATM   19  C   UNL     1      22.488  49.438  48.780  1.00  0.00     0.078 A 
HETATM   20  C   UNL     1      21.783  49.601  47.585  1.00  0.00     0.039 A 
HETATM   21  C   UNL     1      20.752  50.541  47.510  1.00  0.00     0.026 A 
HETATM   22  C   UNL     1      20.417  51.291  48.636  1.00  0.00     0.034 A 
HETATM   23 CL   UNL     1      19.149  52.450  48.542  1.00  0.00    -0.084 Cl
HETATM   24  C   UNL     1      21.097  51.106  49.839  1.00  0.00     0.026 A 
HETATM   25  C   UNL     1      22.131  50.170  49.914  1.00  0.00     0.039 A 
ENDBRANCH  18  19
ENDBRANCH  13  18
ENDBRANCH   9  12
ENDBRANCH   1   8
TORSDOF 5
ENDMDL
MODEL 7
REMARK VINA RESULT:      -7.3     10.918     12.323
REMARK  5 active torsions:
REMARK  status: ('A' for Active; 'I' for Inactive)
REMARK    1  A    between atoms: C_2  and  C_3 
REMARK    2  A    between atoms: C_3  and  N_4 
REMARK       I    between atoms: N_4  and  C_5 
REMARK    3  A    between atoms: C_5  and  C_6 
REMARK    4  A    between atoms: C_7  and  O_8 
REMARK    5  A    between atoms: O_8  and  C_9 
ROOT
HETATM    1  C   UNL     1      29.537  52.196  40.209  1.00  0.00     0.121 C 
HETATM    2  C   UNL     1      29.026  52.913  39.001  1.00  0.00     0.091 C 
HETATM    3  N   UNL     1      28.636  53.436  38.041  1.00  0.00    -0.195 NA
HETATM    4  C   UNL     1      28.466  52.343  41.311  1.00  0.00     0.055 C 
ENDROOT
BRANCH   1   5
HETATM    5  C   UNL     1      30.912  52.811  40.654  1.00  0.00     0.020 C 
HETATM    6  C   UNL     1      30.905  54.343  40.764  1.00  0.00     0.013 C 
HETATM    7  C   UNL     1      32.079  52.380  39.747  1.00  0.00     0.013 C 
ENDBRANCH   1   5
BRANCH   1   8
HETATM    8  N   UNL     1      29.691  50.766  39.851  1.00  0.00    -0.335 N 
HETATM    9  C   UNL     1      28.652  49.874  39.726  1.00  0.00     0.257 C 
HETATM   10  O   UNL     1      27.477  50.202  39.852  1.00  0.00    -0.267 OA
HETATM   11  H   UNL     1      30.641  50.421  39.744  1.00  0.00     0.164 HD
BRANCH   9  12
HETATM   12  C   UNL     1      28.984  48.444  39.485  1.00  0.00     0.085 A 
HETATM   13  C   UNL     1      29.571  47.587  40.415  1.00  0.00     0.185 A 
HETATM   14  N   UNL     1      29.809  46.270  40.171  1.00  0.00    -0.236 NA
HETATM   15  C   UNL     1      29.490  45.794  38.949  1.00  0.00     0.119 A 
HETATM   16  C   UNL     1      28.934  46.570  37.950  1.00  0.00     0.020 A 
HETATM   17  C   UNL     1      28.679  47.911  38.224  1.00  0.00     0.023 A 
BRANCH  13  18
HETATM   18  O   UNL     1      29.890  48.090  41.672  1.00  0.00    -0.291 OA
BRANCH  18  19
HETATM   19  C   UNL     1      31.121  48.679  41.831  1.00  0.00     0.078 A 
HETATM   20  C   UNL     1      32.220  48.336  41.038  1.00  0.00     0.039 A 
HETATM   21  C   UNL     1      33.437  48.999  41.214  1.00  0.00     0.026 A 
HETATM   22  C   UNL     1      33.540  50.016  42.162  1.00  0.00     0.034 A 
HETATM   23 CL   UNL     1      35.041  50.829  42.379  1.00  0.00    -0.084 Cl
HETATM   24  C   UNL     1      32.436  50.383  42.930  1.00  0.00     0.026 A 
HETATM   25  C   UNL     1      31.220  49.719  42.758  1.00  0.00     0.039 A 
ENDBRANCH  18  19
ENDBRANCH  13  18
ENDBRANCH   9  12
ENDBRANCH   1   8
TORSDOF 5
ENDMDL
MODEL 8
REMARK VINA RESULT:      -7.2      1.055      1.551
REMARK  5 active torsions:
REMARK  status: ('A' for Active; 'I' for Inactive)
REMARK    1  A    between atoms: C_2  and  C_3 
REMARK    2  A    between atoms: C_3  and  N_4 
REMARK       I    between atoms: N_4  and  C_5 
REMARK    3  A    between atoms: C_5  and  C_6 
REMARK    4  A    between atoms: C_7  and  O_8 
REMARK    5  A    between atoms: O_8  and  C_9 
ROOT
HETATM    1  C   UNL     1      20.731  49.596  48.656  1.00  0.00     0.121 C 
HETATM    2  C   UNL     1      19.927  49.479  49.911  1.00  0.00     0.091 C 
HETATM    3  N   UNL     1      19.336  49.376  50.905  1.00  0.00    -0.195 NA
HETATM    4  C   UNL     1      20.519  51.025  48.113  1.00  0.00     0.055 C 
ENDROOT
BRANCH   1   5
HETATM    5  C   UNL     1      20.267  48.509  47.621  1.00  0.00     0.020 C 
HETATM    6  C   UNL     1      18.787  48.614  47.226  1.00  0.00     0.013 C 
HETATM    7  C   UNL     1      20.558  47.073  48.093  1.00  0.00     0.013 C 
ENDBRANCH   1   5
BRANCH   1   8
HETATM    8  N   UNL     1      22.157  49.405  49.015  1.00  0.00    -0.335 N 
HETATM    9  C   UNL     1      23.216  49.666  48.178  1.00  0.00     0.257 C 
HETATM   10  O   UNL     1      23.075  50.137  47.055  1.00  0.00    -0.267 OA
HETATM   11  H   UNL     1      22.348  49.005  49.929  1.00  0.00     0.164 HD
BRANCH   9  12
HETATM   12  C   UNL     1      24.581  49.302  48.645  1.00  0.00     0.085 A 
HETATM   13  C   UNL     1      24.896  48.184  49.417  1.00  0.00     0.185 A 
HETATM   14  N   UNL     1      26.167  47.860  49.778  1.00  0.00    -0.236 NA
HETATM   15  C   UNL     1      27.157  48.692  49.393  1.00  0.00     0.119 A 
HETATM   16  C   UNL     1      26.943  49.841  48.654  1.00  0.00     0.020 A 
HETATM   17  C   UNL     1      25.638  50.146  48.277  1.00  0.00     0.023 A 
BRANCH  13  18
HETATM   18  O   UNL     1      23.867  47.333  49.802  1.00  0.00    -0.291 OA
BRANCH  18  19
HETATM   19  C   UNL     1      24.135  45.985  49.849  1.00  0.00     0.078 A 
HETATM   20  C   UNL     1      24.506  45.340  51.032  1.00  0.00     0.039 A 
HETATM   21  C   UNL     1      24.725  43.960  51.030  1.00  0.00     0.026 A 
HETATM   22  C   UNL     1      24.548  43.233  49.855  1.00  0.00     0.034 A 
HETATM   23 CL   UNL     1      24.821  41.534  49.854  1.00  0.00    -0.084 Cl
HETATM   24  C   UNL     1      24.145  43.869  48.681  1.00  0.00     0.026 A 
HETATM   25  C   UNL     1      23.929  45.249  48.680  1.00  0.00     0.039 A 
ENDBRANCH  18  19
ENDBRANCH  13  18
ENDBRANCH   9  12
ENDBRANCH   1   8
TORSDOF 5
ENDMDL
MODEL 9
REMARK VINA RESULT:      -7.2      2.925      4.300
REMARK  5 active torsions:
REMARK  status: ('A' for Active; 'I' for Inactive)
REMARK    1  A    between atoms: C_2  and  C_3 
REMARK    2  A    between atoms: C_3  and  N_4 
REMARK       I    between atoms: N_4  and  C_5 
REMARK    3  A    between atoms: C_5  and  C_6 
REMARK    4  A    between atoms: C_7  and  O_8 
REMARK    5  A    between atoms: O_8  and  C_9 
ROOT
HETATM    1  C   UNL     1      19.266  49.218  49.701  1.00  0.00     0.121 C 
HETATM    2  C   UNL     1      18.811  48.854  51.077  1.00  0.00     0.091 C 
HETATM    3  N   UNL     1      18.472  48.534  52.140  1.00  0.00    -0.195 NA
HETATM    4  C   UNL     1      20.123  50.495  49.829  1.00  0.00     0.055 C 
ENDROOT
BRANCH   1   5
HETATM    5  C   UNL     1      18.023  49.446  48.769  1.00  0.00     0.020 C 
HETATM    6  C   UNL     1      17.149  50.643  49.174  1.00  0.00     0.013 C 
HETATM    7  C   UNL     1      17.132  48.197  48.645  1.00  0.00     0.013 C 
ENDBRANCH   1   5
BRANCH   1   8
HETATM    8  N   UNL     1      20.104  48.104  49.195  1.00  0.00    -0.335 N 
HETATM    9  C   UNL     1      20.760  48.106  47.987  1.00  0.00     0.257 C 
HETATM   10  O   UNL     1      20.752  49.068  47.227  1.00  0.00    -0.267 OA
HETATM   11  H   UNL     1      20.147  47.267  49.768  1.00  0.00     0.164 HD
BRANCH   9  12
HETATM   12  C   UNL     1      21.458  46.859  47.569  1.00  0.00     0.085 A 
HETATM   13  C   UNL     1      22.495  46.244  48.269  1.00  0.00     0.185 A 
HETATM   14  N   UNL     1      23.070  45.075  47.877  1.00  0.00    -0.236 NA
HETATM   15  C   UNL     1      22.628  44.515  46.732  1.00  0.00     0.119 A 
HETATM   16  C   UNL     1      21.627  45.063  45.951  1.00  0.00     0.020 A 
HETATM   17  C   UNL     1      21.038  46.250  46.378  1.00  0.00     0.023 A 
BRANCH  13  18
HETATM   18  O   UNL     1      22.936  46.830  49.450  1.00  0.00    -0.291 OA
BRANCH  18  19
HETATM   19  C   UNL     1      24.165  47.448  49.437  1.00  0.00     0.078 A 
HETATM   20  C   UNL     1      25.317  46.826  49.925  1.00  0.00     0.039 A 
HETATM   21  C   UNL     1      26.547  47.484  49.847  1.00  0.00     0.026 A 
HETATM   22  C   UNL     1      26.620  48.747  49.260  1.00  0.00     0.034 A 
HETATM   23 CL   UNL     1      28.135  49.557  49.167  1.00  0.00    -0.084 Cl
HETATM   24  C   UNL     1      25.477  49.355  48.742  1.00  0.00     0.026 A 
HETATM   25  C   UNL     1      24.246  48.700  48.822  1.00  0.00     0.039 A 
ENDBRANCH  18  19
ENDBRANCH  13  18
ENDBRANCH   9  12
ENDBRANCH   1   8
TORSDOF 5
ENDMDL
MODEL 10
REMARK VINA RESULT:      -7.2     20.395     22.490
REMARK  5 active torsions:
REMARK  status: ('A' for Active; 'I' for Inactive)
REMARK    1  A    between atoms: C_2  and  C_3 
REMARK    2  A    between atoms: C_3  and  N_4 
REMARK       I    between atoms: N_4  and  C_5 
REMARK    3  A    between atoms: C_5  and  C_6 
REMARK    4  A    between atoms: C_7  and  O_8 
REMARK    5  A    between atoms: O_8  and  C_9 
ROOT
HETATM    1  C   UNL     1      37.473  47.975  65.042  1.00  0.00     0.121 C 
HETATM    2  C   UNL     1      37.725  49.337  65.604  1.00  0.00     0.091 C 
HETATM    3  N   UNL     1      37.960  50.386  66.042  1.00  0.00    -0.195 NA
HETATM    4  C   UNL     1      36.633  48.161  63.761  1.00  0.00     0.055 C 
ENDROOT
BRANCH   1   5
HETATM    5  C   UNL     1      36.724  47.089  66.102  1.00  0.00     0.020 C 
HETATM    6  C   UNL     1      36.324  45.700  65.583  1.00  0.00     0.013 C 
HETATM    7  C   UNL     1      35.480  47.782  66.687  1.00  0.00     0.013 C 
ENDBRANCH   1   5
BRANCH   1   8
HETATM    8  N   UNL     1      38.787  47.381  64.696  1.00  0.00    -0.335 N 
HETATM    9  C   UNL     1      39.787  47.116  65.601  1.00  0.00     0.257 C 
HETATM   10  O   UNL     1      39.661  47.303  66.806  1.00  0.00    -0.267 OA
HETATM   11  H   UNL     1      38.966  47.211  63.711  1.00  0.00     0.164 HD
BRANCH   9  12
HETATM   12  C   UNL     1      41.095  46.636  65.076  1.00  0.00     0.085 A 
HETATM   13  C   UNL     1      41.258  45.683  64.072  1.00  0.00     0.185 A 
HETATM   14  N   UNL     1      42.472  45.312  63.585  1.00  0.00    -0.236 NA
HETATM   15  C   UNL     1      43.566  45.876  64.138  1.00  0.00     0.119 A 
HETATM   16  C   UNL     1      43.510  46.807  65.158  1.00  0.00     0.020 A 
HETATM   17  C   UNL     1      42.258  47.189  65.631  1.00  0.00     0.023 A 
BRANCH  13  18
HETATM   18  O   UNL     1      40.122  45.113  63.508  1.00  0.00    -0.291 OA
BRANCH  18  19
HETATM   19  C   UNL     1      39.830  43.810  63.836  1.00  0.00     0.078 A 
HETATM   20  C   UNL     1      39.828  43.357  65.158  1.00  0.00     0.039 A 
HETATM   21  C   UNL     1      39.482  42.033  65.437  1.00  0.00     0.026 A 
HETATM   22  C   UNL     1      39.115  41.180  64.397  1.00  0.00     0.034 A 
HETATM   23 CL   UNL     1      38.691  39.548  64.743  1.00  0.00    -0.084 Cl
HETATM   24  C   UNL     1      39.083  41.639  63.081  1.00  0.00     0.026 A 
HETATM   25  C   UNL     1      39.433  42.962  62.800  1.00  0.00     0.039 A 
ENDBRANCH  18  19
ENDBRANCH  13  18
ENDBRANCH   9  12
ENDBRANCH   1   8
TORSDOF 5
ENDMDL
