MODEL 1
REMARK VINA RESULT:      -9.0      0.000      0.000
REMARK  4 active torsions:
REMARK  status: ('A' for Active; 'I' for Inactive)
REMARK    1  A    between atoms: C_2  and  N_3 
REMARK    2  A    between atoms: C_11  and  C_12 
REMARK    3  A    between atoms: C_12  and  N_13 
REMARK    4  A    between atoms: C_16  and  N_17 
ROOT
HETATM    1  N   UNL     1      27.425  44.224  53.491  1.00  0.00    -0.065 N 
HETATM    2  H   UNL     1      27.734  44.830  52.713  1.00  0.00     0.280 HD
HETATM    3  C   UNL     1      28.124  44.642  54.773  1.00  0.00     0.268 C 
HETATM    4  C   UNL     1      29.689  44.564  54.734  1.00  0.00     0.214 C 
HETATM    5  C   UNL     1      30.183  43.111  54.751  1.00  0.00     0.035 C 
HETATM    6  C   UNL     1      30.220  42.424  53.388  1.00  0.00     0.004 C 
HETATM    7  C   UNL     1      29.078  42.706  52.418  1.00  0.00     0.028 C 
HETATM    8  C   UNL     1      27.693  42.794  53.040  1.00  0.00     0.235 C 
ENDROOT
BRANCH   1   9
HETATM    9  C   UNL     1      25.902  44.477  53.562  1.00  0.00     0.276 C 
BRANCH   9  10
HETATM   10  C   UNL     1      25.370  45.358  52.468  1.00  0.00     0.009 A 
HETATM   11  C   UNL     1      25.515  46.750  52.501  1.00  0.00     0.136 A 
HETATM   12  N   UNL     1      25.057  47.625  51.590  1.00  0.00    -0.216 NA
HETATM   13 CL   UNL     1      26.228  47.535  53.863  1.00  0.00    -0.062 Cl
HETATM   14  C   UNL     1      24.451  47.036  50.542  1.00  0.00     0.159 A 
HETATM   15  N   UNL     1      23.931  47.647  49.425  1.00  0.00    -0.248 N 
HETATM   16  C   UNL     1      24.236  45.676  50.367  1.00  0.00     0.031 A 
HETATM   17  N   UNL     1      23.313  46.778  48.593  1.00  0.00    -0.182 NA
HETATM   18  C   UNL     1      23.544  45.585  49.142  1.00  0.00     0.154 A 
HETATM   19  C   UNL     1      24.714  44.799  51.356  1.00  0.00     0.029 A 
BRANCH  15  20
HETATM   20  C   UNL     1      23.994  49.070  49.100  1.00  0.00     0.104 C 
HETATM   21  C   UNL     1      22.900  49.456  48.107  1.00  0.00     0.034 C 
HETATM   22  C   UNL     1      25.378  49.479  48.593  1.00  0.00     0.034 C 
ENDBRANCH  15  20
ENDBRANCH   9  10
ENDBRANCH   1   9
BRANCH   4  23
HETATM   23  N   UNL     1      30.339  45.295  55.922  1.00  0.00    -0.065 N 
HETATM   24  H   UNL     1      30.872  46.084  55.518  1.00  0.00     0.280 HD
HETATM   25  C   UNL     1      31.360  44.534  56.765  1.00  0.00     0.235 C 
HETATM   26  C   UNL     1      30.719  44.454  58.135  1.00  0.00     0.029 C 
HETATM   27  C   UNL     1      30.004  45.784  58.258  1.00  0.00     0.029 C 
HETATM   28  C   UNL     1      29.369  45.977  56.894  1.00  0.00     0.235 C 
ENDBRANCH   4  23
TORSDOF 4
ENDMDL
MODEL 2
REMARK VINA RESULT:      -8.6      2.760      9.177
REMARK  4 active torsions:
REMARK  status: ('A' for Active; 'I' for Inactive)
REMARK    1  A    between atoms: C_2  and  N_3 
REMARK    2  A    between atoms: C_11  and  C_12 
REMARK    3  A    between atoms: C_12  and  N_13 
REMARK    4  A    between atoms: C_16  and  N_17 
ROOT
HETATM    1  N   UNL     1      22.380  46.516  49.091  1.00  0.00    -0.065 N 
HETATM    2  H   UNL     1      22.100  46.324  50.067  1.00  0.00     0.280 HD
HETATM    3  C   UNL     1      22.268  48.005  48.810  1.00  0.00     0.268 C 
HETATM    4  C   UNL     1      20.834  48.611  48.996  1.00  0.00     0.214 C 
HETATM    5  C   UNL     1      19.883  48.167  47.876  1.00  0.00     0.035 C 
HETATM    6  C   UNL     1      19.221  46.808  48.092  1.00  0.00     0.004 C 
HETATM    7  C   UNL     1      20.064  45.693  48.701  1.00  0.00     0.028 C 
HETATM    8  C   UNL     1      21.506  45.622  48.221  1.00  0.00     0.235 C 
ENDROOT
BRANCH   1   9
HETATM    9  C   UNL     1      23.846  46.033  49.035  1.00  0.00     0.276 C 
BRANCH   9  10
HETATM   10  C   UNL     1      24.584  46.142  50.339  1.00  0.00     0.009 A 
HETATM   11  C   UNL     1      25.411  47.232  50.634  1.00  0.00     0.136 A 
HETATM   12  N   UNL     1      26.129  47.413  51.754  1.00  0.00    -0.216 NA
HETATM   13 CL   UNL     1      25.708  48.464  49.460  1.00  0.00    -0.062 Cl
HETATM   14  C   UNL     1      25.953  46.437  52.665  1.00  0.00     0.159 A 
HETATM   15  N   UNL     1      26.498  46.361  53.925  1.00  0.00    -0.248 N 
HETATM   16  C   UNL     1      25.168  45.302  52.519  1.00  0.00     0.031 A 
HETATM   17  N   UNL     1      26.189  45.207  54.559  1.00  0.00    -0.182 NA
HETATM   18  C   UNL     1      25.346  44.595  53.726  1.00  0.00     0.154 A 
HETATM   19  C   UNL     1      24.450  45.144  51.322  1.00  0.00     0.029 A 
BRANCH  15  20
HETATM   20  C   UNL     1      27.329  47.368  54.580  1.00  0.00     0.104 C 
HETATM   21  C   UNL     1      28.461  46.718  55.370  1.00  0.00     0.034 C 
HETATM   22  C   UNL     1      26.501  48.307  55.458  1.00  0.00     0.034 C 
ENDBRANCH  15  20
ENDBRANCH   9  10
ENDBRANCH   1   9
BRANCH   4  23
HETATM   23  N   UNL     1      20.851  50.150  49.016  1.00  0.00    -0.065 N 
HETATM   24  H   UNL     1      21.841  50.429  48.905  1.00  0.00     0.280 HD
HETATM   25  C   UNL     1      20.392  50.858  50.289  1.00  0.00     0.235 C 
HETATM   26  C   UNL     1      19.160  51.625  49.858  1.00  0.00     0.029 C 
HETATM   27  C   UNL     1      19.503  52.066  48.451  1.00  0.00     0.029 C 
HETATM   28  C   UNL     1      20.150  50.838  47.839  1.00  0.00     0.235 C 
ENDBRANCH   4  23
TORSDOF 4
ENDMDL
MODEL 3
REMARK VINA RESULT:      -8.4      1.948      8.713
REMARK  4 active torsions:
REMARK  status: ('A' for Active; 'I' for Inactive)
REMARK    1  A    between atoms: C_2  and  N_3 
REMARK    2  A    between atoms: C_11  and  C_12 
REMARK    3  A    between atoms: C_12  and  N_13 
REMARK    4  A    between atoms: C_16  and  N_17 
ROOT
HETATM    1  N   UNL     1      25.153  47.143  50.136  1.00  0.00    -0.065 N 
HETATM    2  H   UNL     1      25.345  46.458  49.387  1.00  0.00     0.280 HD
HETATM    3  C   UNL     1      24.081  48.117  49.677  1.00  0.00     0.268 C 
HETATM    4  C   UNL     1      24.437  48.941  48.392  1.00  0.00     0.214 C 
HETATM    5  C   UNL     1      25.503  50.006  48.680  1.00  0.00     0.035 C 
HETATM    6  C   UNL     1      26.946  49.507  48.631  1.00  0.00     0.004 C 
HETATM    7  C   UNL     1      27.241  48.126  49.205  1.00  0.00     0.028 C 
HETATM    8  C   UNL     1      26.497  47.772  50.484  1.00  0.00     0.235 C 
ENDROOT
BRANCH   1   9
HETATM    9  C   UNL     1      24.663  46.266  51.309  1.00  0.00     0.276 C 
BRANCH   9  10
HETATM   10  C   UNL     1      25.763  45.712  52.169  1.00  0.00     0.009 A 
HETATM   11  C   UNL     1      26.346  44.465  51.915  1.00  0.00     0.136 A 
HETATM   12  N   UNL     1      27.313  43.872  52.633  1.00  0.00    -0.216 NA
HETATM   13 CL   UNL     1      25.752  43.449  50.652  1.00  0.00    -0.062 Cl
HETATM   14  C   UNL     1      27.758  44.626  53.657  1.00  0.00     0.159 A 
HETATM   15  N   UNL     1      28.772  44.329  54.536  1.00  0.00    -0.248 N 
HETATM   16  C   UNL     1      27.284  45.876  54.030  1.00  0.00     0.031 A 
HETATM   17  N   UNL     1      28.916  45.262  55.504  1.00  0.00    -0.182 NA
HETATM   18  C   UNL     1      28.049  46.217  55.164  1.00  0.00     0.154 A 
HETATM   19  C   UNL     1      26.256  46.449  53.262  1.00  0.00     0.029 A 
BRANCH  15  20
HETATM   20  C   UNL     1      29.644  43.157  54.499  1.00  0.00     0.104 C 
HETATM   21  C   UNL     1      30.705  43.227  55.594  1.00  0.00     0.034 C 
HETATM   22  C   UNL     1      30.275  42.958  53.120  1.00  0.00     0.034 C 
ENDBRANCH  15  20
ENDBRANCH   9  10
ENDBRANCH   1   9
BRANCH   4  23
HETATM   23  N   UNL     1      23.209  49.654  47.799  1.00  0.00    -0.065 N 
HETATM   24  H   UNL     1      23.383  49.730  46.782  1.00  0.00     0.280 HD
HETATM   25  C   UNL     1      22.922  51.086  48.247  1.00  0.00     0.235 C 
HETATM   26  C   UNL     1      21.586  50.989  48.953  1.00  0.00     0.029 C 
HETATM   27  C   UNL     1      20.842  49.950  48.140  1.00  0.00     0.029 C 
HETATM   28  C   UNL     1      21.887  48.882  47.880  1.00  0.00     0.235 C 
ENDBRANCH   4  23
TORSDOF 4
ENDMDL
MODEL 4
REMARK VINA RESULT:      -8.2      1.756      2.704
REMARK  4 active torsions:
REMARK  status: ('A' for Active; 'I' for Inactive)
REMARK    1  A    between atoms: C_2  and  N_3 
REMARK    2  A    between atoms: C_11  and  C_12 
REMARK    3  A    between atoms: C_12  and  N_13 
REMARK    4  A    between atoms: C_16  and  N_17 
ROOT
HETATM    1  N   UNL     1      25.883  43.284  51.104  1.00  0.00    -0.065 N 
HETATM    2  H   UNL     1      26.169  43.773  50.239  1.00  0.00     0.280 HD
HETATM    3  C   UNL     1      26.900  43.547  52.201  1.00  0.00     0.268 C 
HETATM    4  C   UNL     1      28.362  43.078  51.880  1.00  0.00     0.214 C 
HETATM    5  C   UNL     1      28.485  41.549  51.913  1.00  0.00     0.035 C 
HETATM    6  C   UNL     1      28.087  40.840  50.620  1.00  0.00     0.004 C 
HETATM    7  C   UNL     1      26.878  41.373  49.859  1.00  0.00     0.028 C 
HETATM    8  C   UNL     1      25.705  41.821  50.718  1.00  0.00     0.235 C 
ENDROOT
BRANCH   1   9
HETATM    9  C   UNL     1      24.511  43.912  51.435  1.00  0.00     0.276 C 
BRANCH   9  10
HETATM   10  C   UNL     1      24.212  45.178  50.685  1.00  0.00     0.009 A 
HETATM   11  C   UNL     1      24.759  46.410  51.064  1.00  0.00     0.136 A 
HETATM   12  N   UNL     1      24.538  47.598  50.479  1.00  0.00    -0.216 NA
HETATM   13 CL   UNL     1      25.729  46.551  52.486  1.00  0.00    -0.062 Cl
HETATM   14  C   UNL     1      23.741  47.521  49.396  1.00  0.00     0.159 A 
HETATM   15  N   UNL     1      23.375  48.543  48.552  1.00  0.00    -0.248 N 
HETATM   16  C   UNL     1      23.130  46.378  48.898  1.00  0.00     0.031 A 
HETATM   17  N   UNL     1      22.495  48.148  47.604  1.00  0.00    -0.182 NA
HETATM   18  C   UNL     1      22.390  46.831  47.787  1.00  0.00     0.154 A 
HETATM   19  C   UNL     1      23.373  45.160  49.555  1.00  0.00     0.029 A 
BRANCH  15  20
HETATM   20  C   UNL     1      23.837  49.928  48.606  1.00  0.00     0.104 C 
HETATM   21  C   UNL     1      22.806  50.875  47.998  1.00  0.00     0.034 C 
HETATM   22  C   UNL     1      25.208  50.098  47.948  1.00  0.00     0.034 C 
ENDBRANCH  15  20
ENDBRANCH   9  10
ENDBRANCH   1   9
BRANCH   4  23
HETATM   23  N   UNL     1      29.389  43.655  52.870  1.00  0.00    -0.065 N 
HETATM   24  H   UNL     1      29.948  44.342  52.337  1.00  0.00     0.280 HD
HETATM   25  C   UNL     1      30.421  42.703  53.471  1.00  0.00     0.235 C 
HETATM   26  C   UNL     1      30.109  42.712  54.953  1.00  0.00     0.029 C 
HETATM   27  C   UNL     1      29.696  44.146  55.209  1.00  0.00     0.029 C 
HETATM   28  C   UNL     1      28.810  44.480  54.024  1.00  0.00     0.235 C 
ENDBRANCH   4  23
TORSDOF 4
ENDMDL
MODEL 5
REMARK VINA RESULT:      -7.9      2.334      4.336
REMARK  4 active torsions:
REMARK  status: ('A' for Active; 'I' for Inactive)
REMARK    1  A    between atoms: C_2  and  N_3 
REMARK    2  A    between atoms: C_11  and  C_12 
REMARK    3  A    between atoms: C_12  and  N_13 
REMARK    4  A    between atoms: C_16  and  N_17 
ROOT
HETATM    1  N   UNL     1      26.141  45.910  51.632  1.00  0.00    -0.065 N 
HETATM    2  H   UNL     1      25.167  45.634  51.841  1.00  0.00     0.280 HD
HETATM    3  C   UNL     1      27.089  44.800  52.051  1.00  0.00     0.268 C 
HETATM    4  C   UNL     1      27.043  44.425  53.573  1.00  0.00     0.214 C 
HETATM    5  C   UNL     1      27.682  45.516  54.444  1.00  0.00     0.035 C 
HETATM    6  C   UNL     1      26.758  46.675  54.809  1.00  0.00     0.004 C 
HETATM    7  C   UNL     1      25.796  47.183  53.741  1.00  0.00     0.028 C 
HETATM    8  C   UNL     1      26.356  47.248  52.328  1.00  0.00     0.235 C 
ENDROOT
BRANCH   1   9
HETATM    9  C   UNL     1      26.138  46.109  50.100  1.00  0.00     0.276 C 
BRANCH   9  10
HETATM   10  C   UNL     1      25.012  46.963  49.589  1.00  0.00     0.009 A 
HETATM   11  C   UNL     1      23.719  46.458  49.414  1.00  0.00     0.136 A 
HETATM   12  N   UNL     1      22.654  47.127  48.944  1.00  0.00    -0.216 NA
HETATM   13 CL   UNL     1      23.376  44.787  49.681  1.00  0.00    -0.062 Cl
HETATM   14  C   UNL     1      22.911  48.423  48.680  1.00  0.00     0.159 A 
HETATM   15  N   UNL     1      22.025  49.380  48.245  1.00  0.00    -0.248 N 
HETATM   16  C   UNL     1      24.135  49.065  48.805  1.00  0.00     0.031 A 
HETATM   17  N   UNL     1      22.620  50.568  47.993  1.00  0.00    -0.182 NA
HETATM   18  C   UNL     1      23.884  50.386  48.381  1.00  0.00     0.154 A 
HETATM   19  C   UNL     1      25.227  48.319  49.282  1.00  0.00     0.029 A 
BRANCH  15  20
HETATM   20  C   UNL     1      20.587  49.213  48.049  1.00  0.00     0.104 C 
HETATM   21  C   UNL     1      20.021  50.321  47.163  1.00  0.00     0.034 C 
HETATM   22  C   UNL     1      19.837  49.123  49.379  1.00  0.00     0.034 C 
ENDBRANCH  15  20
ENDBRANCH   9  10
ENDBRANCH   1   9
BRANCH   4  23
HETATM   23  N   UNL     1      27.770  43.102  53.869  1.00  0.00    -0.065 N 
HETATM   24  H   UNL     1      27.244  42.649  54.637  1.00  0.00     0.280 HD
HETATM   25  C   UNL     1      29.209  43.169  54.378  1.00  0.00     0.235 C 
HETATM   26  C   UNL     1      30.016  42.497  53.287  1.00  0.00     0.029 C 
HETATM   27  C   UNL     1      29.097  41.391  52.811  1.00  0.00     0.029 C 
HETATM   28  C   UNL     1      27.737  42.058  52.747  1.00  0.00     0.235 C 
ENDBRANCH   4  23
TORSDOF 4
ENDMDL
MODEL 6
REMARK VINA RESULT:      -7.8      3.087      9.565
REMARK  4 active torsions:
REMARK  status: ('A' for Active; 'I' for Inactive)
REMARK    1  A    between atoms: C_2  and  N_3 
REMARK    2  A    between atoms: C_11  and  C_12 
REMARK    3  A    between atoms: C_12  and  N_13 
REMARK    4  A    between atoms: C_16  and  N_17 
ROOT
HETATM    1  N   UNL     1      21.648  46.350  48.762  1.00  0.00    -0.065 N 
HETATM    2  H   UNL     1      21.428  46.121  49.746  1.00  0.00     0.280 HD
HETATM    3  C   UNL     1      21.678  47.858  48.582  1.00  0.00     0.268 C 
HETATM    4  C   UNL     1      20.340  48.597  48.929  1.00  0.00     0.214 C 
HETATM    5  C   UNL     1      19.258  48.333  47.873  1.00  0.00     0.035 C 
HETATM    6  C   UNL     1      18.469  47.040  48.064  1.00  0.00     0.004 C 
HETATM    7  C   UNL     1      19.231  45.804  48.529  1.00  0.00     0.028 C 
HETATM    8  C   UNL     1      20.613  45.614  47.920  1.00  0.00     0.235 C 
ENDROOT
BRANCH   1   9
HETATM    9  C   UNL     1      23.042  45.720  48.549  1.00  0.00     0.276 C 
BRANCH   9  10
HETATM   10  C   UNL     1      23.834  45.529  49.811  1.00  0.00     0.009 A 
HETATM   11  C   UNL     1      23.891  44.296  50.471  1.00  0.00     0.136 A 
HETATM   12  N   UNL     1      24.547  44.028  51.612  1.00  0.00    -0.216 NA
HETATM   13 CL   UNL     1      22.962  42.950  49.917  1.00  0.00    -0.062 Cl
HETATM   14  C   UNL     1      25.239  45.079  52.091  1.00  0.00     0.159 A 
HETATM   15  N   UNL     1      26.051  45.111  53.200  1.00  0.00    -0.248 N 
HETATM   16  C   UNL     1      25.282  46.356  51.550  1.00  0.00     0.031 A 
HETATM   17  N   UNL     1      26.535  46.347  53.458  1.00  0.00    -0.182 NA
HETATM   18  C   UNL     1      26.109  47.083  52.430  1.00  0.00     0.154 A 
HETATM   19  C   UNL     1      24.563  46.598  50.366  1.00  0.00     0.029 A 
BRANCH  15  20
HETATM   20  C   UNL     1      26.401  43.982  54.058  1.00  0.00     0.104 C 
HETATM   21  C   UNL     1      25.392  43.820  55.193  1.00  0.00     0.034 C 
HETATM   22  C   UNL     1      27.830  44.093  54.592  1.00  0.00     0.034 C 
ENDBRANCH  15  20
ENDBRANCH   9  10
ENDBRANCH   1   9
BRANCH   4  23
HETATM   23  N   UNL     1      20.528  50.120  49.040  1.00  0.00    -0.065 N 
HETATM   24  H   UNL     1      21.549  50.288  49.010  1.00  0.00     0.280 HD
HETATM   25  C   UNL     1      20.063  50.812  50.320  1.00  0.00     0.235 C 
HETATM   26  C   UNL     1      18.959  51.738  49.856  1.00  0.00     0.029 C 
HETATM   27  C   UNL     1      19.448  52.206  48.502  1.00  0.00     0.029 C 
HETATM   28  C   UNL     1      19.994  50.944  47.862  1.00  0.00     0.235 C 
ENDBRANCH   4  23
TORSDOF 4
ENDMDL
MODEL 7
REMARK VINA RESULT:      -7.7      2.708      4.558
REMARK  4 active torsions:
REMARK  status: ('A' for Active; 'I' for Inactive)
REMARK    1  A    between atoms: C_2  and  N_3 
REMARK    2  A    between atoms: C_11  and  C_12 
REMARK    3  A    between atoms: C_12  and  N_13 
REMARK    4  A    between atoms: C_16  and  N_17 
ROOT
HETATM    1  N   UNL     1      25.695  45.966  51.179  1.00  0.00    -0.065 N 
HETATM    2  H   UNL     1      24.703  45.830  51.438  1.00  0.00     0.280 HD
HETATM    3  C   UNL     1      26.474  44.691  51.452  1.00  0.00     0.268 C 
HETATM    4  C   UNL     1      26.460  44.208  52.943  1.00  0.00     0.214 C 
HETATM    5  C   UNL     1      27.317  45.112  53.839  1.00  0.00     0.035 C 
HETATM    6  C   UNL     1      26.616  46.369  54.350  1.00  0.00     0.004 C 
HETATM    7  C   UNL     1      25.687  47.105  53.391  1.00  0.00     0.028 C 
HETATM    8  C   UNL     1      26.164  47.193  51.950  1.00  0.00     0.235 C 
ENDROOT
BRANCH   1   9
HETATM    9  C   UNL     1      25.631  46.285  49.669  1.00  0.00     0.276 C 
BRANCH   9  10
HETATM   10  C   UNL     1      24.412  47.055  49.250  1.00  0.00     0.009 A 
HETATM   11  C   UNL     1      24.474  48.409  48.901  1.00  0.00     0.136 A 
HETATM   12  N   UNL     1      23.445  49.191  48.538  1.00  0.00    -0.216 NA
HETATM   13 CL   UNL     1      25.952  49.293  49.037  1.00  0.00    -0.062 Cl
HETATM   14  C   UNL     1      22.271  48.534  48.475  1.00  0.00     0.159 A 
HETATM   15  N   UNL     1      21.052  49.034  48.082  1.00  0.00    -0.248 N 
HETATM   16  C   UNL     1      22.053  47.199  48.786  1.00  0.00     0.031 A 
HETATM   17  N   UNL     1      20.051  48.134  48.212  1.00  0.00    -0.182 NA
HETATM   18  C   UNL     1      20.669  47.014  48.589  1.00  0.00     0.154 A 
HETATM   19  C   UNL     1      23.156  46.423  49.182  1.00  0.00     0.029 A 
BRANCH  15  20
HETATM   20  C   UNL     1      20.783  50.376  47.572  1.00  0.00     0.104 C 
HETATM   21  C   UNL     1      20.663  51.384  48.712  1.00  0.00     0.034 C 
HETATM   22  C   UNL     1      19.549  50.406  46.668  1.00  0.00     0.034 C 
ENDBRANCH  15  20
ENDBRANCH   9  10
ENDBRANCH   1   9
BRANCH   4  23
HETATM   23  N   UNL     1      26.979  42.767  53.094  1.00  0.00    -0.065 N 
HETATM   24  H   UNL     1      26.188  42.213  53.465  1.00  0.00     0.280 HD
HETATM   25  C   UNL     1      28.120  42.513  54.078  1.00  0.00     0.235 C 
HETATM   26  C   UNL     1      29.259  42.032  53.203  1.00  0.00     0.029 C 
HETATM   27  C   UNL     1      28.555  41.213  52.142  1.00  0.00     0.029 C 
HETATM   28  C   UNL     1      27.341  42.050  51.789  1.00  0.00     0.235 C 
ENDBRANCH   4  23
TORSDOF 4
ENDMDL
MODEL 8
REMARK VINA RESULT:      -7.7     13.096     16.038
REMARK  4 active torsions:
REMARK  status: ('A' for Active; 'I' for Inactive)
REMARK    1  A    between atoms: C_2  and  N_3 
REMARK    2  A    between atoms: C_11  and  C_12 
REMARK    3  A    between atoms: C_12  and  N_13 
REMARK    4  A    between atoms: C_16  and  N_17 
ROOT
HETATM    1  N   UNL     1      31.121  51.308  41.201  1.00  0.00    -0.065 N 
HETATM    2  H   UNL     1      31.892  51.501  40.539  1.00  0.00     0.280 HD
HETATM    3  C   UNL     1      30.040  50.499  40.505  1.00  0.00     0.268 C 
HETATM    4  C   UNL     1      29.397  51.186  39.252  1.00  0.00     0.214 C 
HETATM    5  C   UNL     1      28.486  52.355  39.652  1.00  0.00     0.035 C 
HETATM    6  C   UNL     1      29.203  53.684  39.881  1.00  0.00     0.004 C 
HETATM    7  C   UNL     1      30.557  53.651  40.582  1.00  0.00     0.028 C 
HETATM    8  C   UNL     1      30.678  52.664  41.734  1.00  0.00     0.235 C 
ENDROOT
BRANCH   1   9
HETATM    9  C   UNL     1      31.806  50.499  42.325  1.00  0.00     0.276 C 
BRANCH   9  10
HETATM   10  C   UNL     1      33.201  50.951  42.650  1.00  0.00     0.009 A 
HETATM   11  C   UNL     1      33.491  51.692  43.802  1.00  0.00     0.136 A 
HETATM   12  N   UNL     1      34.694  52.162  44.170  1.00  0.00    -0.216 NA
HETATM   13 CL   UNL     1      32.232  52.214  44.861  1.00  0.00    -0.062 Cl
HETATM   14  C   UNL     1      35.686  51.809  43.330  1.00  0.00     0.159 A 
HETATM   15  N   UNL     1      37.027  52.083  43.458  1.00  0.00    -0.248 N 
HETATM   16  C   UNL     1      35.556  51.080  42.157  1.00  0.00     0.031 A 
HETATM   17  N   UNL     1      37.751  51.659  42.397  1.00  0.00    -0.182 NA
HETATM   18  C   UNL     1      36.865  51.010  41.639  1.00  0.00     0.154 A 
HETATM   19  C   UNL     1      34.274  50.625  41.799  1.00  0.00     0.029 A 
BRANCH  15  20
HETATM   20  C   UNL     1      37.678  52.753  44.581  1.00  0.00     0.104 C 
HETATM   21  C   UNL     1      37.752  54.261  44.353  1.00  0.00     0.034 C 
HETATM   22  C   UNL     1      39.059  52.164  44.874  1.00  0.00     0.034 C 
ENDBRANCH  15  20
ENDBRANCH   9  10
ENDBRANCH   1   9
BRANCH   4  23
HETATM   23  N   UNL     1      28.560  50.203  38.414  1.00  0.00    -0.065 N 
HETATM   24  H   UNL     1      28.941  50.246  37.453  1.00  0.00     0.280 HD
HETATM   25  C   UNL     1      27.068  50.488  38.249  1.00  0.00     0.235 C 
HETATM   26  C   UNL     1      26.393  49.313  38.926  1.00  0.00     0.029 C 
HETATM   27  C   UNL     1      27.307  48.153  38.593  1.00  0.00     0.029 C 
HETATM   28  C   UNL     1      28.698  48.723  38.790  1.00  0.00     0.235 C 
ENDBRANCH   4  23
TORSDOF 4
ENDMDL
MODEL 9
REMARK VINA RESULT:      -7.5      4.290      7.127
REMARK  4 active torsions:
REMARK  status: ('A' for Active; 'I' for Inactive)
REMARK    1  A    between atoms: C_2  and  N_3 
REMARK    2  A    between atoms: C_11  and  C_12 
REMARK    3  A    between atoms: C_12  and  N_13 
REMARK    4  A    between atoms: C_16  and  N_17 
ROOT
HETATM    1  N   UNL     1      23.916  46.834  49.923  1.00  0.00    -0.065 N 
HETATM    2  H   UNL     1      23.188  47.025  50.630  1.00  0.00     0.280 HD
HETATM    3  C   UNL     1      23.934  45.350  49.595  1.00  0.00     0.268 C 
HETATM    4  C   UNL     1      24.225  44.403  50.810  1.00  0.00     0.214 C 
HETATM    5  C   UNL     1      25.692  44.485  51.252  1.00  0.00     0.035 C 
HETATM    6  C   UNL     1      26.018  45.633  52.205  1.00  0.00     0.004 C 
HETATM    7  C   UNL     1      25.343  46.978  51.956  1.00  0.00     0.028 C 
HETATM    8  C   UNL     1      25.213  47.389  50.497  1.00  0.00     0.235 C 
ENDROOT
BRANCH   1   9
HETATM    9  C   UNL     1      23.472  47.681  48.710  1.00  0.00     0.276 C 
BRANCH   9  10
HETATM   10  C   UNL     1      22.222  48.481  48.938  1.00  0.00     0.009 A 
HETATM   11  C   UNL     1      22.242  49.877  49.037  1.00  0.00     0.136 A 
HETATM   12  N   UNL     1      21.189  50.679  49.263  1.00  0.00    -0.216 NA
HETATM   13 CL   UNL     1      23.733  50.747  49.004  1.00  0.00    -0.062 Cl
HETATM   14  C   UNL     1      20.019  50.016  49.344  1.00  0.00     0.159 A 
HETATM   15  N   UNL     1      18.764  50.552  49.511  1.00  0.00    -0.248 N 
HETATM   16  C   UNL     1      19.840  48.642  49.264  1.00  0.00     0.031 A 
HETATM   17  N   UNL     1      17.805  49.607  49.637  1.00  0.00    -0.182 NA
HETATM   18  C   UNL     1      18.453  48.458  49.437  1.00  0.00     0.154 A 
HETATM   19  C   UNL     1      20.974  47.840  49.047  1.00  0.00     0.029 A 
BRANCH  15  20
HETATM   20  C   UNL     1      18.420  51.971  49.558  1.00  0.00     0.104 C 
HETATM   21  C   UNL     1      16.961  52.169  49.965  1.00  0.00     0.034 C 
HETATM   22  C   UNL     1      18.733  52.679  48.240  1.00  0.00     0.034 C 
ENDBRANCH  15  20
ENDBRANCH   9  10
ENDBRANCH   1   9
BRANCH   4  23
HETATM   23  N   UNL     1      23.911  42.932  50.489  1.00  0.00    -0.065 N 
HETATM   24  H   UNL     1      23.432  42.551  51.323  1.00  0.00     0.280 HD
HETATM   25  C   UNL     1      25.083  41.981  50.253  1.00  0.00     0.235 C 
HETATM   26  C   UNL     1      24.919  41.547  48.812  1.00  0.00     0.029 C 
HETATM   27  C   UNL     1      23.416  41.458  48.648  1.00  0.00     0.029 C 
HETATM   28  C   UNL     1      22.904  42.697  49.358  1.00  0.00     0.235 C 
ENDBRANCH   4  23
TORSDOF 4
ENDMDL
MODEL 10
REMARK VINA RESULT:      -7.4      2.311      8.933
REMARK  4 active torsions:
REMARK  status: ('A' for Active; 'I' for Inactive)
REMARK    1  A    between atoms: C_2  and  N_3 
REMARK    2  A    between atoms: C_11  and  C_12 
REMARK    3  A    between atoms: C_12  and  N_13 
REMARK    4  A    between atoms: C_16  and  N_17 
ROOT
HETATM    1  N   UNL     1      23.708  46.455  49.425  1.00  0.00    -0.065 N 
HETATM    2  H   UNL     1      23.368  46.325  50.392  1.00  0.00     0.280 HD
HETATM    3  C   UNL     1      23.466  47.888  48.984  1.00  0.00     0.268 C 
HETATM    4  C   UNL     1      21.966  48.345  49.000  1.00  0.00     0.214 C 
HETATM    5  C   UNL     1      21.164  47.694  47.866  1.00  0.00     0.035 C 
HETATM    6  C   UNL     1      20.631  46.296  48.170  1.00  0.00     0.004 C 
HETATM    7  C   UNL     1      21.531  45.345  48.952  1.00  0.00     0.028 C 
HETATM    8  C   UNL     1      23.008  45.390  48.589  1.00  0.00     0.235 C 
ENDROOT
BRANCH   1   9
HETATM    9  C   UNL     1      25.216  46.135  49.527  1.00  0.00     0.276 C 
BRANCH   9  10
HETATM   10  C   UNL     1      25.744  46.092  50.932  1.00  0.00     0.009 A 
HETATM   11  C   UNL     1      26.505  45.016  51.405  1.00  0.00     0.136 A 
HETATM   12  N   UNL     1      27.003  44.869  52.644  1.00  0.00    -0.216 NA
HETATM   13 CL   UNL     1      26.788  43.628  50.417  1.00  0.00    -0.062 Cl
HETATM   14  C   UNL     1      26.750  45.919  53.449  1.00  0.00     0.159 A 
HETATM   15  N   UNL     1      27.169  46.098  54.746  1.00  0.00    -0.248 N 
HETATM   16  C   UNL     1      26.017  47.052  53.125  1.00  0.00     0.031 A 
HETATM   17  N   UNL     1      26.673  47.225  55.305  1.00  0.00    -0.182 NA
HETATM   18  C   UNL     1      26.020  47.822  54.306  1.00  0.00     0.154 A 
HETATM   19  C   UNL     1      25.497  47.153  51.823  1.00  0.00     0.029 A 
BRANCH  15  20
HETATM   20  C   UNL     1      28.049  45.216  55.509  1.00  0.00     0.104 C 
HETATM   21  C   UNL     1      28.668  45.950  56.696  1.00  0.00     0.034 C 
HETATM   22  C   UNL     1      29.121  44.577  54.625  1.00  0.00     0.034 C 
ENDBRANCH  15  20
ENDBRANCH   9  10
ENDBRANCH   1   9
BRANCH   4  23
HETATM   23  N   UNL     1      21.821  49.871  48.863  1.00  0.00    -0.065 N 
HETATM   24  H   UNL     1      22.751  50.225  48.581  1.00  0.00     0.280 HD
HETATM   25  C   UNL     1      21.466  50.676  50.112  1.00  0.00     0.235 C 
HETATM   26  C   UNL     1      20.112  51.273  49.791  1.00  0.00     0.029 C 
HETATM   27  C   UNL     1      20.213  51.578  48.312  1.00  0.00     0.029 C 
HETATM   28  C   UNL     1      20.898  50.353  47.738  1.00  0.00     0.235 C 
ENDBRANCH   4  23
TORSDOF 4
ENDMDL
