MODEL 1
REMARK VINA RESULT:     -10.4      0.000      0.000
REMARK  7 active torsions:
REMARK  status: ('A' for Active; 'I' for Inactive)
REMARK    1  A    between atoms: C_2  and  N_3 
REMARK    2  A    between atoms: N_3  and  N_4 
REMARK       I    between atoms: N_4  and  C_5 
REMARK    3  A    between atoms: C_5  and  C_6 
REMARK       I    between atoms: C_6  and  N_7 
REMARK    4  A    between atoms: N_7  and  C_8 
REMARK    5  A    between atoms: C_9  and  O_10 
REMARK    6  A    between atoms: C_18  and  C_19 
REMARK       I    between atoms: C_19  and  N_20 
REMARK    7  A    between atoms: N_20  and  C_21 
ROOT
HETATM    1  N   UNL     1      23.869  47.559  50.325  1.00  0.00    -0.302 N 
HETATM    2  H   UNL     1      23.397  47.967  51.141  1.00  0.00     0.186 HD
ENDROOT
BRANCH   1   3
HETATM    3  C   UNL     1      25.109  46.992  50.572  1.00  0.00     0.027 C 
HETATM    4  C   UNL     1      26.284  47.887  50.239  1.00  0.00     0.070 C 
HETATM    5  C   UNL     1      25.264  45.739  51.046  1.00  0.00     0.100 C 
BRANCH   5   6
HETATM    6  C   UNL     1      26.581  45.047  51.183  1.00  0.00     0.247 C 
HETATM    7  N   UNL     1      26.854  44.733  52.500  1.00  0.00    -0.323 N 
HETATM    8  H   UNL     1      26.174  45.036  53.181  1.00  0.00     0.169 HD
HETATM    9  O   UNL     1      27.267  44.801  50.201  1.00  0.00    -0.268 OA
BRANCH   7  10
HETATM   10  C   UNL     1      28.003  44.079  53.017  1.00  0.00     0.041 A 
HETATM   11  C   UNL     1      28.600  44.567  54.208  1.00  0.00    -0.025 A 
HETATM   12  C   UNL     1      29.792  43.968  54.685  1.00  0.00    -0.050 A 
HETATM   13  C   UNL     1      28.013  45.754  54.951  1.00  0.00     0.041 C 
HETATM   14  C   UNL     1      30.494  44.448  55.935  1.00  0.00     0.039 C 
HETATM   15  C   UNL     1      30.333  42.860  54.019  1.00  0.00     0.008 A 
HETATM   16  C   UNL     1      30.090  45.858  56.346  1.00  0.00     0.005 C 
HETATM   17  C   UNL     1      28.575  45.972  56.354  1.00  0.00     0.005 C 
HETATM   18  C   UNL     1      29.725  42.364  52.874  1.00  0.00     0.003 A 
HETATM   19  C   UNL     1      28.574  42.973  52.376  1.00  0.00     0.030 A 
ENDBRANCH   7  10
ENDBRANCH   5   6
ENDBRANCH   1   3
BRANCH   1  20
HETATM   20  N   UNL     1      22.979  47.102  49.343  1.00  0.00    -0.262 N 
HETATM   21  C   UNL     1      22.765  47.969  48.277  1.00  0.00     0.328 C 
HETATM   22  O   UNL     1      23.426  48.972  48.040  1.00  0.00    -0.261 OA
HETATM   23  H   UNL     1      22.170  46.574  49.665  1.00  0.00     0.190 HD
BRANCH  21  24
HETATM   24  C   UNL     1      21.515  47.619  47.468  1.00  0.00     0.315 C 
HETATM   25  N   UNL     1      20.333  48.275  47.710  1.00  0.00    -0.316 N 
HETATM   26  H   UNL     1      19.506  47.760  47.423  1.00  0.00     0.169 HD
HETATM   27  O   UNL     1      21.599  46.690  46.666  1.00  0.00    -0.262 OA
BRANCH  25  28
HETATM   28  C   UNL     1      20.070  49.517  48.320  1.00  0.00     0.068 A 
HETATM   29  C   UNL     1      19.307  49.500  49.506  1.00  0.00     0.095 A 
HETATM   30  C   UNL     1      18.940  50.699  50.124  1.00  0.00     0.039 A 
HETATM   31  C   UNL     1      19.344  51.916  49.577  1.00  0.00     0.003 A 
HETATM   32  C   UNL     1      20.102  51.938  48.409  1.00  0.00     0.002 A 
HETATM   33  C   UNL     1      20.460  50.742  47.777  1.00  0.00     0.032 A 
BRANCH  29  34
HETATM   34  O   UNL     1      18.935  48.262  49.979  1.00  0.00    -0.354 OA
HETATM   35  C   UNL     1      18.505  48.258  51.339  1.00  0.00     0.210 C 
ENDBRANCH  29  34
ENDBRANCH  25  28
ENDBRANCH  21  24
ENDBRANCH   1  20
TORSDOF 7
ENDMDL
MODEL 2
REMARK VINA RESULT:      -9.8      1.740     10.541
REMARK  7 active torsions:
REMARK  status: ('A' for Active; 'I' for Inactive)
REMARK    1  A    between atoms: C_2  and  N_3 
REMARK    2  A    between atoms: N_3  and  N_4 
REMARK       I    between atoms: N_4  and  C_5 
REMARK    3  A    between atoms: C_5  and  C_6 
REMARK       I    between atoms: C_6  and  N_7 
REMARK    4  A    between atoms: N_7  and  C_8 
REMARK    5  A    between atoms: C_9  and  O_10 
REMARK    6  A    between atoms: C_18  and  C_19 
REMARK       I    between atoms: C_19  and  N_20 
REMARK    7  A    between atoms: N_20  and  C_21 
ROOT
HETATM    1  N   UNL     1      25.948  47.535  50.459  1.00  0.00    -0.302 N 
HETATM    2  H   UNL     1      26.906  47.470  50.094  1.00  0.00     0.186 HD
ENDROOT
BRANCH   1   3
HETATM    3  C   UNL     1      25.023  48.126  49.612  1.00  0.00     0.027 C 
HETATM    4  C   UNL     1      25.555  49.313  48.837  1.00  0.00     0.070 C 
HETATM    5  C   UNL     1      23.748  47.700  49.501  1.00  0.00     0.100 C 
BRANCH   5   6
HETATM    6  C   UNL     1      22.691  48.401  48.713  1.00  0.00     0.247 C 
HETATM    7  N   UNL     1      21.904  49.200  49.521  1.00  0.00    -0.323 N 
HETATM    8  H   UNL     1      22.111  49.177  50.508  1.00  0.00     0.169 HD
HETATM    9  O   UNL     1      22.608  48.256  47.502  1.00  0.00    -0.268 OA
BRANCH   7  10
HETATM   10  C   UNL     1      20.807  50.012  49.133  1.00  0.00     0.041 A 
HETATM   11  C   UNL     1      19.513  49.434  49.052  1.00  0.00    -0.025 A 
HETATM   12  C   UNL     1      18.428  50.218  48.589  1.00  0.00    -0.050 A 
HETATM   13  C   UNL     1      19.282  47.975  49.401  1.00  0.00     0.041 C 
HETATM   14  C   UNL     1      17.028  49.664  48.458  1.00  0.00     0.039 C 
HETATM   15  C   UNL     1      18.625  51.571  48.282  1.00  0.00     0.008 A 
HETATM   16  C   UNL     1      16.987  48.142  48.416  1.00  0.00     0.005 C 
HETATM   17  C   UNL     1      17.816  47.578  49.557  1.00  0.00     0.005 C 
HETATM   18  C   UNL     1      19.885  52.142  48.397  1.00  0.00     0.003 A 
HETATM   19  C   UNL     1      20.965  51.366  48.814  1.00  0.00     0.030 A 
ENDBRANCH   7  10
ENDBRANCH   5   6
ENDBRANCH   1   3
BRANCH   1  20
HETATM   20  N   UNL     1      25.636  46.522  51.376  1.00  0.00    -0.262 N 
HETATM   21  C   UNL     1      26.011  45.237  51.000  1.00  0.00     0.328 C 
HETATM   22  O   UNL     1      26.747  44.963  50.061  1.00  0.00    -0.261 OA
HETATM   23  H   UNL     1      24.751  46.606  51.873  1.00  0.00     0.190 HD
BRANCH  21  24
HETATM   24  C   UNL     1      25.306  44.149  51.812  1.00  0.00     0.315 C 
HETATM   25  N   UNL     1      26.042  43.260  52.556  1.00  0.00    -0.316 N 
HETATM   26  H   UNL     1      25.565  42.385  52.750  1.00  0.00     0.169 HD
HETATM   27  O   UNL     1      24.084  44.063  51.705  1.00  0.00    -0.262 OA
BRANCH  25  28
HETATM   28  C   UNL     1      27.355  43.337  53.061  1.00  0.00     0.068 A 
HETATM   29  C   UNL     1      28.358  42.647  52.349  1.00  0.00     0.095 A 
HETATM   30  C   UNL     1      29.669  42.613  52.833  1.00  0.00     0.039 A 
HETATM   31  C   UNL     1      29.991  43.279  54.015  1.00  0.00     0.003 A 
HETATM   32  C   UNL     1      29.005  43.966  54.720  1.00  0.00     0.002 A 
HETATM   33  C   UNL     1      27.688  43.991  54.248  1.00  0.00     0.032 A 
BRANCH  29  34
HETATM   34  O   UNL     1      27.962  42.005  51.198  1.00  0.00    -0.354 OA
HETATM   35  C   UNL     1      28.286  40.617  51.158  1.00  0.00     0.210 C 
ENDBRANCH  29  34
ENDBRANCH  25  28
ENDBRANCH  21  24
ENDBRANCH   1  20
TORSDOF 7
ENDMDL
MODEL 3
REMARK VINA RESULT:      -9.8      1.480      1.966
REMARK  7 active torsions:
REMARK  status: ('A' for Active; 'I' for Inactive)
REMARK    1  A    between atoms: C_2  and  N_3 
REMARK    2  A    between atoms: N_3  and  N_4 
REMARK       I    between atoms: N_4  and  C_5 
REMARK    3  A    between atoms: C_5  and  C_6 
REMARK       I    between atoms: C_6  and  N_7 
REMARK    4  A    between atoms: N_7  and  C_8 
REMARK    5  A    between atoms: C_9  and  O_10 
REMARK    6  A    between atoms: C_18  and  C_19 
REMARK       I    between atoms: C_19  and  N_20 
REMARK    7  A    between atoms: N_20  and  C_21 
ROOT
HETATM    1  N   UNL     1      23.493  47.027  49.103  1.00  0.00    -0.302 N 
HETATM    2  H   UNL     1      23.457  46.929  48.081  1.00  0.00     0.186 HD
ENDROOT
BRANCH   1   3
HETATM    3  C   UNL     1      24.673  46.614  49.703  1.00  0.00     0.027 C 
HETATM    4  C   UNL     1      25.508  47.737  50.279  1.00  0.00     0.070 C 
HETATM    5  C   UNL     1      25.062  45.323  49.750  1.00  0.00     0.100 C 
BRANCH   5   6
HETATM    6  C   UNL     1      26.390  44.862  50.253  1.00  0.00     0.247 C 
HETATM    7  N   UNL     1      26.302  44.379  51.545  1.00  0.00    -0.323 N 
HETATM    8  H   UNL     1      25.394  44.435  51.980  1.00  0.00     0.169 HD
HETATM    9  O   UNL     1      27.384  44.914  49.544  1.00  0.00    -0.268 OA
BRANCH   7  10
HETATM   10  C   UNL     1      27.349  43.858  52.350  1.00  0.00     0.041 A 
HETATM   11  C   UNL     1      27.784  44.597  53.481  1.00  0.00    -0.025 A 
HETATM   12  C   UNL     1      28.880  44.123  54.242  1.00  0.00    -0.050 A 
HETATM   13  C   UNL     1      27.129  45.913  53.858  1.00  0.00     0.041 C 
HETATM   14  C   UNL     1      29.410  44.866  55.447  1.00  0.00     0.039 C 
HETATM   15  C   UNL     1      29.481  42.900  53.915  1.00  0.00     0.008 A 
HETATM   16  C   UNL     1      28.988  46.329  55.482  1.00  0.00     0.005 C 
HETATM   17  C   UNL     1      27.491  46.434  55.247  1.00  0.00     0.005 C 
HETATM   18  C   UNL     1      29.029  42.163  52.829  1.00  0.00     0.003 A 
HETATM   19  C   UNL     1      27.976  42.643  52.051  1.00  0.00     0.030 A 
ENDBRANCH   7  10
ENDBRANCH   5   6
ENDBRANCH   1   3
BRANCH   1  20
HETATM   20  N   UNL     1      22.691  48.070  49.587  1.00  0.00    -0.262 N 
HETATM   21  C   UNL     1      22.598  49.186  48.763  1.00  0.00     0.328 C 
HETATM   22  O   UNL     1      22.983  49.241  47.603  1.00  0.00    -0.261 OA
HETATM   23  H   UNL     1      22.723  48.250  50.589  1.00  0.00     0.190 HD
BRANCH  21  24
HETATM   24  C   UNL     1      22.067  50.422  49.493  1.00  0.00     0.315 C 
HETATM   25  N   UNL     1      20.893  51.007  49.089  1.00  0.00    -0.316 N 
HETATM   26  H   UNL     1      20.803  51.984  49.352  1.00  0.00     0.169 HD
HETATM   27  O   UNL     1      22.768  50.900  50.384  1.00  0.00    -0.262 OA
BRANCH  25  28
HETATM   28  C   UNL     1      19.812  50.498  48.342  1.00  0.00     0.068 A 
HETATM   29  C   UNL     1      18.735  49.947  49.065  1.00  0.00     0.095 A 
HETATM   30  C   UNL     1      17.664  49.353  48.391  1.00  0.00     0.039 A 
HETATM   31  C   UNL     1      17.651  49.322  46.997  1.00  0.00     0.003 A 
HETATM   32  C   UNL     1      18.711  49.870  46.278  1.00  0.00     0.002 A 
HETATM   33  C   UNL     1      19.792  50.452  46.947  1.00  0.00     0.032 A 
BRANCH  29  34
HETATM   34  O   UNL     1      18.823  50.004  50.438  1.00  0.00    -0.354 OA
HETATM   35  C   UNL     1      18.682  48.744  51.089  1.00  0.00     0.210 C 
ENDBRANCH  29  34
ENDBRANCH  25  28
ENDBRANCH  21  24
ENDBRANCH   1  20
TORSDOF 7
ENDMDL
MODEL 4
REMARK VINA RESULT:      -9.7      1.405      2.246
REMARK  7 active torsions:
REMARK  status: ('A' for Active; 'I' for Inactive)
REMARK    1  A    between atoms: C_2  and  N_3 
REMARK    2  A    between atoms: N_3  and  N_4 
REMARK       I    between atoms: N_4  and  C_5 
REMARK    3  A    between atoms: C_5  and  C_6 
REMARK       I    between atoms: C_6  and  N_7 
REMARK    4  A    between atoms: N_7  and  C_8 
REMARK    5  A    between atoms: C_9  and  O_10 
REMARK    6  A    between atoms: C_18  and  C_19 
REMARK       I    between atoms: C_19  and  N_20 
REMARK    7  A    between atoms: N_20  and  C_21 
ROOT
HETATM    1  N   UNL     1      23.298  46.394  49.538  1.00  0.00    -0.302 N 
HETATM    2  H   UNL     1      22.428  45.983  49.899  1.00  0.00     0.186 HD
ENDROOT
BRANCH   1   3
HETATM    3  C   UNL     1      24.420  45.584  49.615  1.00  0.00     0.027 C 
HETATM    4  C   UNL     1      24.308  44.287  48.840  1.00  0.00     0.070 C 
HETATM    5  C   UNL     1      25.512  45.905  50.338  1.00  0.00     0.100 C 
BRANCH   5   6
HETATM    6  C   UNL     1      26.672  44.992  50.562  1.00  0.00     0.247 C 
HETATM    7  N   UNL     1      26.526  44.264  51.727  1.00  0.00    -0.323 N 
HETATM    8  H   UNL     1      25.705  44.464  52.277  1.00  0.00     0.169 HD
HETATM    9  O   UNL     1      27.592  44.934  49.758  1.00  0.00    -0.268 OA
BRANCH   7  10
HETATM   10  C   UNL     1      27.420  43.303  52.268  1.00  0.00     0.041 A 
HETATM   11  C   UNL     1      28.202  43.647  53.402  1.00  0.00    -0.025 A 
HETATM   12  C   UNL     1      29.152  42.721  53.898  1.00  0.00    -0.050 A 
HETATM   13  C   UNL     1      28.074  45.008  54.060  1.00  0.00     0.041 C 
HETATM   14  C   UNL     1      30.032  43.026  55.089  1.00  0.00     0.039 C 
HETATM   15  C   UNL     1      29.266  41.453  53.311  1.00  0.00     0.008 A 
HETATM   16  C   UNL     1      30.134  44.514  55.395  1.00  0.00     0.005 C 
HETATM   17  C   UNL     1      28.743  45.124  55.428  1.00  0.00     0.005 C 
HETATM   18  C   UNL     1      28.475  41.110  52.224  1.00  0.00     0.003 A 
HETATM   19  C   UNL     1      27.565  42.030  51.705  1.00  0.00     0.030 A 
ENDBRANCH   7  10
ENDBRANCH   5   6
ENDBRANCH   1   3
BRANCH   1  20
HETATM   20  N   UNL     1      23.084  47.343  48.528  1.00  0.00    -0.262 N 
HETATM   21  C   UNL     1      23.420  48.652  48.855  1.00  0.00     0.328 C 
HETATM   22  O   UNL     1      24.055  48.991  49.845  1.00  0.00    -0.261 OA
HETATM   23  H   UNL     1      22.255  47.222  47.950  1.00  0.00     0.190 HD
BRANCH  21  24
HETATM   24  C   UNL     1      22.805  49.680  47.904  1.00  0.00     0.315 C 
HETATM   25  N   UNL     1      21.441  49.820  47.832  1.00  0.00    -0.316 N 
HETATM   26  H   UNL     1      21.109  50.222  46.960  1.00  0.00     0.169 HD
HETATM   27  O   UNL     1      23.569  50.301  47.167  1.00  0.00    -0.262 OA
BRANCH  25  28
HETATM   28  C   UNL     1      20.423  49.469  48.741  1.00  0.00     0.068 A 
HETATM   29  C   UNL     1      19.716  48.277  48.482  1.00  0.00     0.095 A 
HETATM   30  C   UNL     1      18.642  47.905  49.296  1.00  0.00     0.039 A 
HETATM   31  C   UNL     1      18.279  48.706  50.378  1.00  0.00     0.003 A 
HETATM   32  C   UNL     1      18.977  49.882  50.640  1.00  0.00     0.002 A 
HETATM   33  C   UNL     1      20.043  50.267  49.821  1.00  0.00     0.032 A 
BRANCH  29  34
HETATM   34  O   UNL     1      20.125  47.545  47.391  1.00  0.00    -0.354 OA
HETATM   35  C   UNL     1      19.140  47.417  46.367  1.00  0.00     0.210 C 
ENDBRANCH  29  34
ENDBRANCH  25  28
ENDBRANCH  21  24
ENDBRANCH   1  20
TORSDOF 7
ENDMDL
MODEL 5
REMARK VINA RESULT:      -9.5      1.384      2.301
REMARK  7 active torsions:
REMARK  status: ('A' for Active; 'I' for Inactive)
REMARK    1  A    between atoms: C_2  and  N_3 
REMARK    2  A    between atoms: N_3  and  N_4 
REMARK       I    between atoms: N_4  and  C_5 
REMARK    3  A    between atoms: C_5  and  C_6 
REMARK       I    between atoms: C_6  and  N_7 
REMARK    4  A    between atoms: N_7  and  C_8 
REMARK    5  A    between atoms: C_9  and  O_10 
REMARK    6  A    between atoms: C_18  and  C_19 
REMARK       I    between atoms: C_19  and  N_20 
REMARK    7  A    between atoms: N_20  and  C_21 
ROOT
HETATM    1  N   UNL     1      23.086  44.972  50.098  1.00  0.00    -0.302 N 
HETATM    2  H   UNL     1      22.373  44.256  50.284  1.00  0.00     0.186 HD
ENDROOT
BRANCH   1   3
HETATM    3  C   UNL     1      24.402  44.547  50.205  1.00  0.00     0.027 C 
HETATM    4  C   UNL     1      24.644  43.134  49.719  1.00  0.00     0.070 C 
HETATM    5  C   UNL     1      25.384  45.315  50.721  1.00  0.00     0.100 C 
BRANCH   5   6
HETATM    6  C   UNL     1      26.774  44.838  50.987  1.00  0.00     0.247 C 
HETATM    7  N   UNL     1      26.910  44.368  52.279  1.00  0.00    -0.323 N 
HETATM    8  H   UNL     1      26.095  44.440  52.867  1.00  0.00     0.169 HD
HETATM    9  O   UNL     1      27.628  44.870  50.112  1.00  0.00    -0.268 OA
BRANCH   7  10
HETATM   10  C   UNL     1      28.076  43.839  52.891  1.00  0.00     0.041 A 
HETATM   11  C   UNL     1      28.567  44.441  54.080  1.00  0.00    -0.025 A 
HETATM   12  C   UNL     1      29.773  43.969  54.652  1.00  0.00    -0.050 A 
HETATM   13  C   UNL     1      27.849  45.617  54.718  1.00  0.00     0.041 C 
HETATM   14  C   UNL     1      30.365  44.575  55.904  1.00  0.00     0.039 C 
HETATM   15  C   UNL     1      30.435  42.872  54.083  1.00  0.00     0.008 A 
HETATM   16  C   UNL     1      29.830  45.967  56.207  1.00  0.00     0.005 C 
HETATM   17  C   UNL     1      28.313  45.959  56.132  1.00  0.00     0.005 C 
HETATM   18  C   UNL     1      29.932  42.264  52.941  1.00  0.00     0.003 A 
HETATM   19  C   UNL     1      28.766  42.749  52.349  1.00  0.00     0.030 A 
ENDBRANCH   7  10
ENDBRANCH   5   6
ENDBRANCH   1   3
BRANCH   1  20
HETATM   20  N   UNL     1      22.653  45.968  49.213  1.00  0.00    -0.262 N 
HETATM   21  C   UNL     1      21.583  45.619  48.396  1.00  0.00     0.328 C 
HETATM   22  O   UNL     1      20.888  44.621  48.531  1.00  0.00    -0.261 OA
HETATM   23  H   UNL     1      23.371  46.553  48.790  1.00  0.00     0.190 HD
BRANCH  21  24
HETATM   24  C   UNL     1      21.417  46.559  47.200  1.00  0.00     0.315 C 
HETATM   25  N   UNL     1      20.560  47.628  47.279  1.00  0.00    -0.316 N 
HETATM   26  H   UNL     1      20.229  47.964  46.380  1.00  0.00     0.169 HD
HETATM   27  O   UNL     1      22.012  46.269  46.164  1.00  0.00    -0.262 OA
BRANCH  25  28
HETATM   28  C   UNL     1      20.031  48.313  48.391  1.00  0.00     0.068 A 
HETATM   29  C   UNL     1      20.658  49.521  48.759  1.00  0.00     0.095 A 
HETATM   30  C   UNL     1      20.238  50.215  49.897  1.00  0.00     0.039 A 
HETATM   31  C   UNL     1      19.183  49.720  50.663  1.00  0.00     0.003 A 
HETATM   32  C   UNL     1      18.557  48.529  50.302  1.00  0.00     0.002 A 
HETATM   33  C   UNL     1      18.982  47.823  49.173  1.00  0.00     0.032 A 
BRANCH  29  34
HETATM   34  O   UNL     1      21.699  49.939  47.961  1.00  0.00    -0.354 OA
HETATM   35  C   UNL     1      22.974  49.915  48.598  1.00  0.00     0.210 C 
ENDBRANCH  29  34
ENDBRANCH  25  28
ENDBRANCH  21  24
ENDBRANCH   1  20
TORSDOF 7
ENDMDL
MODEL 6
REMARK VINA RESULT:      -9.5      1.906      2.708
REMARK  7 active torsions:
REMARK  status: ('A' for Active; 'I' for Inactive)
REMARK    1  A    between atoms: C_2  and  N_3 
REMARK    2  A    between atoms: N_3  and  N_4 
REMARK       I    between atoms: N_4  and  C_5 
REMARK    3  A    between atoms: C_5  and  C_6 
REMARK       I    between atoms: C_6  and  N_7 
REMARK    4  A    between atoms: N_7  and  C_8 
REMARK    5  A    between atoms: C_9  and  O_10 
REMARK    6  A    between atoms: C_18  and  C_19 
REMARK       I    between atoms: C_19  and  N_20 
REMARK    7  A    between atoms: N_20  and  C_21 
ROOT
HETATM    1  N   UNL     1      25.156  47.164  51.778  1.00  0.00    -0.302 N 
HETATM    2  H   UNL     1      25.095  48.186  51.864  1.00  0.00     0.186 HD
ENDROOT
BRANCH   1   3
HETATM    3  C   UNL     1      25.753  46.508  52.844  1.00  0.00     0.027 C 
HETATM    4  C   UNL     1      26.101  47.404  54.013  1.00  0.00     0.070 C 
HETATM    5  C   UNL     1      26.027  45.187  52.836  1.00  0.00     0.100 C 
BRANCH   5   6
HETATM    6  C   UNL     1      26.799  44.480  53.900  1.00  0.00     0.247 C 
HETATM    7  N   UNL     1      28.151  44.749  53.808  1.00  0.00    -0.323 N 
HETATM    8  H   UNL     1      28.438  45.335  53.038  1.00  0.00     0.169 HD
HETATM    9  O   UNL     1      26.234  43.784  54.731  1.00  0.00    -0.268 OA
BRANCH   7  10
HETATM   10  C   UNL     1      29.193  44.260  54.639  1.00  0.00     0.041 A 
HETATM   11  C   UNL     1      29.412  44.867  55.903  1.00  0.00    -0.025 A 
HETATM   12  C   UNL     1      30.499  44.436  56.703  1.00  0.00    -0.050 A 
HETATM   13  C   UNL     1      28.534  46.006  56.389  1.00  0.00     0.041 C 
HETATM   14  C   UNL     1      30.804  45.051  58.050  1.00  0.00     0.039 C 
HETATM   15  C   UNL     1      31.305  43.374  56.274  1.00  0.00     0.008 A 
HETATM   16  C   UNL     1      30.163  46.418  58.246  1.00  0.00     0.005 C 
HETATM   17  C   UNL     1      28.693  46.350  57.869  1.00  0.00     0.005 C 
HETATM   18  C   UNL     1      31.064  42.759  55.052  1.00  0.00     0.003 A 
HETATM   19  C   UNL     1      30.021  43.204  54.242  1.00  0.00     0.030 A 
ENDBRANCH   7  10
ENDBRANCH   5   6
ENDBRANCH   1   3
BRANCH   1  20
HETATM   20  N   UNL     1      24.136  46.613  50.991  1.00  0.00    -0.262 N 
HETATM   21  C   UNL     1      24.490  46.301  49.683  1.00  0.00     0.328 C 
HETATM   22  O   UNL     1      25.634  46.281  49.247  1.00  0.00    -0.261 OA
HETATM   23  H   UNL     1      23.197  46.984  51.127  1.00  0.00     0.190 HD
BRANCH  21  24
HETATM   24  C   UNL     1      23.279  46.096  48.771  1.00  0.00     0.315 C 
HETATM   25  N   UNL     1      22.430  47.141  48.510  1.00  0.00    -0.316 N 
HETATM   26  H   UNL     1      21.496  46.859  48.228  1.00  0.00     0.169 HD
HETATM   27  O   UNL     1      23.065  44.956  48.359  1.00  0.00    -0.262 OA
BRANCH  25  28
HETATM   28  C   UNL     1      22.618  48.535  48.604  1.00  0.00     0.068 A 
HETATM   29  C   UNL     1      21.545  49.294  49.116  1.00  0.00     0.095 A 
HETATM   30  C   UNL     1      21.630  50.688  49.165  1.00  0.00     0.039 A 
HETATM   31  C   UNL     1      22.786  51.331  48.722  1.00  0.00     0.003 A 
HETATM   32  C   UNL     1      23.850  50.585  48.220  1.00  0.00     0.002 A 
HETATM   33  C   UNL     1      23.765  49.191  48.155  1.00  0.00     0.032 A 
BRANCH  29  34
HETATM   34  O   UNL     1      20.434  48.591  49.522  1.00  0.00    -0.354 OA
HETATM   35  C   UNL     1      19.261  48.851  48.754  1.00  0.00     0.210 C 
ENDBRANCH  29  34
ENDBRANCH  25  28
ENDBRANCH  21  24
ENDBRANCH   1  20
TORSDOF 7
ENDMDL
MODEL 7
REMARK VINA RESULT:      -9.5      1.673      3.004
REMARK  7 active torsions:
REMARK  status: ('A' for Active; 'I' for Inactive)
REMARK    1  A    between atoms: C_2  and  N_3 
REMARK    2  A    between atoms: N_3  and  N_4 
REMARK       I    between atoms: N_4  and  C_5 
REMARK    3  A    between atoms: C_5  and  C_6 
REMARK       I    between atoms: C_6  and  N_7 
REMARK    4  A    between atoms: N_7  and  C_8 
REMARK    5  A    between atoms: C_9  and  O_10 
REMARK    6  A    between atoms: C_18  and  C_19 
REMARK       I    between atoms: C_19  and  N_20 
REMARK    7  A    between atoms: N_20  and  C_21 
ROOT
HETATM    1  N   UNL     1      23.740  44.906  48.790  1.00  0.00    -0.302 N 
HETATM    2  H   UNL     1      23.938  44.817  47.786  1.00  0.00     0.186 HD
ENDROOT
BRANCH   1   3
HETATM    3  C   UNL     1      24.787  45.377  49.567  1.00  0.00     0.027 C 
HETATM    4  C   UNL     1      26.097  44.646  49.360  1.00  0.00     0.070 C 
HETATM    5  C   UNL     1      24.652  46.386  50.452  1.00  0.00     0.100 C 
BRANCH   5   6
HETATM    6  C   UNL     1      25.716  46.817  51.407  1.00  0.00     0.247 C 
HETATM    7  N   UNL     1      25.830  45.941  52.469  1.00  0.00    -0.323 N 
HETATM    8  H   UNL     1      25.177  45.172  52.484  1.00  0.00     0.169 HD
HETATM    9  O   UNL     1      26.380  47.822  51.196  1.00  0.00    -0.268 OA
BRANCH   7  10
HETATM   10  C   UNL     1      26.724  46.021  53.568  1.00  0.00     0.041 A 
HETATM   11  C   UNL     1      27.755  45.053  53.693  1.00  0.00    -0.025 A 
HETATM   12  C   UNL     1      28.601  45.080  54.829  1.00  0.00    -0.050 A 
HETATM   13  C   UNL     1      27.933  43.958  52.657  1.00  0.00     0.041 C 
HETATM   14  C   UNL     1      29.706  44.070  55.038  1.00  0.00     0.039 C 
HETATM   15  C   UNL     1      28.459  46.096  55.783  1.00  0.00     0.008 A 
HETATM   16  C   UNL     1      29.531  42.808  54.203  1.00  0.00     0.005 C 
HETATM   17  C   UNL     1      29.247  43.186  52.759  1.00  0.00     0.005 C 
HETATM   18  C   UNL     1      27.472  47.062  55.638  1.00  0.00     0.003 A 
HETATM   19  C   UNL     1      26.610  47.019  54.543  1.00  0.00     0.030 A 
ENDBRANCH   7  10
ENDBRANCH   5   6
ENDBRANCH   1   3
BRANCH   1  20
HETATM   20  N   UNL     1      22.388  45.146  49.069  1.00  0.00    -0.262 N 
HETATM   21  C   UNL     1      21.712  45.922  48.133  1.00  0.00     0.328 C 
HETATM   22  O   UNL     1      22.140  46.227  47.027  1.00  0.00    -0.261 OA
HETATM   23  H   UNL     1      22.137  45.296  50.044  1.00  0.00     0.190 HD
BRANCH  21  24
HETATM   24  C   UNL     1      20.394  46.485  48.667  1.00  0.00     0.315 C 
HETATM   25  N   UNL     1      20.354  47.745  49.211  1.00  0.00    -0.316 N 
HETATM   26  H   UNL     1      19.582  47.897  49.853  1.00  0.00     0.169 HD
HETATM   27  O   UNL     1      19.414  45.741  48.660  1.00  0.00    -0.262 OA
BRANCH  25  28
HETATM   28  C   UNL     1      21.219  48.847  49.062  1.00  0.00     0.068 A 
HETATM   29  C   UNL     1      20.632  50.080  48.709  1.00  0.00     0.095 A 
HETATM   30  C   UNL     1      21.434  51.199  48.467  1.00  0.00     0.039 A 
HETATM   31  C   UNL     1      22.820  51.101  48.593  1.00  0.00     0.003 A 
HETATM   32  C   UNL     1      23.404  49.887  48.946  1.00  0.00     0.002 A 
HETATM   33  C   UNL     1      22.608  48.760  49.174  1.00  0.00     0.032 A 
BRANCH  29  34
HETATM   34  O   UNL     1      19.261  50.096  48.593  1.00  0.00    -0.354 OA
HETATM   35  C   UNL     1      18.596  50.866  49.592  1.00  0.00     0.210 C 
ENDBRANCH  29  34
ENDBRANCH  25  28
ENDBRANCH  21  24
ENDBRANCH   1  20
TORSDOF 7
ENDMDL
MODEL 8
REMARK VINA RESULT:      -9.4      1.796     10.369
REMARK  7 active torsions:
REMARK  status: ('A' for Active; 'I' for Inactive)
REMARK    1  A    between atoms: C_2  and  N_3 
REMARK    2  A    between atoms: N_3  and  N_4 
REMARK       I    between atoms: N_4  and  C_5 
REMARK    3  A    between atoms: C_5  and  C_6 
REMARK       I    between atoms: C_6  and  N_7 
REMARK    4  A    between atoms: N_7  and  C_8 
REMARK    5  A    between atoms: C_9  and  O_10 
REMARK    6  A    between atoms: C_18  and  C_19 
REMARK       I    between atoms: C_19  and  N_20 
REMARK    7  A    between atoms: N_20  and  C_21 
ROOT
HETATM    1  N   UNL     1      25.240  47.496  50.301  1.00  0.00    -0.302 N 
HETATM    2  H   UNL     1      26.168  47.471  49.862  1.00  0.00     0.186 HD
ENDROOT
BRANCH   1   3
HETATM    3  C   UNL     1      24.190  47.838  49.463  1.00  0.00     0.027 C 
HETATM    4  C   UNL     1      24.243  49.260  48.945  1.00  0.00     0.070 C 
HETATM    5  C   UNL     1      23.190  46.989  49.150  1.00  0.00     0.100 C 
BRANCH   5   6
HETATM    6  C   UNL     1      21.973  47.370  48.374  1.00  0.00     0.247 C 
HETATM    7  N   UNL     1      20.925  47.708  49.208  1.00  0.00    -0.323 N 
HETATM    8  H   UNL     1      21.097  47.619  50.197  1.00  0.00     0.169 HD
HETATM    9  O   UNL     1      21.984  47.380  47.151  1.00  0.00    -0.268 OA
BRANCH   7  10
HETATM   10  C   UNL     1      19.618  48.119  48.837  1.00  0.00     0.041 A 
HETATM   11  C   UNL     1      19.338  49.505  48.712  1.00  0.00    -0.025 A 
HETATM   12  C   UNL     1      18.017  49.925  48.420  1.00  0.00    -0.050 A 
HETATM   13  C   UNL     1      20.418  50.547  48.938  1.00  0.00     0.041 C 
HETATM   14  C   UNL     1      17.642  51.383  48.292  1.00  0.00     0.039 C 
HETATM   15  C   UNL     1      17.015  48.972  48.191  1.00  0.00     0.008 A 
HETATM   16  C   UNL     1      18.652  52.322  48.939  1.00  0.00     0.005 C 
HETATM   17  C   UNL     1      20.054  51.958  48.479  1.00  0.00     0.005 C 
HETATM   18  C   UNL     1      17.302  47.616  48.279  1.00  0.00     0.003 A 
HETATM   19  C   UNL     1      18.591  47.197  48.605  1.00  0.00     0.030 A 
ENDBRANCH   7  10
ENDBRANCH   5   6
ENDBRANCH   1   3
BRANCH   1  20
HETATM   20  N   UNL     1      25.120  46.623  51.391  1.00  0.00    -0.262 N 
HETATM   21  C   UNL     1      25.890  45.467  51.321  1.00  0.00     0.328 C 
HETATM   22  O   UNL     1      26.783  45.263  50.509  1.00  0.00    -0.261 OA
HETATM   23  H   UNL     1      24.194  46.523  51.802  1.00  0.00     0.190 HD
BRANCH  21  24
HETATM   24  C   UNL     1      25.431  44.386  52.301  1.00  0.00     0.315 C 
HETATM   25  N   UNL     1      26.182  44.102  53.414  1.00  0.00    -0.316 N 
HETATM   26  H   UNL     1      26.031  43.171  53.792  1.00  0.00     0.169 HD
HETATM   27  O   UNL     1      24.424  43.744  52.006  1.00  0.00    -0.262 OA
BRANCH  25  28
HETATM   28  C   UNL     1      27.152  44.862  54.096  1.00  0.00     0.068 A 
HETATM   29  C   UNL     1      28.385  44.234  54.368  1.00  0.00     0.095 A 
HETATM   30  C   UNL     1      29.366  44.899  55.109  1.00  0.00     0.039 A 
HETATM   31  C   UNL     1      29.132  46.195  55.568  1.00  0.00     0.003 A 
HETATM   32  C   UNL     1      27.917  46.821  55.299  1.00  0.00     0.002 A 
HETATM   33  C   UNL     1      26.926  46.156  54.570  1.00  0.00     0.032 A 
BRANCH  29  34
HETATM   34  O   UNL     1      28.539  42.952  53.893  1.00  0.00    -0.354 OA
HETATM   35  C   UNL     1      29.615  42.792  52.971  1.00  0.00     0.210 C 
ENDBRANCH  29  34
ENDBRANCH  25  28
ENDBRANCH  21  24
ENDBRANCH   1  20
TORSDOF 7
ENDMDL
MODEL 9
REMARK VINA RESULT:      -8.8      1.967      2.585
REMARK  7 active torsions:
REMARK  status: ('A' for Active; 'I' for Inactive)
REMARK    1  A    between atoms: C_2  and  N_3 
REMARK    2  A    between atoms: N_3  and  N_4 
REMARK       I    between atoms: N_4  and  C_5 
REMARK    3  A    between atoms: C_5  and  C_6 
REMARK       I    between atoms: C_6  and  N_7 
REMARK    4  A    between atoms: N_7  and  C_8 
REMARK    5  A    between atoms: C_9  and  O_10 
REMARK    6  A    between atoms: C_18  and  C_19 
REMARK       I    between atoms: C_19  and  N_20 
REMARK    7  A    between atoms: N_20  and  C_21 
ROOT
HETATM    1  N   UNL     1      22.354  44.818  48.102  1.00  0.00    -0.302 N 
HETATM    2  H   UNL     1      21.893  43.964  47.766  1.00  0.00     0.186 HD
ENDROOT
BRANCH   1   3
HETATM    3  C   UNL     1      23.630  44.646  48.616  1.00  0.00     0.027 C 
HETATM    4  C   UNL     1      24.206  43.262  48.407  1.00  0.00     0.070 C 
HETATM    5  C   UNL     1      24.297  45.619  49.271  1.00  0.00     0.100 C 
BRANCH   5   6
HETATM    6  C   UNL     1      25.605  45.423  49.964  1.00  0.00     0.247 C 
HETATM    7  N   UNL     1      25.430  44.994  51.265  1.00  0.00    -0.323 N 
HETATM    8  H   UNL     1      24.476  44.908  51.581  1.00  0.00     0.169 HD
HETATM    9  O   UNL     1      26.662  45.618  49.380  1.00  0.00    -0.268 OA
BRANCH   7  10
HETATM   10  C   UNL     1      26.433  44.705  52.226  1.00  0.00     0.041 A 
HETATM   11  C   UNL     1      26.723  45.663  53.233  1.00  0.00    -0.025 A 
HETATM   12  C   UNL     1      27.777  45.414  54.147  1.00  0.00    -0.050 A 
HETATM   13  C   UNL     1      25.959  46.971  53.314  1.00  0.00     0.041 C 
HETATM   14  C   UNL     1      28.154  46.397  55.231  1.00  0.00     0.039 C 
HETATM   15  C   UNL     1      28.478  44.202  54.093  1.00  0.00     0.008 A 
HETATM   16  C   UNL     1      27.643  47.807  54.968  1.00  0.00     0.005 C 
HETATM   17  C   UNL     1      26.167  47.755  54.608  1.00  0.00     0.005 C 
HETATM   18  C   UNL     1      28.167  43.253  53.129  1.00  0.00     0.003 A 
HETATM   19  C   UNL     1      27.157  43.507  52.202  1.00  0.00     0.030 A 
ENDBRANCH   7  10
ENDBRANCH   5   6
ENDBRANCH   1   3
BRANCH   1  20
HETATM   20  N   UNL     1      21.925  45.976  47.438  1.00  0.00    -0.262 N 
HETATM   21  C   UNL     1      20.699  46.484  47.851  1.00  0.00     0.328 C 
HETATM   22  O   UNL     1      20.088  46.129  48.851  1.00  0.00    -0.261 OA
HETATM   23  H   UNL     1      22.126  46.037  46.441  1.00  0.00     0.190 HD
BRANCH  21  24
HETATM   24  C   UNL     1      20.097  47.474  46.851  1.00  0.00     0.315 C 
HETATM   25  N   UNL     1      20.103  48.818  47.127  1.00  0.00    -0.316 N 
HETATM   26  H   UNL     1      19.391  49.348  46.632  1.00  0.00     0.169 HD
HETATM   27  O   UNL     1      19.550  47.009  45.852  1.00  0.00    -0.262 OA
BRANCH  25  28
HETATM   28  C   UNL     1      20.898  49.582  48.003  1.00  0.00     0.068 A 
HETATM   29  C   UNL     1      20.321  49.954  49.235  1.00  0.00     0.095 A 
HETATM   30  C   UNL     1      21.021  50.777  50.121  1.00  0.00     0.039 A 
HETATM   31  C   UNL     1      22.303  51.219  49.795  1.00  0.00     0.003 A 
HETATM   32  C   UNL     1      22.879  50.851  48.582  1.00  0.00     0.002 A 
HETATM   33  C   UNL     1      22.178  50.040  47.684  1.00  0.00     0.032 A 
BRANCH  29  34
HETATM   34  O   UNL     1      19.049  49.489  49.481  1.00  0.00    -0.354 OA
HETATM   35  C   UNL     1      18.811  49.121  50.839  1.00  0.00     0.210 C 
ENDBRANCH  29  34
ENDBRANCH  25  28
ENDBRANCH  21  24
ENDBRANCH   1  20
TORSDOF 7
ENDMDL
MODEL 10
REMARK VINA RESULT:      -8.6      2.199     10.716
REMARK  7 active torsions:
REMARK  status: ('A' for Active; 'I' for Inactive)
REMARK    1  A    between atoms: C_2  and  N_3 
REMARK    2  A    between atoms: N_3  and  N_4 
REMARK       I    between atoms: N_4  and  C_5 
REMARK    3  A    between atoms: C_5  and  C_6 
REMARK       I    between atoms: C_6  and  N_7 
REMARK    4  A    between atoms: N_7  and  C_8 
REMARK    5  A    between atoms: C_9  and  O_10 
REMARK    6  A    between atoms: C_18  and  C_19 
REMARK       I    between atoms: C_19  and  N_20 
REMARK    7  A    between atoms: N_20  and  C_21 
ROOT
HETATM    1  N   UNL     1      24.853  48.147  49.589  1.00  0.00    -0.302 N 
HETATM    2  H   UNL     1      25.528  47.771  48.912  1.00  0.00     0.186 HD
ENDROOT
BRANCH   1   3
HETATM    3  C   UNL     1      23.896  49.003  49.067  1.00  0.00     0.027 C 
HETATM    4  C   UNL     1      24.401  49.906  47.962  1.00  0.00     0.070 C 
HETATM    5  C   UNL     1      22.625  49.049  49.519  1.00  0.00     0.100 C 
BRANCH   5   6
HETATM    6  C   UNL     1      21.613  50.057  49.083  1.00  0.00     0.247 C 
HETATM    7  N   UNL     1      20.355  49.754  49.567  1.00  0.00    -0.323 N 
HETATM    8  H   UNL     1      20.277  48.901  50.100  1.00  0.00     0.169 HD
HETATM    9  O   UNL     1      21.936  51.019  48.401  1.00  0.00    -0.268 OA
BRANCH   7  10
HETATM   10  C   UNL     1      19.149  50.474  49.363  1.00  0.00     0.041 A 
HETATM   11  C   UNL     1      17.996  49.779  48.914  1.00  0.00    -0.025 A 
HETATM   12  C   UNL     1      16.812  50.505  48.632  1.00  0.00    -0.050 A 
HETATM   13  C   UNL     1      18.025  48.280  48.679  1.00  0.00     0.041 C 
HETATM   14  C   UNL     1      15.554  49.834  48.132  1.00  0.00     0.039 C 
HETATM   15  C   UNL     1      16.768  51.886  48.863  1.00  0.00     0.008 A 
HETATM   16  C   UNL     1      15.804  48.455  47.537  1.00  0.00     0.005 C 
HETATM   17  C   UNL     1      16.654  47.634  48.493  1.00  0.00     0.005 C 
HETATM   18  C   UNL     1      17.888  52.556  49.336  1.00  0.00     0.003 A 
HETATM   19  C   UNL     1      19.068  51.855  49.578  1.00  0.00     0.030 A 
ENDBRANCH   7  10
ENDBRANCH   5   6
ENDBRANCH   1   3
BRANCH   1  20
HETATM   20  N   UNL     1      24.633  47.296  50.681  1.00  0.00    -0.262 N 
HETATM   21  C   UNL     1      25.395  46.132  50.696  1.00  0.00     0.328 C 
HETATM   22  O   UNL     1      26.350  45.904  49.966  1.00  0.00    -0.261 OA
HETATM   23  H   UNL     1      23.675  47.213  51.014  1.00  0.00     0.190 HD
BRANCH  21  24
HETATM   24  C   UNL     1      24.844  45.074  51.653  1.00  0.00     0.315 C 
HETATM   25  N   UNL     1      25.487  44.816  52.838  1.00  0.00    -0.316 N 
HETATM   26  H   UNL     1      25.299  43.895  53.222  1.00  0.00     0.169 HD
HETATM   27  O   UNL     1      23.867  44.425  51.281  1.00  0.00    -0.262 OA
BRANCH  25  28
HETATM   28  C   UNL     1      26.390  45.592  53.591  1.00  0.00     0.068 A 
HETATM   29  C   UNL     1      27.559  44.951  54.051  1.00  0.00     0.095 A 
HETATM   30  C   UNL     1      28.462  45.636  54.869  1.00  0.00     0.039 A 
HETATM   31  C   UNL     1      28.216  46.964  55.218  1.00  0.00     0.003 A 
HETATM   32  C   UNL     1      27.066  47.603  54.762  1.00  0.00     0.002 A 
HETATM   33  C   UNL     1      26.151  46.919  53.956  1.00  0.00     0.032 A 
BRANCH  29  34
HETATM   34  O   UNL     1      27.727  43.638  53.675  1.00  0.00    -0.354 OA
HETATM   35  C   UNL     1      28.935  43.043  54.143  1.00  0.00     0.210 C 
ENDBRANCH  29  34
ENDBRANCH  25  28
ENDBRANCH  21  24
ENDBRANCH   1  20
TORSDOF 7
ENDMDL
