MODEL 1
REMARK VINA RESULT:      -8.5      0.000      0.000
REMARK  9 active torsions:
REMARK  status: ('A' for Active; 'I' for Inactive)
REMARK       I    between atoms: N_2  and  C_3 
REMARK    1  A    between atoms: C_3  and  C_4 
REMARK    2  A    between atoms: C_7  and  N_8 
REMARK       I    between atoms: N_8  and  C_9 
REMARK    3  A    between atoms: C_9  and  C_10 
REMARK    4  A    between atoms: C_10  and  O_11 
REMARK    5  A    between atoms: O_11  and  C_12 
REMARK    6  A    between atoms: C_12  and  C_13 
REMARK    7  A    between atoms: C_14  and  N_15 
REMARK    8  A    between atoms: N_15  and  C_16 
REMARK    9  A    between atoms: C_16  and  C_17 
ROOT
HETATM    1  O   UNL     1      22.676  46.592  48.846  1.00  0.00    -0.308 OA
ENDROOT
BRANCH   1   2
HETATM    2  C   UNL     1      22.550  45.168  48.756  1.00  0.00     0.282 C 
BRANCH   2   3
HETATM    3  C   UNL     1      23.316  44.468  49.883  1.00  0.00     0.246 C 
HETATM    4  N   UNL     1      24.551  45.043  50.132  1.00  0.00    -0.325 N 
HETATM    5  H   UNL     1      24.852  45.763  49.476  1.00  0.00     0.169 HD
HETATM    6  O   UNL     1      22.830  43.506  50.471  1.00  0.00    -0.271 OA
BRANCH   4   7
HETATM    7  C   UNL     1      25.415  44.794  51.215  1.00  0.00     0.034 A 
HETATM    8  C   UNL     1      25.042  44.920  52.557  1.00  0.00     0.030 A 
HETATM    9  C   UNL     1      25.974  44.694  53.575  1.00  0.00     0.019 A 
HETATM   10  C   UNL     1      27.284  44.329  53.253  1.00  0.00     0.032 A 
HETATM   11  C   UNL     1      27.674  44.225  51.917  1.00  0.00     0.019 A 
HETATM   12  C   UNL     1      26.737  44.447  50.904  1.00  0.00     0.030 A 
BRANCH  10  13
HETATM   13  C   UNL     1      28.294  44.120  54.313  1.00  0.00     0.253 C 
HETATM   14  N   UNL     1      28.811  45.228  54.979  1.00  0.00    -0.357 N 
HETATM   15  C   UNL     1      29.917  45.032  55.901  1.00  0.00     0.152 C 
HETATM   16  C   UNL     1      28.230  46.564  54.948  1.00  0.00     0.152 C 
HETATM   17  O   UNL     1      28.635  42.962  54.547  1.00  0.00    -0.267 OA
ENDBRANCH  10  13
ENDBRANCH   4   7
ENDBRANCH   2   3
ENDBRANCH   1   2
BRANCH   1  18
HETATM   18  C   UNL     1      22.081  47.292  47.850  1.00  0.00     0.295 C 
HETATM   19  O   UNL     1      22.008  46.947  46.679  1.00  0.00    -0.259 OA
BRANCH  18  20
HETATM   20  C   UNL     1      21.602  48.593  48.356  1.00  0.00     0.060 A 
HETATM   21  C   UNL     1      22.384  49.757  48.193  1.00  0.00     0.025 A 
HETATM   22  C   UNL     1      21.854  50.948  48.717  1.00  0.00     0.024 A 
HETATM   23  C   UNL     1      20.650  50.968  49.433  1.00  0.00     0.002 A 
HETATM   24  C   UNL     1      19.921  49.798  49.617  1.00  0.00     0.001 A 
HETATM   25  C   UNL     1      20.391  48.610  49.073  1.00  0.00     0.019 A 
BRANCH  21  26
HETATM   26  N   UNL     1      23.547  49.734  47.406  1.00  0.00    -0.286 NA
HETATM   27  H   UNL     1      23.757  48.789  47.077  1.00  0.00     0.128 HD
BRANCH  26  28
HETATM   28  C   UNL     1      24.760  50.426  47.845  1.00  0.00     0.157 C 
BRANCH  28  29
HETATM   29  C   UNL     1      25.725  49.551  48.573  1.00  0.00     0.065 A 
HETATM   30  O   UNL     1      27.051  49.832  48.406  1.00  0.00    -0.326 OA
HETATM   31  C   UNL     1      27.745  48.909  49.122  1.00  0.00     0.142 A 
HETATM   32  C   UNL     1      26.886  48.037  49.746  1.00  0.00     0.027 A 
HETATM   33  C   UNL     1      25.579  48.449  49.392  1.00  0.00     0.036 A 
ENDBRANCH  28  29
ENDBRANCH  26  28
ENDBRANCH  21  26
ENDBRANCH  18  20
ENDBRANCH   1  18
TORSDOF 9
ENDMDL
MODEL 2
REMARK VINA RESULT:      -8.3      1.800      2.316
REMARK  9 active torsions:
REMARK  status: ('A' for Active; 'I' for Inactive)
REMARK       I    between atoms: N_2  and  C_3 
REMARK    1  A    between atoms: C_3  and  C_4 
REMARK    2  A    between atoms: C_7  and  N_8 
REMARK       I    between atoms: N_8  and  C_9 
REMARK    3  A    between atoms: C_9  and  C_10 
REMARK    4  A    between atoms: C_10  and  O_11 
REMARK    5  A    between atoms: O_11  and  C_12 
REMARK    6  A    between atoms: C_12  and  C_13 
REMARK    7  A    between atoms: C_14  and  N_15 
REMARK    8  A    between atoms: N_15  and  C_16 
REMARK    9  A    between atoms: C_16  and  C_17 
ROOT
HETATM    1  O   UNL     1      21.031  46.738  48.823  1.00  0.00    -0.308 OA
ENDROOT
BRANCH   1   2
HETATM    2  C   UNL     1      20.821  45.359  48.498  1.00  0.00     0.282 C 
BRANCH   2   3
HETATM    3  C   UNL     1      22.036  44.506  48.873  1.00  0.00     0.246 C 
HETATM    4  N   UNL     1      23.108  45.261  49.318  1.00  0.00    -0.325 N 
HETATM    5  H   UNL     1      23.012  46.273  49.229  1.00  0.00     0.169 HD
HETATM    6  O   UNL     1      22.001  43.283  48.775  1.00  0.00    -0.271 OA
BRANCH   4   7
HETATM    7  C   UNL     1      24.290  44.805  49.932  1.00  0.00     0.034 A 
HETATM    8  C   UNL     1      25.485  44.568  49.246  1.00  0.00     0.030 A 
HETATM    9  C   UNL     1      26.605  44.076  49.923  1.00  0.00     0.019 A 
HETATM   10  C   UNL     1      26.535  43.829  51.298  1.00  0.00     0.032 A 
HETATM   11  C   UNL     1      25.341  44.039  51.987  1.00  0.00     0.019 A 
HETATM   12  C   UNL     1      24.227  44.536  51.306  1.00  0.00     0.030 A 
BRANCH  10  13
HETATM   13  C   UNL     1      27.697  43.275  52.027  1.00  0.00     0.253 C 
HETATM   14  N   UNL     1      27.845  41.892  52.107  1.00  0.00    -0.357 N 
HETATM   15  C   UNL     1      28.891  41.353  52.959  1.00  0.00     0.152 C 
HETATM   16  C   UNL     1      27.130  40.929  51.281  1.00  0.00     0.152 C 
HETATM   17  O   UNL     1      28.477  44.076  52.538  1.00  0.00    -0.267 OA
ENDBRANCH  10  13
ENDBRANCH   4   7
ENDBRANCH   2   3
ENDBRANCH   1   2
BRANCH   1  18
HETATM   18  C   UNL     1      21.409  47.528  47.789  1.00  0.00     0.295 C 
HETATM   19  O   UNL     1      21.999  47.157  46.785  1.00  0.00    -0.259 OA
BRANCH  18  20
HETATM   20  C   UNL     1      21.085  48.938  48.081  1.00  0.00     0.060 A 
HETATM   21  C   UNL     1      22.080  49.936  47.985  1.00  0.00     0.025 A 
HETATM   22  C   UNL     1      21.685  51.248  48.292  1.00  0.00     0.024 A 
HETATM   23  C   UNL     1      20.393  51.543  48.746  1.00  0.00     0.002 A 
HETATM   24  C   UNL     1      19.445  50.534  48.873  1.00  0.00     0.001 A 
HETATM   25  C   UNL     1      19.786  49.231  48.534  1.00  0.00     0.019 A 
BRANCH  21  26
HETATM   26  N   UNL     1      23.346  49.637  47.454  1.00  0.00    -0.286 NA
HETATM   27  H   UNL     1      23.515  48.628  47.438  1.00  0.00     0.128 HD
BRANCH  26  28
HETATM   28  C   UNL     1      24.533  50.368  47.896  1.00  0.00     0.157 C 
BRANCH  28  29
HETATM   29  C   UNL     1      25.541  49.519  48.598  1.00  0.00     0.065 A 
HETATM   30  O   UNL     1      26.850  49.881  48.458  1.00  0.00    -0.326 OA
HETATM   31  C   UNL     1      27.589  48.970  49.143  1.00  0.00     0.142 A 
HETATM   32  C   UNL     1      26.774  48.025  49.720  1.00  0.00     0.027 A 
HETATM   33  C   UNL     1      25.450  48.377  49.368  1.00  0.00     0.036 A 
ENDBRANCH  28  29
ENDBRANCH  26  28
ENDBRANCH  21  26
ENDBRANCH  18  20
ENDBRANCH   1  18
TORSDOF 9
ENDMDL
MODEL 3
REMARK VINA RESULT:      -8.2      2.875      9.233
REMARK  9 active torsions:
REMARK  status: ('A' for Active; 'I' for Inactive)
REMARK       I    between atoms: N_2  and  C_3 
REMARK    1  A    between atoms: C_3  and  C_4 
REMARK    2  A    between atoms: C_7  and  N_8 
REMARK       I    between atoms: N_8  and  C_9 
REMARK    3  A    between atoms: C_9  and  C_10 
REMARK    4  A    between atoms: C_10  and  O_11 
REMARK    5  A    between atoms: O_11  and  C_12 
REMARK    6  A    between atoms: C_12  and  C_13 
REMARK    7  A    between atoms: C_14  and  N_15 
REMARK    8  A    between atoms: N_15  and  C_16 
REMARK    9  A    between atoms: C_16  and  C_17 
ROOT
HETATM    1  O   UNL     1      24.899  47.327  49.394  1.00  0.00    -0.308 OA
ENDROOT
BRANCH   1   2
HETATM    2  C   UNL     1      24.992  48.741  49.191  1.00  0.00     0.282 C 
BRANCH   2   3
HETATM    3  C   UNL     1      23.705  49.304  48.581  1.00  0.00     0.246 C 
HETATM    4  N   UNL     1      22.631  49.257  49.454  1.00  0.00    -0.325 N 
HETATM    5  H   UNL     1      22.785  48.757  50.329  1.00  0.00     0.169 HD
HETATM    6  O   UNL     1      23.690  49.742  47.434  1.00  0.00    -0.271 OA
BRANCH   4   7
HETATM    7  C   UNL     1      21.371  49.867  49.306  1.00  0.00     0.034 A 
HETATM    8  C   UNL     1      21.189  51.223  49.015  1.00  0.00     0.030 A 
HETATM    9  C   UNL     1      19.901  51.761  48.924  1.00  0.00     0.019 A 
HETATM   10  C   UNL     1      18.787  50.938  49.113  1.00  0.00     0.032 A 
HETATM   11  C   UNL     1      18.957  49.590  49.428  1.00  0.00     0.019 A 
HETATM   12  C   UNL     1      20.246  49.057  49.513  1.00  0.00     0.030 A 
BRANCH  10  13
HETATM   13  C   UNL     1      17.417  51.494  49.056  1.00  0.00     0.253 C 
HETATM   14  N   UNL     1      16.812  51.668  47.813  1.00  0.00    -0.357 N 
HETATM   15  C   UNL     1      15.538  52.363  47.752  1.00  0.00     0.152 C 
HETATM   16  C   UNL     1      17.277  51.070  46.569  1.00  0.00     0.152 C 
HETATM   17  O   UNL     1      16.881  51.785  50.123  1.00  0.00    -0.267 OA
ENDBRANCH  10  13
ENDBRANCH   4   7
ENDBRANCH   2   3
ENDBRANCH   1   2
BRANCH   1  18
HETATM   18  C   UNL     1      24.943  46.922  50.686  1.00  0.00     0.295 C 
HETATM   19  O   UNL     1      25.175  47.635  51.651  1.00  0.00    -0.259 OA
BRANCH  18  20
HETATM   20  C   UNL     1      24.757  45.460  50.768  1.00  0.00     0.060 A 
HETATM   21  C   UNL     1      25.737  44.646  51.377  1.00  0.00     0.025 A 
HETATM   22  C   UNL     1      25.482  43.265  51.399  1.00  0.00     0.024 A 
HETATM   23  C   UNL     1      24.352  42.713  50.781  1.00  0.00     0.002 A 
HETATM   24  C   UNL     1      23.424  43.534  50.150  1.00  0.00     0.001 A 
HETATM   25  C   UNL     1      23.620  44.909  50.148  1.00  0.00     0.019 A 
BRANCH  21  26
HETATM   26  N   UNL     1      26.822  45.221  52.059  1.00  0.00    -0.286 NA
HETATM   27  H   UNL     1      27.674  45.194  51.494  1.00  0.00     0.128 HD
BRANCH  26  28
HETATM   28  C   UNL     1      27.098  44.871  53.453  1.00  0.00     0.157 C 
BRANCH  28  29
HETATM   29  C   UNL     1      28.395  44.161  53.654  1.00  0.00     0.065 A 
HETATM   30  O   UNL     1      28.948  43.573  52.553  1.00  0.00    -0.326 OA
HETATM   31  C   UNL     1      30.092  42.966  52.960  1.00  0.00     0.142 A 
HETATM   32  C   UNL     1      30.284  43.153  54.308  1.00  0.00     0.027 A 
HETATM   33  C   UNL     1      29.187  43.924  54.760  1.00  0.00     0.036 A 
ENDBRANCH  28  29
ENDBRANCH  26  28
ENDBRANCH  21  26
ENDBRANCH  18  20
ENDBRANCH   1  18
TORSDOF 9
ENDMDL
MODEL 4
REMARK VINA RESULT:      -8.1      2.095      4.548
REMARK  9 active torsions:
REMARK  status: ('A' for Active; 'I' for Inactive)
REMARK       I    between atoms: N_2  and  C_3 
REMARK    1  A    between atoms: C_3  and  C_4 
REMARK    2  A    between atoms: C_7  and  N_8 
REMARK       I    between atoms: N_8  and  C_9 
REMARK    3  A    between atoms: C_9  and  C_10 
REMARK    4  A    between atoms: C_10  and  O_11 
REMARK    5  A    between atoms: O_11  and  C_12 
REMARK    6  A    between atoms: C_12  and  C_13 
REMARK    7  A    between atoms: C_14  and  N_15 
REMARK    8  A    between atoms: N_15  and  C_16 
REMARK    9  A    between atoms: C_16  and  C_17 
ROOT
HETATM    1  O   UNL     1      26.097  45.403  49.510  1.00  0.00    -0.308 OA
ENDROOT
BRANCH   1   2
HETATM    2  C   UNL     1      25.727  44.079  49.910  1.00  0.00     0.282 C 
BRANCH   2   3
HETATM    3  C   UNL     1      26.266  43.746  51.304  1.00  0.00     0.246 C 
HETATM    4  N   UNL     1      27.643  43.868  51.392  1.00  0.00    -0.325 N 
HETATM    5  H   UNL     1      28.136  44.038  50.515  1.00  0.00     0.169 HD
HETATM    6  O   UNL     1      25.507  43.417  52.211  1.00  0.00    -0.271 OA
BRANCH   4   7
HETATM    7  C   UNL     1      28.439  43.844  52.553  1.00  0.00     0.034 A 
HETATM    8  C   UNL     1      29.595  43.070  52.691  1.00  0.00     0.030 A 
HETATM    9  C   UNL     1      30.309  43.070  53.893  1.00  0.00     0.019 A 
HETATM   10  C   UNL     1      29.872  43.858  54.963  1.00  0.00     0.032 A 
HETATM   11  C   UNL     1      28.707  44.615  54.845  1.00  0.00     0.019 A 
HETATM   12  C   UNL     1      28.000  44.614  53.638  1.00  0.00     0.030 A 
BRANCH  10  13
HETATM   13  C   UNL     1      30.592  43.847  56.255  1.00  0.00     0.253 C 
HETATM   14  N   UNL     1      30.474  44.946  57.102  1.00  0.00    -0.357 N 
HETATM   15  C   UNL     1      31.308  45.001  58.290  1.00  0.00     0.152 C 
HETATM   16  C   UNL     1      29.462  45.986  56.979  1.00  0.00     0.152 C 
HETATM   17  O   UNL     1      31.273  42.856  56.512  1.00  0.00    -0.267 OA
ENDBRANCH  10  13
ENDBRANCH   4   7
ENDBRANCH   2   3
ENDBRANCH   1   2
BRANCH   1  18
HETATM   18  C   UNL     1      25.397  46.404  50.096  1.00  0.00     0.295 C 
HETATM   19  O   UNL     1      24.480  46.264  50.892  1.00  0.00    -0.259 OA
BRANCH  18  20
HETATM   20  C   UNL     1      25.836  47.711  49.568  1.00  0.00     0.060 A 
HETATM   21  C   UNL     1      24.896  48.626  49.047  1.00  0.00     0.025 A 
HETATM   22  C   UNL     1      25.406  49.839  48.556  1.00  0.00     0.024 A 
HETATM   23  C   UNL     1      26.782  50.097  48.512  1.00  0.00     0.002 A 
HETATM   24  C   UNL     1      27.690  49.160  48.992  1.00  0.00     0.001 A 
HETATM   25  C   UNL     1      27.219  47.968  49.527  1.00  0.00     0.019 A 
BRANCH  21  26
HETATM   26  N   UNL     1      23.517  48.385  49.171  1.00  0.00    -0.286 NA
HETATM   27  H   UNL     1      23.335  47.490  49.630  1.00  0.00     0.128 HD
BRANCH  26  28
HETATM   28  C   UNL     1      22.618  48.593  48.035  1.00  0.00     0.157 C 
BRANCH  28  29
HETATM   29  C   UNL     1      21.624  49.687  48.243  1.00  0.00     0.065 A 
HETATM   30  O   UNL     1      20.313  49.370  48.031  1.00  0.00    -0.326 OA
HETATM   31  C   UNL     1      19.592  50.501  48.243  1.00  0.00     0.142 A 
HETATM   32  C   UNL     1      20.420  51.543  48.587  1.00  0.00     0.027 A 
HETATM   33  C   UNL     1      21.735  51.019  48.586  1.00  0.00     0.036 A 
ENDBRANCH  28  29
ENDBRANCH  26  28
ENDBRANCH  21  26
ENDBRANCH  18  20
ENDBRANCH   1  18
TORSDOF 9
ENDMDL
MODEL 5
REMARK VINA RESULT:      -8.1      3.199      9.274
REMARK  9 active torsions:
REMARK  status: ('A' for Active; 'I' for Inactive)
REMARK       I    between atoms: N_2  and  C_3 
REMARK    1  A    between atoms: C_3  and  C_4 
REMARK    2  A    between atoms: C_7  and  N_8 
REMARK       I    between atoms: N_8  and  C_9 
REMARK    3  A    between atoms: C_9  and  C_10 
REMARK    4  A    between atoms: C_10  and  O_11 
REMARK    5  A    between atoms: O_11  and  C_12 
REMARK    6  A    between atoms: C_12  and  C_13 
REMARK    7  A    between atoms: C_14  and  N_15 
REMARK    8  A    between atoms: N_15  and  C_16 
REMARK    9  A    between atoms: C_16  and  C_17 
ROOT
HETATM    1  O   UNL     1      24.381  47.992  50.331  1.00  0.00    -0.308 OA
ENDROOT
BRANCH   1   2
HETATM    2  C   UNL     1      24.210  48.442  48.982  1.00  0.00     0.282 C 
BRANCH   2   3
HETATM    3  C   UNL     1      22.742  48.758  48.681  1.00  0.00     0.246 C 
HETATM    4  N   UNL     1      22.148  49.540  49.657  1.00  0.00    -0.325 N 
HETATM    5  H   UNL     1      22.702  49.707  50.498  1.00  0.00     0.169 HD
HETATM    6  O   UNL     1      22.204  48.337  47.661  1.00  0.00    -0.271 OA
BRANCH   4   7
HETATM    7  C   UNL     1      20.897  50.183  49.606  1.00  0.00     0.034 A 
HETATM    8  C   UNL     1      19.740  49.690  50.216  1.00  0.00     0.030 A 
HETATM    9  C   UNL     1      18.524  50.368  50.083  1.00  0.00     0.019 A 
HETATM   10  C   UNL     1      18.465  51.554  49.345  1.00  0.00     0.032 A 
HETATM   11  C   UNL     1      19.608  52.042  48.711  1.00  0.00     0.019 A 
HETATM   12  C   UNL     1      20.821  51.362  48.852  1.00  0.00     0.030 A 
BRANCH  10  13
HETATM   13  C   UNL     1      17.183  52.268  49.162  1.00  0.00     0.253 C 
HETATM   14  N   UNL     1      16.419  52.001  48.029  1.00  0.00    -0.357 N 
HETATM   15  C   UNL     1      15.246  52.821  47.772  1.00  0.00     0.152 C 
HETATM   16  C   UNL     1      16.608  50.858  47.147  1.00  0.00     0.152 C 
HETATM   17  O   UNL     1      16.859  53.078  50.029  1.00  0.00    -0.267 OA
ENDBRANCH  10  13
ENDBRANCH   4   7
ENDBRANCH   2   3
ENDBRANCH   1   2
BRANCH   1  18
HETATM   18  C   UNL     1      25.644  47.639  50.670  1.00  0.00     0.295 C 
HETATM   19  O   UNL     1      26.663  47.987  50.092  1.00  0.00    -0.259 OA
BRANCH  18  20
HETATM   20  C   UNL     1      25.622  46.687  51.798  1.00  0.00     0.060 A 
HETATM   21  C   UNL     1      24.997  45.428  51.661  1.00  0.00     0.025 A 
HETATM   22  C   UNL     1      25.014  44.592  52.790  1.00  0.00     0.024 A 
HETATM   23  C   UNL     1      25.552  45.014  54.012  1.00  0.00     0.002 A 
HETATM   24  C   UNL     1      26.122  46.276  54.132  1.00  0.00     0.001 A 
HETATM   25  C   UNL     1      26.165  47.113  53.024  1.00  0.00     0.019 A 
BRANCH  21  26
HETATM   26  N   UNL     1      24.533  44.991  50.409  1.00  0.00    -0.286 NA
HETATM   27  H   UNL     1      23.737  44.356  50.507  1.00  0.00     0.128 HD
BRANCH  26  28
HETATM   28  C   UNL     1      25.470  44.516  49.390  1.00  0.00     0.157 C 
BRANCH  28  29
HETATM   29  C   UNL     1      25.873  43.089  49.556  1.00  0.00     0.065 A 
HETATM   30  O   UNL     1      27.097  42.738  49.064  1.00  0.00    -0.326 OA
HETATM   31  C   UNL     1      27.250  41.407  49.291  1.00  0.00     0.142 A 
HETATM   32  C   UNL     1      26.140  40.896  49.920  1.00  0.00     0.027 A 
HETATM   33  C   UNL     1      25.248  41.981  50.092  1.00  0.00     0.036 A 
ENDBRANCH  28  29
ENDBRANCH  26  28
ENDBRANCH  21  26
ENDBRANCH  18  20
ENDBRANCH   1  18
TORSDOF 9
ENDMDL
MODEL 6
REMARK VINA RESULT:      -8.0      2.374      8.781
REMARK  9 active torsions:
REMARK  status: ('A' for Active; 'I' for Inactive)
REMARK       I    between atoms: N_2  and  C_3 
REMARK    1  A    between atoms: C_3  and  C_4 
REMARK    2  A    between atoms: C_7  and  N_8 
REMARK       I    between atoms: N_8  and  C_9 
REMARK    3  A    between atoms: C_9  and  C_10 
REMARK    4  A    between atoms: C_10  and  O_11 
REMARK    5  A    between atoms: O_11  and  C_12 
REMARK    6  A    between atoms: C_12  and  C_13 
REMARK    7  A    between atoms: C_14  and  N_15 
REMARK    8  A    between atoms: N_15  and  C_16 
REMARK    9  A    between atoms: C_16  and  C_17 
ROOT
HETATM    1  O   UNL     1      25.870  48.106  50.004  1.00  0.00    -0.308 OA
ENDROOT
BRANCH   1   2
HETATM    2  C   UNL     1      26.180  49.157  49.082  1.00  0.00     0.282 C 
BRANCH   2   3
HETATM    3  C   UNL     1      24.942  49.586  48.289  1.00  0.00     0.246 C 
HETATM    4  N   UNL     1      23.757  49.184  48.881  1.00  0.00    -0.325 N 
HETATM    5  H   UNL     1      23.845  48.562  49.684  1.00  0.00     0.169 HD
HETATM    6  O   UNL     1      25.053  50.224  47.246  1.00  0.00    -0.271 OA
BRANCH   4   7
HETATM    7  C   UNL     1      22.448  49.576  48.545  1.00  0.00     0.034 A 
HETATM    8  C   UNL     1      21.500  48.725  47.968  1.00  0.00     0.030 A 
HETATM    9  C   UNL     1      20.232  49.204  47.626  1.00  0.00     0.019 A 
HETATM   10  C   UNL     1      19.902  50.540  47.871  1.00  0.00     0.032 A 
HETATM   11  C   UNL     1      20.847  51.405  48.423  1.00  0.00     0.019 A 
HETATM   12  C   UNL     1      22.112  50.919  48.767  1.00  0.00     0.030 A 
BRANCH  10  13
HETATM   13  C   UNL     1      18.579  51.076  47.485  1.00  0.00     0.253 C 
HETATM   14  N   UNL     1      17.568  51.128  48.442  1.00  0.00    -0.357 N 
HETATM   15  C   UNL     1      16.228  51.500  48.018  1.00  0.00     0.152 C 
HETATM   16  C   UNL     1      17.771  50.989  49.877  1.00  0.00     0.152 C 
HETATM   17  O   UNL     1      18.437  51.445  46.321  1.00  0.00    -0.267 OA
ENDBRANCH  10  13
ENDBRANCH   4   7
ENDBRANCH   2   3
ENDBRANCH   1   2
BRANCH   1  18
HETATM   18  C   UNL     1      26.413  46.900  49.713  1.00  0.00     0.295 C 
HETATM   19  O   UNL     1      27.501  46.713  49.188  1.00  0.00    -0.259 OA
BRANCH  18  20
HETATM   20  C   UNL     1      25.461  45.820  50.041  1.00  0.00     0.060 A 
HETATM   21  C   UNL     1      25.815  44.806  50.958  1.00  0.00     0.025 A 
HETATM   22  C   UNL     1      24.852  43.813  51.199  1.00  0.00     0.024 A 
HETATM   23  C   UNL     1      23.633  43.784  50.509  1.00  0.00     0.002 A 
HETATM   24  C   UNL     1      23.328  44.770  49.578  1.00  0.00     0.001 A 
HETATM   25  C   UNL     1      24.237  45.794  49.347  1.00  0.00     0.019 A 
BRANCH  21  26
HETATM   26  N   UNL     1      27.006  44.894  51.698  1.00  0.00    -0.286 NA
HETATM   27  H   UNL     1      27.824  44.718  51.110  1.00  0.00     0.128 HD
BRANCH  26  28
HETATM   28  C   UNL     1      27.130  44.230  52.996  1.00  0.00     0.157 C 
BRANCH  28  29
HETATM   29  C   UNL     1      27.761  45.075  54.051  1.00  0.00     0.065 A 
HETATM   30  O   UNL     1      27.291  46.351  54.175  1.00  0.00    -0.326 OA
HETATM   31  C   UNL     1      28.013  46.947  55.159  1.00  0.00     0.142 A 
HETATM   32  C   UNL     1      28.943  46.073  55.670  1.00  0.00     0.027 A 
HETATM   33  C   UNL     1      28.783  44.863  54.955  1.00  0.00     0.036 A 
ENDBRANCH  28  29
ENDBRANCH  26  28
ENDBRANCH  21  26
ENDBRANCH  18  20
ENDBRANCH   1  18
TORSDOF 9
ENDMDL
MODEL 7
REMARK VINA RESULT:      -7.8      2.879      9.217
REMARK  9 active torsions:
REMARK  status: ('A' for Active; 'I' for Inactive)
REMARK       I    between atoms: N_2  and  C_3 
REMARK    1  A    between atoms: C_3  and  C_4 
REMARK    2  A    between atoms: C_7  and  N_8 
REMARK       I    between atoms: N_8  and  C_9 
REMARK    3  A    between atoms: C_9  and  C_10 
REMARK    4  A    between atoms: C_10  and  O_11 
REMARK    5  A    between atoms: O_11  and  C_12 
REMARK    6  A    between atoms: C_12  and  C_13 
REMARK    7  A    between atoms: C_14  and  N_15 
REMARK    8  A    between atoms: N_15  and  C_16 
REMARK    9  A    between atoms: C_16  and  C_17 
ROOT
HETATM    1  O   UNL     1      24.878  47.944  50.109  1.00  0.00    -0.308 OA
ENDROOT
BRANCH   1   2
HETATM    2  C   UNL     1      24.727  48.880  49.036  1.00  0.00     0.282 C 
BRANCH   2   3
HETATM    3  C   UNL     1      23.253  49.077  48.670  1.00  0.00     0.246 C 
HETATM    4  N   UNL     1      22.591  49.927  49.540  1.00  0.00    -0.325 N 
HETATM    5  H   UNL     1      23.112  50.216  50.369  1.00  0.00     0.169 HD
HETATM    6  O   UNL     1      22.767  48.517  47.692  1.00  0.00    -0.271 OA
BRANCH   4   7
HETATM    7  C   UNL     1      21.309  50.487  49.391  1.00  0.00     0.034 A 
HETATM    8  C   UNL     1      21.011  51.535  48.515  1.00  0.00     0.030 A 
HETATM    9  C   UNL     1      19.717  52.063  48.455  1.00  0.00     0.019 A 
HETATM   10  C   UNL     1      18.710  51.534  49.268  1.00  0.00     0.032 A 
HETATM   11  C   UNL     1      19.001  50.505  50.163  1.00  0.00     0.019 A 
HETATM   12  C   UNL     1      20.295  49.977  50.215  1.00  0.00     0.030 A 
BRANCH  10  13
HETATM   13  C   UNL     1      17.344  52.101  49.246  1.00  0.00     0.253 C 
HETATM   14  N   UNL     1      16.483  51.742  48.212  1.00  0.00    -0.357 N 
HETATM   15  C   UNL     1      15.204  52.424  48.105  1.00  0.00     0.152 C 
HETATM   16  C   UNL     1      16.688  50.619  47.308  1.00  0.00     0.152 C 
HETATM   17  O   UNL     1      17.041  52.876  50.150  1.00  0.00    -0.267 OA
ENDBRANCH  10  13
ENDBRANCH   4   7
ENDBRANCH   2   3
ENDBRANCH   1   2
BRANCH   1  18
HETATM   18  C   UNL     1      26.073  47.309  50.162  1.00  0.00     0.295 C 
HETATM   19  O   UNL     1      26.925  47.313  49.284  1.00  0.00    -0.259 OA
BRANCH  18  20
HETATM   20  C   UNL     1      26.178  46.522  51.406  1.00  0.00     0.060 A 
HETATM   21  C   UNL     1      26.511  45.150  51.361  1.00  0.00     0.025 A 
HETATM   22  C   UNL     1      26.575  44.478  52.592  1.00  0.00     0.024 A 
HETATM   23  C   UNL     1      26.252  45.114  53.798  1.00  0.00     0.002 A 
HETATM   24  C   UNL     1      25.885  46.455  53.810  1.00  0.00     0.001 A 
HETATM   25  C   UNL     1      25.854  47.164  52.615  1.00  0.00     0.019 A 
BRANCH  21  26
HETATM   26  N   UNL     1      26.908  44.549  50.155  1.00  0.00    -0.286 NA
HETATM   27  H   UNL     1      27.206  45.248  49.470  1.00  0.00     0.128 HD
BRANCH  26  28
HETATM   28  C   UNL     1      26.088  43.510  49.532  1.00  0.00     0.157 C 
BRANCH  28  29
HETATM   29  C   UNL     1      24.644  43.870  49.411  1.00  0.00     0.065 A 
HETATM   30  O   UNL     1      23.774  43.184  50.209  1.00  0.00    -0.326 OA
HETATM   31  C   UNL     1      22.528  43.641  49.922  1.00  0.00     0.142 A 
HETATM   32  C   UNL     1      22.582  44.610  48.949  1.00  0.00     0.027 A 
HETATM   33  C   UNL     1      23.949  44.759  48.616  1.00  0.00     0.036 A 
ENDBRANCH  28  29
ENDBRANCH  26  28
ENDBRANCH  21  26
ENDBRANCH  18  20
ENDBRANCH   1  18
TORSDOF 9
ENDMDL
MODEL 8
REMARK VINA RESULT:      -7.8      5.024      9.156
REMARK  9 active torsions:
REMARK  status: ('A' for Active; 'I' for Inactive)
REMARK       I    between atoms: N_2  and  C_3 
REMARK    1  A    between atoms: C_3  and  C_4 
REMARK    2  A    between atoms: C_7  and  N_8 
REMARK       I    between atoms: N_8  and  C_9 
REMARK    3  A    between atoms: C_9  and  C_10 
REMARK    4  A    between atoms: C_10  and  O_11 
REMARK    5  A    between atoms: O_11  and  C_12 
REMARK    6  A    between atoms: C_12  and  C_13 
REMARK    7  A    between atoms: C_14  and  N_15 
REMARK    8  A    between atoms: N_15  and  C_16 
REMARK    9  A    between atoms: C_16  and  C_17 
ROOT
HETATM    1  O   UNL     1      27.960  42.127  53.483  1.00  0.00    -0.308 OA
ENDROOT
BRANCH   1   2
HETATM    2  C   UNL     1      28.663  41.092  52.786  1.00  0.00     0.282 C 
BRANCH   2   3
HETATM    3  C   UNL     1      27.978  40.748  51.460  1.00  0.00     0.246 C 
HETATM    4  N   UNL     1      28.876  40.406  50.463  1.00  0.00    -0.325 N 
HETATM    5  H   UNL     1      29.864  40.539  50.684  1.00  0.00     0.169 HD
HETATM    6  O   UNL     1      26.755  40.785  51.355  1.00  0.00    -0.271 OA
BRANCH   4   7
HETATM    7  C   UNL     1      28.595  39.843  49.204  1.00  0.00     0.034 A 
HETATM    8  C   UNL     1      28.711  38.480  48.915  1.00  0.00     0.030 A 
HETATM    9  C   UNL     1      28.452  38.005  47.625  1.00  0.00     0.019 A 
HETATM   10  C   UNL     1      28.063  38.895  46.620  1.00  0.00     0.032 A 
HETATM   11  C   UNL     1      27.968  40.260  46.891  1.00  0.00     0.019 A 
HETATM   12  C   UNL     1      28.224  40.728  48.183  1.00  0.00     0.030 A 
BRANCH  10  13
HETATM   13  C   UNL     1      27.818  38.419  45.241  1.00  0.00     0.253 C 
HETATM   14  N   UNL     1      26.571  37.887  44.923  1.00  0.00    -0.357 N 
HETATM   15  C   UNL     1      26.388  37.273  43.619  1.00  0.00     0.152 C 
HETATM   16  C   UNL     1      25.372  38.033  45.737  1.00  0.00     0.152 C 
HETATM   17  O   UNL     1      28.746  38.511  44.439  1.00  0.00    -0.267 OA
ENDBRANCH  10  13
ENDBRANCH   4   7
ENDBRANCH   2   3
ENDBRANCH   1   2
BRANCH   1  18
HETATM   18  C   UNL     1      28.337  43.391  53.179  1.00  0.00     0.295 C 
HETATM   19  O   UNL     1      28.252  43.918  52.079  1.00  0.00    -0.259 OA
BRANCH  18  20
HETATM   20  C   UNL     1      28.958  44.035  54.354  1.00  0.00     0.060 A 
HETATM   21  C   UNL     1      28.338  45.141  54.976  1.00  0.00     0.025 A 
HETATM   22  C   UNL     1      29.006  45.697  56.079  1.00  0.00     0.024 A 
HETATM   23  C   UNL     1      30.260  45.230  56.494  1.00  0.00     0.002 A 
HETATM   24  C   UNL     1      30.869  44.168  55.836  1.00  0.00     0.001 A 
HETATM   25  C   UNL     1      30.216  43.563  54.769  1.00  0.00     0.019 A 
BRANCH  21  26
HETATM   26  N   UNL     1      27.046  45.545  54.598  1.00  0.00    -0.286 NA
HETATM   27  H   UNL     1      26.520  44.771  54.184  1.00  0.00     0.128 HD
BRANCH  26  28
HETATM   28  C   UNL     1      26.841  46.787  53.852  1.00  0.00     0.157 C 
BRANCH  28  29
HETATM   29  C   UNL     1      26.046  46.617  52.600  1.00  0.00     0.065 A 
HETATM   30  O   UNL     1      26.157  47.606  51.666  1.00  0.00    -0.326 OA
HETATM   31  C   UNL     1      25.339  47.271  50.634  1.00  0.00     0.142 A 
HETATM   32  C   UNL     1      24.701  46.081  50.892  1.00  0.00     0.027 A 
HETATM   33  C   UNL     1      25.155  45.657  52.163  1.00  0.00     0.036 A 
ENDBRANCH  28  29
ENDBRANCH  26  28
ENDBRANCH  21  26
ENDBRANCH  18  20
ENDBRANCH   1  18
TORSDOF 9
ENDMDL
MODEL 9
REMARK VINA RESULT:      -7.7      2.182      3.834
REMARK  9 active torsions:
REMARK  status: ('A' for Active; 'I' for Inactive)
REMARK       I    between atoms: N_2  and  C_3 
REMARK    1  A    between atoms: C_3  and  C_4 
REMARK    2  A    between atoms: C_7  and  N_8 
REMARK       I    between atoms: N_8  and  C_9 
REMARK    3  A    between atoms: C_9  and  C_10 
REMARK    4  A    between atoms: C_10  and  O_11 
REMARK    5  A    between atoms: O_11  and  C_12 
REMARK    6  A    between atoms: C_12  and  C_13 
REMARK    7  A    between atoms: C_14  and  N_15 
REMARK    8  A    between atoms: N_15  and  C_16 
REMARK    9  A    between atoms: C_16  and  C_17 
ROOT
HETATM    1  O   UNL     1      22.799  48.340  49.620  1.00  0.00    -0.308 OA
ENDROOT
BRANCH   1   2
HETATM    2  C   UNL     1      23.560  47.160  49.338  1.00  0.00     0.282 C 
BRANCH   2   3
HETATM    3  C   UNL     1      24.632  46.920  50.406  1.00  0.00     0.246 C 
HETATM    4  N   UNL     1      24.791  45.580  50.717  1.00  0.00    -0.325 N 
HETATM    5  H   UNL     1      24.112  44.940  50.305  1.00  0.00     0.169 HD
HETATM    6  O   UNL     1      25.256  47.858  50.893  1.00  0.00    -0.271 OA
BRANCH   4   7
HETATM    7  C   UNL     1      25.810  44.988  51.486  1.00  0.00     0.034 A 
HETATM    8  C   UNL     1      27.056  44.612  50.975  1.00  0.00     0.030 A 
HETATM    9  C   UNL     1      28.001  43.990  51.797  1.00  0.00     0.019 A 
HETATM   10  C   UNL     1      27.706  43.753  53.143  1.00  0.00     0.032 A 
HETATM   11  C   UNL     1      26.457  44.102  53.658  1.00  0.00     0.019 A 
HETATM   12  C   UNL     1      25.518  44.727  52.832  1.00  0.00     0.030 A 
BRANCH  10  13
HETATM   13  C   UNL     1      28.677  43.066  54.021  1.00  0.00     0.253 C 
HETATM   14  N   UNL     1      29.475  43.829  54.871  1.00  0.00    -0.357 N 
HETATM   15  C   UNL     1      30.537  43.167  55.609  1.00  0.00     0.152 C 
HETATM   16  C   UNL     1      29.235  45.226  55.206  1.00  0.00     0.152 C 
HETATM   17  O   UNL     1      28.736  41.840  53.948  1.00  0.00    -0.267 OA
ENDBRANCH  10  13
ENDBRANCH   4   7
ENDBRANCH   2   3
ENDBRANCH   1   2
BRANCH   1  18
HETATM   18  C   UNL     1      22.079  48.828  48.582  1.00  0.00     0.295 C 
HETATM   19  O   UNL     1      22.400  48.779  47.403  1.00  0.00    -0.259 OA
BRANCH  18  20
HETATM   20  C   UNL     1      20.872  49.519  49.078  1.00  0.00     0.060 A 
HETATM   21  C   UNL     1      19.747  48.779  49.503  1.00  0.00     0.025 A 
HETATM   22  C   UNL     1      18.640  49.520  49.948  1.00  0.00     0.024 A 
HETATM   23  C   UNL     1      18.621  50.920  49.900  1.00  0.00     0.002 A 
HETATM   24  C   UNL     1      19.727  51.623  49.435  1.00  0.00     0.001 A 
HETATM   25  C   UNL     1      20.857  50.925  49.030  1.00  0.00     0.019 A 
BRANCH  21  26
HETATM   26  N   UNL     1      19.811  47.381  49.620  1.00  0.00    -0.286 NA
HETATM   27  H   UNL     1      20.759  47.068  49.846  1.00  0.00     0.128 HD
BRANCH  26  28
HETATM   28  C   UNL     1      19.194  46.519  48.612  1.00  0.00     0.157 C 
BRANCH  28  29
HETATM   29  C   UNL     1      20.133  46.068  47.543  1.00  0.00     0.065 A 
HETATM   30  O   UNL     1      20.022  46.686  46.330  1.00  0.00    -0.326 OA
HETATM   31  C   UNL     1      20.936  46.112  45.507  1.00  0.00     0.142 A 
HETATM   32  C   UNL     1      21.634  45.131  46.171  1.00  0.00     0.027 A 
HETATM   33  C   UNL     1      21.115  45.100  47.487  1.00  0.00     0.036 A 
ENDBRANCH  28  29
ENDBRANCH  26  28
ENDBRANCH  21  26
ENDBRANCH  18  20
ENDBRANCH   1  18
TORSDOF 9
ENDMDL
MODEL 10
REMARK VINA RESULT:      -7.6     11.314     13.607
REMARK  9 active torsions:
REMARK  status: ('A' for Active; 'I' for Inactive)
REMARK       I    between atoms: N_2  and  C_3 
REMARK    1  A    between atoms: C_3  and  C_4 
REMARK    2  A    between atoms: C_7  and  N_8 
REMARK       I    between atoms: N_8  and  C_9 
REMARK    3  A    between atoms: C_9  and  C_10 
REMARK    4  A    between atoms: C_10  and  O_11 
REMARK    5  A    between atoms: O_11  and  C_12 
REMARK    6  A    between atoms: C_12  and  C_13 
REMARK    7  A    between atoms: C_14  and  N_15 
REMARK    8  A    between atoms: N_15  and  C_16 
REMARK    9  A    between atoms: C_16  and  C_17 
ROOT
HETATM    1  O   UNL     1      31.477  50.564  38.703  1.00  0.00    -0.308 OA
ENDROOT
BRANCH   1   2
HETATM    2  C   UNL     1      32.690  51.300  38.507  1.00  0.00     0.282 C 
BRANCH   2   3
HETATM    3  C   UNL     1      33.162  51.956  39.808  1.00  0.00     0.246 C 
HETATM    4  N   UNL     1      34.210  51.276  40.404  1.00  0.00    -0.325 N 
HETATM    5  H   UNL     1      34.456  50.377  39.989  1.00  0.00     0.169 HD
HETATM    6  O   UNL     1      32.630  52.981  40.224  1.00  0.00    -0.271 OA
BRANCH   4   7
HETATM    7  C   UNL     1      35.014  51.701  41.478  1.00  0.00     0.034 A 
HETATM    8  C   UNL     1      34.668  51.545  42.824  1.00  0.00     0.030 A 
HETATM    9  C   UNL     1      35.505  52.032  43.832  1.00  0.00     0.019 A 
HETATM   10  C   UNL     1      36.704  52.670  43.496  1.00  0.00     0.032 A 
HETATM   11  C   UNL     1      37.048  52.853  42.157  1.00  0.00     0.019 A 
HETATM   12  C   UNL     1      36.209  52.359  41.153  1.00  0.00     0.030 A 
BRANCH  10  13
HETATM   13  C   UNL     1      37.587  53.224  44.545  1.00  0.00     0.253 C 
HETATM   14  N   UNL     1      38.610  52.427  45.054  1.00  0.00    -0.357 N 
HETATM   15  C   UNL     1      39.367  52.913  46.194  1.00  0.00     0.152 C 
HETATM   16  C   UNL     1      39.094  51.199  44.438  1.00  0.00     0.152 C 
HETATM   17  O   UNL     1      37.362  54.372  44.924  1.00  0.00    -0.267 OA
ENDBRANCH  10  13
ENDBRANCH   4   7
ENDBRANCH   2   3
ENDBRANCH   1   2
BRANCH   1  18
HETATM   18  C   UNL     1      30.354  51.159  38.233  1.00  0.00     0.295 C 
HETATM   19  O   UNL     1      30.178  51.550  37.088  1.00  0.00    -0.259 OA
BRANCH  18  20
HETATM   20  C   UNL     1      29.385  51.357  39.328  1.00  0.00     0.060 A 
HETATM   21  C   UNL     1      28.596  50.281  39.790  1.00  0.00     0.025 A 
HETATM   22  C   UNL     1      27.692  50.564  40.827  1.00  0.00     0.024 A 
HETATM   23  C   UNL     1      27.524  51.863  41.325  1.00  0.00     0.002 A 
HETATM   24  C   UNL     1      28.282  52.913  40.821  1.00  0.00     0.001 A 
HETATM   25  C   UNL     1      29.219  52.662  39.827  1.00  0.00     0.019 A 
BRANCH  21  26
HETATM   26  N   UNL     1      28.833  48.972  39.336  1.00  0.00    -0.286 NA
HETATM   27  H   UNL     1      28.090  48.655  38.708  1.00  0.00     0.128 HD
BRANCH  26  28
HETATM   28  C   UNL     1      29.226  47.917  40.270  1.00  0.00     0.157 C 
BRANCH  28  29
HETATM   29  C   UNL     1      30.485  48.208  41.017  1.00  0.00     0.065 A 
HETATM   30  O   UNL     1      31.647  47.764  40.454  1.00  0.00    -0.326 OA
HETATM   31  C   UNL     1      32.653  48.103  41.300  1.00  0.00     0.142 A 
HETATM   32  C   UNL     1      32.156  48.757  42.402  1.00  0.00     0.027 A 
HETATM   33  C   UNL     1      30.755  48.825  42.222  1.00  0.00     0.036 A 
ENDBRANCH  28  29
ENDBRANCH  26  28
ENDBRANCH  21  26
ENDBRANCH  18  20
ENDBRANCH   1  18
TORSDOF 9
ENDMDL
