MODEL 1
REMARK VINA RESULT:      -9.3      0.000      0.000
REMARK  9 active torsions:
REMARK  status: ('A' for Active; 'I' for Inactive)
REMARK    1  A    between atoms: C_2  and  C_3 
REMARK    2  A    between atoms: C_6  and  N_7 
REMARK    3  A    between atoms: N_7  and  S_8 
REMARK    4  A    between atoms: S_8  and  C_9 
REMARK    5  A    between atoms: C_15  and  C_16 
REMARK       I    between atoms: C_16  and  N_17 
REMARK    6  A    between atoms: N_17  and  C_18 
REMARK    7  A    between atoms: C_18  and  C_19 
REMARK    8  A    between atoms: C_19  and  C_20 
REMARK    9  A    between atoms: C_20  and  O_21 
ROOT
HETATM    1  C   UNL     1      25.489  46.660  50.153  1.00  0.00     0.081 A 
HETATM    2  C   UNL     1      24.173  47.020  49.848  1.00  0.00     0.043 A 
HETATM    3  C   UNL     1      23.933  48.247  49.225  1.00  0.00     0.043 A 
HETATM    4  C   UNL     1      24.994  49.106  48.884  1.00  0.00     0.046 A 
HETATM    5  N   UNL     1      24.721  50.346  48.297  1.00  0.00    -0.364 N 
HETATM    6  C   UNL     1      23.435  50.712  47.990  1.00  0.00     0.109 A 
HETATM    7  C   UNL     1      22.334  49.985  48.251  1.00  0.00     0.098 A 
HETATM    8  C   UNL     1      22.539  48.667  48.914  1.00  0.00     0.201 A 
HETATM    9  O   UNL     1      21.595  47.937  49.209  1.00  0.00    -0.286 OA
HETATM   10  C   UNL     1      26.304  48.726  49.194  1.00  0.00     0.032 A 
HETATM   11  C   UNL     1      26.556  47.501  49.819  1.00  0.00     0.027 A 
HETATM   12  H   UNL     1      25.484  50.909  47.938  1.00  0.00     0.165 HD
ENDROOT
BRANCH   1  13
HETATM   13  S   UNL     1      25.798  45.089  50.929  1.00  0.00     0.263 S 
HETATM   14  O   UNL     1      27.201  44.780  50.769  1.00  0.00    -0.200 OA
HETATM   15  O   UNL     1      24.772  44.178  50.465  1.00  0.00    -0.200 OA
BRANCH  13  16
HETATM   16  N   UNL     1      25.458  45.403  52.551  1.00  0.00    -0.281 N 
HETATM   17  H   UNL     1      24.658  46.022  52.671  1.00  0.00     0.179 HD
BRANCH  16  18
HETATM   18  C   UNL     1      26.531  45.518  53.476  1.00  0.00     0.042 A 
HETATM   19  C   UNL     1      26.922  46.774  53.933  1.00  0.00     0.030 A 
HETATM   20  C   UNL     1      27.987  46.889  54.831  1.00  0.00     0.010 A 
HETATM   21  C   UNL     1      28.663  45.748  55.292  1.00  0.00    -0.055 A 
HETATM   22  C   UNL     1      28.267  44.493  54.806  1.00  0.00     0.010 A 
HETATM   23  C   UNL     1      27.210  44.379  53.900  1.00  0.00     0.030 A 
BRANCH  21  24
HETATM   24  C   UNL     1      29.814  45.837  56.280  1.00  0.00     0.010 C 
HETATM   25  C   UNL     1      30.755  44.632  56.196  1.00  0.00     0.015 C 
HETATM   26  C   UNL     1      29.294  46.023  57.707  1.00  0.00     0.015 C 
ENDBRANCH  21  24
ENDBRANCH  16  18
ENDBRANCH  13  16
ENDBRANCH   1  13
BRANCH   7  27
HETATM   27  C   UNL     1      21.005  50.546  47.870  1.00  0.00     0.257 C 
HETATM   28  N   UNL     1      20.534  51.544  48.684  1.00  0.00    -0.357 N 
HETATM   29  H   UNL     1      21.127  51.857  49.455  1.00  0.00     0.162 HD
HETATM   30  O   UNL     1      20.391  50.133  46.890  1.00  0.00    -0.267 OA
BRANCH  28  31
HETATM   31  C   UNL     1      19.294  52.245  48.428  1.00  0.00     0.125 C 
BRANCH  31  32
HETATM   32  C   UNL     1      18.357  52.286  49.630  1.00  0.00     0.046 C 
BRANCH  32  33
HETATM   33  C   UNL     1      17.762  50.922  49.960  1.00  0.00     0.168 C 
BRANCH  33  34
HETATM   34  O   UNL     1      18.727  50.187  50.716  1.00  0.00    -0.396 OA
HETATM   35  C   UNL     1      18.599  48.786  50.512  1.00  0.00     0.201 C 
ENDBRANCH  33  34
ENDBRANCH  32  33
ENDBRANCH  31  32
ENDBRANCH  28  31
ENDBRANCH   7  27
TORSDOF 9
ENDMDL
MODEL 2
REMARK VINA RESULT:      -9.3      2.291      3.191
REMARK  9 active torsions:
REMARK  status: ('A' for Active; 'I' for Inactive)
REMARK    1  A    between atoms: C_2  and  C_3 
REMARK    2  A    between atoms: C_6  and  N_7 
REMARK    3  A    between atoms: N_7  and  S_8 
REMARK    4  A    between atoms: S_8  and  C_9 
REMARK    5  A    between atoms: C_15  and  C_16 
REMARK       I    between atoms: C_16  and  N_17 
REMARK    6  A    between atoms: N_17  and  C_18 
REMARK    7  A    between atoms: C_18  and  C_19 
REMARK    8  A    between atoms: C_19  and  C_20 
REMARK    9  A    between atoms: C_20  and  O_21 
ROOT
HETATM    1  C   UNL     1      25.398  43.498  50.679  1.00  0.00     0.081 A 
HETATM    2  C   UNL     1      25.361  44.872  50.427  1.00  0.00     0.043 A 
HETATM    3  C   UNL     1      24.207  45.427  49.867  1.00  0.00     0.043 A 
HETATM    4  C   UNL     1      23.085  44.629  49.579  1.00  0.00     0.046 A 
HETATM    5  N   UNL     1      21.960  45.205  48.982  1.00  0.00    -0.364 N 
HETATM    6  C   UNL     1      21.908  46.552  48.729  1.00  0.00     0.109 A 
HETATM    7  C   UNL     1      22.901  47.428  48.964  1.00  0.00     0.098 A 
HETATM    8  C   UNL     1      24.152  46.883  49.562  1.00  0.00     0.201 A 
HETATM    9  O   UNL     1      25.122  47.600  49.799  1.00  0.00    -0.286 OA
HETATM   10  C   UNL     1      23.141  43.256  49.843  1.00  0.00     0.032 A 
HETATM   11  C   UNL     1      24.291  42.689  50.402  1.00  0.00     0.027 A 
HETATM   12  H   UNL     1      21.109  44.662  48.889  1.00  0.00     0.165 HD
ENDROOT
BRANCH   1  13
HETATM   13  S   UNL     1      26.859  42.792  51.410  1.00  0.00     0.263 S 
HETATM   14  O   UNL     1      27.997  43.569  50.972  1.00  0.00    -0.200 OA
HETATM   15  O   UNL     1      26.796  41.363  51.187  1.00  0.00    -0.200 OA
BRANCH  13  16
HETATM   16  N   UNL     1      26.601  43.030  53.060  1.00  0.00    -0.281 N 
HETATM   17  H   UNL     1      25.685  43.429  53.260  1.00  0.00     0.179 HD
BRANCH  16  18
HETATM   18  C   UNL     1      27.690  43.421  53.885  1.00  0.00     0.042 A 
HETATM   19  C   UNL     1      28.766  42.557  54.069  1.00  0.00     0.030 A 
HETATM   20  C   UNL     1      29.831  42.936  54.892  1.00  0.00     0.010 A 
HETATM   21  C   UNL     1      29.836  44.187  55.529  1.00  0.00    -0.055 A 
HETATM   22  C   UNL     1      28.734  45.036  55.346  1.00  0.00     0.010 A 
HETATM   23  C   UNL     1      27.666  44.654  54.533  1.00  0.00     0.030 A 
BRANCH  21  24
HETATM   24  C   UNL     1      30.985  44.636  56.417  1.00  0.00     0.010 C 
HETATM   25  C   UNL     1      31.726  43.459  57.058  1.00  0.00     0.015 C 
HETATM   26  C   UNL     1      30.498  45.618  57.483  1.00  0.00     0.015 C 
ENDBRANCH  21  24
ENDBRANCH  16  18
ENDBRANCH  13  16
ENDBRANCH   1  13
BRANCH   7  27
HETATM   27  C   UNL     1      22.686  48.860  48.607  1.00  0.00     0.257 C 
HETATM   28  N   UNL     1      21.957  49.588  49.513  1.00  0.00    -0.357 N 
HETATM   29  H   UNL     1      21.651  49.123  50.370  1.00  0.00     0.162 HD
HETATM   30  O   UNL     1      23.141  49.339  47.571  1.00  0.00    -0.267 OA
BRANCH  28  31
HETATM   31  C   UNL     1      21.707  51.005  49.360  1.00  0.00     0.125 C 
BRANCH  31  32
HETATM   32  C   UNL     1      20.284  51.329  48.918  1.00  0.00     0.046 C 
BRANCH  32  33
HETATM   33  C   UNL     1      19.290  50.232  49.279  1.00  0.00     0.168 C 
BRANCH  33  34
HETATM   34  O   UNL     1      19.375  50.000  50.687  1.00  0.00    -0.396 OA
HETATM   35  C   UNL     1      18.656  48.837  51.073  1.00  0.00     0.201 C 
ENDBRANCH  33  34
ENDBRANCH  32  33
ENDBRANCH  31  32
ENDBRANCH  28  31
ENDBRANCH   7  27
TORSDOF 9
ENDMDL
MODEL 3
REMARK VINA RESULT:      -8.6      2.016      2.573
REMARK  9 active torsions:
REMARK  status: ('A' for Active; 'I' for Inactive)
REMARK    1  A    between atoms: C_2  and  C_3 
REMARK    2  A    between atoms: C_6  and  N_7 
REMARK    3  A    between atoms: N_7  and  S_8 
REMARK    4  A    between atoms: S_8  and  C_9 
REMARK    5  A    between atoms: C_15  and  C_16 
REMARK       I    between atoms: C_16  and  N_17 
REMARK    6  A    between atoms: N_17  and  C_18 
REMARK    7  A    between atoms: C_18  and  C_19 
REMARK    8  A    between atoms: C_19  and  C_20 
REMARK    9  A    between atoms: C_20  and  O_21 
ROOT
HETATM    1  C   UNL     1      25.215  44.619  49.371  1.00  0.00     0.081 A 
HETATM    2  C   UNL     1      24.909  45.961  49.612  1.00  0.00     0.043 A 
HETATM    3  C   UNL     1      23.673  46.460  49.191  1.00  0.00     0.043 A 
HETATM    4  C   UNL     1      22.735  45.627  48.554  1.00  0.00     0.046 A 
HETATM    5  N   UNL     1      21.523  46.164  48.107  1.00  0.00    -0.364 N 
HETATM    6  C   UNL     1      21.207  47.479  48.338  1.00  0.00     0.109 A 
HETATM    7  C   UNL     1      22.004  48.378  48.943  1.00  0.00     0.098 A 
HETATM    8  C   UNL     1      23.333  47.892  49.411  1.00  0.00     0.201 A 
HETATM    9  O   UNL     1      24.139  48.640  49.960  1.00  0.00    -0.286 OA
HETATM   10  C   UNL     1      23.060  44.287  48.325  1.00  0.00     0.032 A 
HETATM   11  C   UNL     1      24.294  43.776  48.740  1.00  0.00     0.027 A 
HETATM   12  H   UNL     1      20.798  45.545  47.763  1.00  0.00     0.165 HD
ENDROOT
BRANCH   1  13
HETATM   13  S   UNL     1      26.781  43.977  49.923  1.00  0.00     0.263 S 
HETATM   14  O   UNL     1      27.729  45.068  49.941  1.00  0.00    -0.200 OA
HETATM   15  O   UNL     1      27.037  42.772  49.161  1.00  0.00    -0.200 OA
BRANCH  13  16
HETATM   16  N   UNL     1      26.443  43.482  51.500  1.00  0.00    -0.281 N 
HETATM   17  H   UNL     1      25.446  43.349  51.664  1.00  0.00     0.179 HD
BRANCH  16  18
HETATM   18  C   UNL     1      27.231  43.984  52.570  1.00  0.00     0.042 A 
HETATM   19  C   UNL     1      26.806  45.107  53.277  1.00  0.00     0.030 A 
HETATM   20  C   UNL     1      27.588  45.610  54.321  1.00  0.00     0.010 A 
HETATM   21  C   UNL     1      28.796  44.990  54.677  1.00  0.00    -0.055 A 
HETATM   22  C   UNL     1      29.217  43.871  53.941  1.00  0.00     0.010 A 
HETATM   23  C   UNL     1      28.441  43.375  52.891  1.00  0.00     0.030 A 
BRANCH  21  24
HETATM   24  C   UNL     1      29.662  45.502  55.815  1.00  0.00     0.010 C 
HETATM   25  C   UNL     1      30.655  44.451  56.318  1.00  0.00     0.015 C 
HETATM   26  C   UNL     1      28.798  46.027  56.963  1.00  0.00     0.015 C 
ENDBRANCH  21  24
ENDBRANCH  16  18
ENDBRANCH  13  16
ENDBRANCH   1  13
BRANCH   7  27
HETATM   27  C   UNL     1      21.512  49.778  49.092  1.00  0.00     0.257 C 
HETATM   28  N   UNL     1      20.534  49.959  50.037  1.00  0.00    -0.357 N 
HETATM   29  H   UNL     1      20.242  49.150  50.589  1.00  0.00     0.162 HD
HETATM   30  O   UNL     1      21.966  50.694  48.412  1.00  0.00    -0.267 OA
BRANCH  28  31
HETATM   31  C   UNL     1      19.987  51.259  50.361  1.00  0.00     0.125 C 
BRANCH  31  32
HETATM   32  C   UNL     1      18.709  51.590  49.599  1.00  0.00     0.046 C 
BRANCH  32  33
HETATM   33  C   UNL     1      17.858  50.358  49.313  1.00  0.00     0.168 C 
BRANCH  33  34
HETATM   34  O   UNL     1      18.178  49.891  48.000  1.00  0.00    -0.396 OA
HETATM   35  C   UNL     1      18.412  50.966  47.102  1.00  0.00     0.201 C 
ENDBRANCH  33  34
ENDBRANCH  32  33
ENDBRANCH  31  32
ENDBRANCH  28  31
ENDBRANCH   7  27
TORSDOF 9
ENDMDL
MODEL 4
REMARK VINA RESULT:      -8.3      2.478     10.327
REMARK  9 active torsions:
REMARK  status: ('A' for Active; 'I' for Inactive)
REMARK    1  A    between atoms: C_2  and  C_3 
REMARK    2  A    between atoms: C_6  and  N_7 
REMARK    3  A    between atoms: N_7  and  S_8 
REMARK    4  A    between atoms: S_8  and  C_9 
REMARK    5  A    between atoms: C_15  and  C_16 
REMARK       I    between atoms: C_16  and  N_17 
REMARK    6  A    between atoms: N_17  and  C_18 
REMARK    7  A    between atoms: C_18  and  C_19 
REMARK    8  A    between atoms: C_19  and  C_20 
REMARK    9  A    between atoms: C_20  and  O_21 
ROOT
HETATM    1  C   UNL     1      23.249  47.925  49.052  1.00  0.00     0.081 A 
HETATM    2  C   UNL     1      24.233  47.483  49.940  1.00  0.00     0.043 A 
HETATM    3  C   UNL     1      24.360  46.113  50.183  1.00  0.00     0.043 A 
HETATM    4  C   UNL     1      23.531  45.182  49.531  1.00  0.00     0.046 A 
HETATM    5  N   UNL     1      23.655  43.819  49.824  1.00  0.00    -0.364 N 
HETATM    6  C   UNL     1      24.617  43.370  50.691  1.00  0.00     0.109 A 
HETATM    7  C   UNL     1      25.478  44.147  51.371  1.00  0.00     0.098 A 
HETATM    8  C   UNL     1      25.382  45.617  51.145  1.00  0.00     0.201 A 
HETATM    9  O   UNL     1      26.114  46.411  51.731  1.00  0.00    -0.286 OA
HETATM   10  C   UNL     1      22.555  45.645  48.643  1.00  0.00     0.032 A 
HETATM   11  C   UNL     1      22.417  47.014  48.394  1.00  0.00     0.027 A 
HETATM   12  H   UNL     1      23.148  43.140  49.267  1.00  0.00     0.165 HD
ENDROOT
BRANCH   1  13
HETATM   13  S   UNL     1      23.098  49.669  48.728  1.00  0.00     0.263 S 
HETATM   14  O   UNL     1      22.550  49.830  47.400  1.00  0.00    -0.200 OA
HETATM   15  O   UNL     1      24.358  50.279  49.098  1.00  0.00    -0.200 OA
BRANCH  13  16
HETATM   16  N   UNL     1      21.971  50.164  49.880  1.00  0.00    -0.281 N 
HETATM   17  H   UNL     1      22.147  49.763  50.800  1.00  0.00     0.179 HD
BRANCH  16  18
HETATM   18  C   UNL     1      20.619  50.361  49.490  1.00  0.00     0.042 A 
HETATM   19  C   UNL     1      19.727  49.291  49.517  1.00  0.00     0.030 A 
HETATM   20  C   UNL     1      18.400  49.480  49.119  1.00  0.00     0.010 A 
HETATM   21  C   UNL     1      17.948  50.743  48.703  1.00  0.00    -0.055 A 
HETATM   22  C   UNL     1      18.866  51.804  48.665  1.00  0.00     0.010 A 
HETATM   23  C   UNL     1      20.194  51.612  49.052  1.00  0.00     0.030 A 
BRANCH  21  24
HETATM   24  C   UNL     1      16.509  50.985  48.280  1.00  0.00     0.010 C 
HETATM   25  C   UNL     1      15.762  51.915  49.241  1.00  0.00     0.015 C 
HETATM   26  C   UNL     1      15.761  49.663  48.109  1.00  0.00     0.015 C 
ENDBRANCH  21  24
ENDBRANCH  16  18
ENDBRANCH  13  16
ENDBRANCH   1  13
BRANCH   7  27
HETATM   27  C   UNL     1      26.449  43.493  52.296  1.00  0.00     0.257 C 
HETATM   28  N   UNL     1      26.623  44.120  53.503  1.00  0.00    -0.357 N 
HETATM   29  H   UNL     1      26.062  44.951  53.700  1.00  0.00     0.162 HD
HETATM   30  O   UNL     1      27.039  42.462  51.984  1.00  0.00    -0.267 OA
BRANCH  28  31
HETATM   31  C   UNL     1      27.476  43.591  54.546  1.00  0.00     0.125 C 
BRANCH  31  32
HETATM   32  C   UNL     1      28.893  44.153  54.518  1.00  0.00     0.046 C 
BRANCH  32  33
HETATM   33  C   UNL     1      29.040  45.421  55.351  1.00  0.00     0.168 C 
BRANCH  33  34
HETATM   34  O   UNL     1      30.216  45.292  56.154  1.00  0.00    -0.396 OA
HETATM   35  C   UNL     1      30.913  44.086  55.877  1.00  0.00     0.201 C 
ENDBRANCH  33  34
ENDBRANCH  32  33
ENDBRANCH  31  32
ENDBRANCH  28  31
ENDBRANCH   7  27
TORSDOF 9
ENDMDL
MODEL 5
REMARK VINA RESULT:      -8.0      2.906     10.683
REMARK  9 active torsions:
REMARK  status: ('A' for Active; 'I' for Inactive)
REMARK    1  A    between atoms: C_2  and  C_3 
REMARK    2  A    between atoms: C_6  and  N_7 
REMARK    3  A    between atoms: N_7  and  S_8 
REMARK    4  A    between atoms: S_8  and  C_9 
REMARK    5  A    between atoms: C_15  and  C_16 
REMARK       I    between atoms: C_16  and  N_17 
REMARK    6  A    between atoms: N_17  and  C_18 
REMARK    7  A    between atoms: C_18  and  C_19 
REMARK    8  A    between atoms: C_19  and  C_20 
REMARK    9  A    between atoms: C_20  and  O_21 
ROOT
HETATM    1  C   UNL     1      21.340  49.458  48.426  1.00  0.00     0.081 A 
HETATM    2  C   UNL     1      22.038  48.350  48.912  1.00  0.00     0.043 A 
HETATM    3  C   UNL     1      23.430  48.417  49.013  1.00  0.00     0.043 A 
HETATM    4  C   UNL     1      24.127  49.586  48.656  1.00  0.00     0.046 A 
HETATM    5  N   UNL     1      25.524  49.609  48.730  1.00  0.00    -0.364 N 
HETATM    6  C   UNL     1      26.223  48.530  49.207  1.00  0.00     0.109 A 
HETATM    7  C   UNL     1      25.684  47.360  49.591  1.00  0.00     0.098 A 
HETATM    8  C   UNL     1      24.201  47.240  49.503  1.00  0.00     0.201 A 
HETATM    9  O   UNL     1      23.615  46.206  49.815  1.00  0.00    -0.286 OA
HETATM   10  C   UNL     1      23.409  50.685  48.175  1.00  0.00     0.032 A 
HETATM   11  C   UNL     1      22.016  50.629  48.068  1.00  0.00     0.027 A 
HETATM   12  H   UNL     1      26.018  50.485  48.593  1.00  0.00     0.165 HD
ENDROOT
BRANCH   1  13
HETATM   13  S   UNL     1      19.565  49.381  48.314  1.00  0.00     0.263 S 
HETATM   14  O   UNL     1      19.047  49.104  49.635  1.00  0.00    -0.200 OA
HETATM   15  O   UNL     1      19.249  48.526  47.189  1.00  0.00    -0.200 OA
BRANCH  13  16
HETATM   16  N   UNL     1      19.155  50.950  47.852  1.00  0.00    -0.281 N 
HETATM   17  H   UNL     1      19.969  51.552  47.738  1.00  0.00     0.179 HD
BRANCH  16  18
HETATM   18  C   UNL     1      17.963  51.535  48.360  1.00  0.00     0.042 A 
HETATM   19  C   UNL     1      16.743  51.272  47.743  1.00  0.00     0.030 A 
HETATM   20  C   UNL     1      15.573  51.859  48.233  1.00  0.00     0.010 A 
HETATM   21  C   UNL     1      15.609  52.705  49.354  1.00  0.00    -0.055 A 
HETATM   22  C   UNL     1      16.850  52.973  49.951  1.00  0.00     0.010 A 
HETATM   23  C   UNL     1      18.020  52.395  49.454  1.00  0.00     0.030 A 
BRANCH  21  24
HETATM   24  C   UNL     1      14.354  53.346  49.921  1.00  0.00     0.010 C 
HETATM   25  C   UNL     1      13.693  54.317  48.938  1.00  0.00     0.015 C 
HETATM   26  C   UNL     1      14.649  54.037  51.253  1.00  0.00     0.015 C 
ENDBRANCH  21  24
ENDBRANCH  16  18
ENDBRANCH  13  16
ENDBRANCH   1  13
BRANCH   7  27
HETATM   27  C   UNL     1      26.594  46.278  50.065  1.00  0.00     0.257 C 
HETATM   28  N   UNL     1      26.302  45.764  51.302  1.00  0.00    -0.357 N 
HETATM   29  H   UNL     1      25.477  46.120  51.789  1.00  0.00     0.162 HD
HETATM   30  O   UNL     1      27.534  45.883  49.379  1.00  0.00    -0.267 OA
BRANCH  28  31
HETATM   31  C   UNL     1      27.039  44.666  51.890  1.00  0.00     0.125 C 
BRANCH  31  32
HETATM   32  C   UNL     1      26.333  43.321  51.766  1.00  0.00     0.046 C 
BRANCH  32  33
HETATM   33  C   UNL     1      27.142  42.301  50.973  1.00  0.00     0.168 C 
BRANCH  33  34
HETATM   34  O   UNL     1      27.298  41.132  51.780  1.00  0.00    -0.396 OA
HETATM   35  C   UNL     1      28.248  41.331  52.817  1.00  0.00     0.201 C 
ENDBRANCH  33  34
ENDBRANCH  32  33
ENDBRANCH  31  32
ENDBRANCH  28  31
ENDBRANCH   7  27
TORSDOF 9
ENDMDL
MODEL 6
REMARK VINA RESULT:      -8.0      1.840      2.269
REMARK  9 active torsions:
REMARK  status: ('A' for Active; 'I' for Inactive)
REMARK    1  A    between atoms: C_2  and  C_3 
REMARK    2  A    between atoms: C_6  and  N_7 
REMARK    3  A    between atoms: N_7  and  S_8 
REMARK    4  A    between atoms: S_8  and  C_9 
REMARK    5  A    between atoms: C_15  and  C_16 
REMARK       I    between atoms: C_16  and  N_17 
REMARK    6  A    between atoms: N_17  and  C_18 
REMARK    7  A    between atoms: C_18  and  C_19 
REMARK    8  A    between atoms: C_19  and  C_20 
REMARK    9  A    between atoms: C_20  and  O_21 
ROOT
HETATM    1  C   UNL     1      25.528  46.744  50.029  1.00  0.00     0.081 A 
HETATM    2  C   UNL     1      24.197  47.057  49.737  1.00  0.00     0.043 A 
HETATM    3  C   UNL     1      23.904  48.296  49.163  1.00  0.00     0.043 A 
HETATM    4  C   UNL     1      24.925  49.214  48.857  1.00  0.00     0.046 A 
HETATM    5  N   UNL     1      24.597  50.463  48.320  1.00  0.00    -0.364 N 
HETATM    6  C   UNL     1      23.297  50.784  48.026  1.00  0.00     0.109 A 
HETATM    7  C   UNL     1      22.229  50.000  48.256  1.00  0.00     0.098 A 
HETATM    8  C   UNL     1      22.492  48.666  48.867  1.00  0.00     0.201 A 
HETATM    9  O   UNL     1      21.581  47.884  49.131  1.00  0.00    -0.286 OA
HETATM   10  C   UNL     1      26.250  48.880  49.154  1.00  0.00     0.032 A 
HETATM   11  C   UNL     1      26.556  47.643  49.730  1.00  0.00     0.027 A 
HETATM   12  H   UNL     1      25.334  51.073  47.984  1.00  0.00     0.165 HD
ENDROOT
BRANCH   1  13
HETATM   13  S   UNL     1      25.906  45.158  50.743  1.00  0.00     0.263 S 
HETATM   14  O   UNL     1      27.328  44.935  50.607  1.00  0.00    -0.200 OA
HETATM   15  O   UNL     1      24.944  44.215  50.212  1.00  0.00    -0.200 OA
BRANCH  13  16
HETATM   16  N   UNL     1      25.510  45.379  52.367  1.00  0.00    -0.281 N 
HETATM   17  H   UNL     1      24.679  45.955  52.494  1.00  0.00     0.179 HD
BRANCH  16  18
HETATM   18  C   UNL     1      26.552  45.498  53.327  1.00  0.00     0.042 A 
HETATM   19  C   UNL     1      26.892  46.751  53.830  1.00  0.00     0.030 A 
HETATM   20  C   UNL     1      27.927  46.870  54.763  1.00  0.00     0.010 A 
HETATM   21  C   UNL     1      28.623  45.736  55.211  1.00  0.00    -0.055 A 
HETATM   22  C   UNL     1      28.279  44.485  54.679  1.00  0.00     0.010 A 
HETATM   23  C   UNL     1      27.252  44.367  53.739  1.00  0.00     0.030 A 
BRANCH  21  24
HETATM   24  C   UNL     1      29.742  45.829  56.235  1.00  0.00     0.010 C 
HETATM   25  C   UNL     1      30.703  44.639  56.166  1.00  0.00     0.015 C 
HETATM   26  C   UNL     1      29.176  45.991  57.647  1.00  0.00     0.015 C 
ENDBRANCH  21  24
ENDBRANCH  16  18
ENDBRANCH  13  16
ENDBRANCH   1  13
BRANCH   7  27
HETATM   27  C   UNL     1      20.876  50.515  47.896  1.00  0.00     0.257 C 
HETATM   28  N   UNL     1      20.070  49.630  47.227  1.00  0.00    -0.357 N 
HETATM   29  H   UNL     1      20.425  48.688  47.057  1.00  0.00     0.162 HD
HETATM   30  O   UNL     1      20.524  51.654  48.191  1.00  0.00    -0.267 OA
BRANCH  28  31
HETATM   31  C   UNL     1      18.705  49.938  46.857  1.00  0.00     0.125 C 
BRANCH  31  32
HETATM   32  C   UNL     1      18.540  50.308  45.387  1.00  0.00     0.046 C 
BRANCH  32  33
HETATM   33  C   UNL     1      17.145  50.002  44.855  1.00  0.00     0.168 C 
BRANCH  33  34
HETATM   34  O   UNL     1      17.281  49.174  43.698  1.00  0.00    -0.396 OA
HETATM   35  C   UNL     1      17.362  47.798  44.042  1.00  0.00     0.201 C 
ENDBRANCH  33  34
ENDBRANCH  32  33
ENDBRANCH  31  32
ENDBRANCH  28  31
ENDBRANCH   7  27
TORSDOF 9
ENDMDL
MODEL 7
REMARK VINA RESULT:      -7.8     20.377     23.318
REMARK  9 active torsions:
REMARK  status: ('A' for Active; 'I' for Inactive)
REMARK    1  A    between atoms: C_2  and  C_3 
REMARK    2  A    between atoms: C_6  and  N_7 
REMARK    3  A    between atoms: N_7  and  S_8 
REMARK    4  A    between atoms: S_8  and  C_9 
REMARK    5  A    between atoms: C_15  and  C_16 
REMARK       I    between atoms: C_16  and  N_17 
REMARK    6  A    between atoms: N_17  and  C_18 
REMARK    7  A    between atoms: C_18  and  C_19 
REMARK    8  A    between atoms: C_19  and  C_20 
REMARK    9  A    between atoms: C_20  and  O_21 
ROOT
HETATM    1  C   UNL     1      40.044  44.300  64.073  1.00  0.00     0.081 A 
HETATM    2  C   UNL     1      40.581  43.158  64.674  1.00  0.00     0.043 A 
HETATM    3  C   UNL     1      40.289  41.905  64.128  1.00  0.00     0.043 A 
HETATM    4  C   UNL     1      39.487  41.784  62.978  1.00  0.00     0.046 A 
HETATM    5  N   UNL     1      39.179  40.515  62.479  1.00  0.00    -0.364 N 
HETATM    6  C   UNL     1      39.700  39.385  63.055  1.00  0.00     0.109 A 
HETATM    7  C   UNL     1      40.485  39.358  64.146  1.00  0.00     0.098 A 
HETATM    8  C   UNL     1      40.826  40.671  64.764  1.00  0.00     0.201 A 
HETATM    9  O   UNL     1      41.524  40.750  65.772  1.00  0.00    -0.286 OA
HETATM   10  C   UNL     1      38.962  42.940  62.391  1.00  0.00     0.032 A 
HETATM   11  C   UNL     1      39.246  44.199  62.929  1.00  0.00     0.027 A 
HETATM   12  H   UNL     1      38.708  40.429  61.584  1.00  0.00     0.165 HD
ENDROOT
BRANCH   1  13
HETATM   13  S   UNL     1      40.430  45.898  64.756  1.00  0.00     0.263 S 
HETATM   14  O   UNL     1      41.548  46.440  64.017  1.00  0.00    -0.200 OA
HETATM   15  O   UNL     1      40.486  45.741  66.194  1.00  0.00    -0.200 OA
BRANCH  13  16
HETATM   16  N   UNL     1      39.036  46.788  64.426  1.00  0.00    -0.281 N 
HETATM   17  H   UNL     1      38.778  46.763  63.440  1.00  0.00     0.179 HD
BRANCH  16  18
HETATM   18  C   UNL     1      38.793  47.990  65.145  1.00  0.00     0.042 A 
HETATM   19  C   UNL     1      37.736  48.055  66.049  1.00  0.00     0.030 A 
HETATM   20  C   UNL     1      37.487  49.242  66.745  1.00  0.00     0.010 A 
HETATM   21  C   UNL     1      38.300  50.371  66.554  1.00  0.00    -0.055 A 
HETATM   22  C   UNL     1      39.348  50.291  65.625  1.00  0.00     0.010 A 
HETATM   23  C   UNL     1      39.590  49.109  64.922  1.00  0.00     0.030 A 
BRANCH  21  24
HETATM   24  C   UNL     1      38.066  51.670  67.306  1.00  0.00     0.010 C 
HETATM   25  C   UNL     1      37.022  51.526  68.418  1.00  0.00     0.015 C 
HETATM   26  C   UNL     1      37.686  52.796  66.344  1.00  0.00     0.015 C 
ENDBRANCH  21  24
ENDBRANCH  16  18
ENDBRANCH  13  16
ENDBRANCH   1  13
BRANCH   7  27
HETATM   27  C   UNL     1      40.947  38.035  64.658  1.00  0.00     0.257 C 
HETATM   28  N   UNL     1      40.280  37.567  65.761  1.00  0.00    -0.357 N 
HETATM   29  H   UNL     1      39.505  38.122  66.127  1.00  0.00     0.162 HD
HETATM   30  O   UNL     1      41.860  37.419  64.113  1.00  0.00    -0.267 OA
BRANCH  28  31
HETATM   31  C   UNL     1      40.552  36.274  66.352  1.00  0.00     0.125 C 
BRANCH  31  32
HETATM   32  C   UNL     1      39.302  35.427  66.568  1.00  0.00     0.046 C 
BRANCH  32  33
HETATM   33  C   UNL     1      39.624  33.973  66.889  1.00  0.00     0.168 C 
BRANCH  33  34
HETATM   34  O   UNL     1      40.221  33.383  65.732  1.00  0.00    -0.396 OA
HETATM   35  C   UNL     1      41.201  32.415  66.081  1.00  0.00     0.201 C 
ENDBRANCH  33  34
ENDBRANCH  32  33
ENDBRANCH  31  32
ENDBRANCH  28  31
ENDBRANCH   7  27
TORSDOF 9
ENDMDL
MODEL 8
REMARK VINA RESULT:      -7.8      5.172      8.549
REMARK  9 active torsions:
REMARK  status: ('A' for Active; 'I' for Inactive)
REMARK    1  A    between atoms: C_2  and  C_3 
REMARK    2  A    between atoms: C_6  and  N_7 
REMARK    3  A    between atoms: N_7  and  S_8 
REMARK    4  A    between atoms: S_8  and  C_9 
REMARK    5  A    between atoms: C_15  and  C_16 
REMARK       I    between atoms: C_16  and  N_17 
REMARK    6  A    between atoms: N_17  and  C_18 
REMARK    7  A    between atoms: C_18  and  C_19 
REMARK    8  A    between atoms: C_19  and  C_20 
REMARK    9  A    between atoms: C_20  and  O_21 
ROOT
HETATM    1  C   UNL     1      25.058  44.204  51.315  1.00  0.00     0.081 A 
HETATM    2  C   UNL     1      25.382  42.966  50.755  1.00  0.00     0.043 A 
HETATM    3  C   UNL     1      24.759  42.576  49.566  1.00  0.00     0.043 A 
HETATM    4  C   UNL     1      23.835  43.419  48.923  1.00  0.00     0.046 A 
HETATM    5  N   UNL     1      23.197  42.985  47.756  1.00  0.00    -0.364 N 
HETATM    6  C   UNL     1      23.507  41.774  47.192  1.00  0.00     0.109 A 
HETATM    7  C   UNL     1      24.376  40.880  47.695  1.00  0.00     0.098 A 
HETATM    8  C   UNL     1      25.067  41.251  48.962  1.00  0.00     0.201 A 
HETATM    9  O   UNL     1      25.866  40.494  49.509  1.00  0.00    -0.286 OA
HETATM   10  C   UNL     1      23.527  44.656  49.498  1.00  0.00     0.032 A 
HETATM   11  C   UNL     1      24.143  45.056  50.688  1.00  0.00     0.027 A 
HETATM   12  H   UNL     1      22.629  43.636  47.225  1.00  0.00     0.165 HD
ENDROOT
BRANCH   1  13
HETATM   13  S   UNL     1      25.865  44.710  52.819  1.00  0.00     0.263 S 
HETATM   14  O   UNL     1      25.220  44.032  53.922  1.00  0.00    -0.200 OA
HETATM   15  O   UNL     1      25.963  46.154  52.781  1.00  0.00    -0.200 OA
BRANCH  13  16
HETATM   16  N   UNL     1      27.431  44.119  52.616  1.00  0.00    -0.281 N 
HETATM   17  H   UNL     1      27.462  43.278  52.043  1.00  0.00     0.179 HD
BRANCH  16  18
HETATM   18  C   UNL     1      28.359  44.227  53.688  1.00  0.00     0.042 A 
HETATM   19  C   UNL     1      28.267  45.291  54.581  1.00  0.00     0.030 A 
HETATM   20  C   UNL     1      29.188  45.405  55.627  1.00  0.00     0.010 A 
HETATM   21  C   UNL     1      30.202  44.449  55.797  1.00  0.00    -0.055 A 
HETATM   22  C   UNL     1      30.290  43.394  54.876  1.00  0.00     0.010 A 
HETATM   23  C   UNL     1      29.376  43.286  53.825  1.00  0.00     0.030 A 
BRANCH  21  24
HETATM   24  C   UNL     1      31.209  44.535  56.932  1.00  0.00     0.010 C 
HETATM   25  C   UNL     1      31.856  43.183  57.248  1.00  0.00     0.015 C 
HETATM   26  C   UNL     1      30.570  45.139  58.183  1.00  0.00     0.015 C 
ENDBRANCH  21  24
ENDBRANCH  16  18
ENDBRANCH  13  16
ENDBRANCH   1  13
BRANCH   7  27
HETATM   27  C   UNL     1      24.577  39.595  46.964  1.00  0.00     0.257 C 
HETATM   28  N   UNL     1      25.262  38.628  47.655  1.00  0.00    -0.357 N 
HETATM   29  H   UNL     1      25.548  38.832  48.615  1.00  0.00     0.162 HD
HETATM   30  O   UNL     1      24.148  39.430  45.825  1.00  0.00    -0.267 OA
BRANCH  28  31
HETATM   31  C   UNL     1      25.493  37.301  47.126  1.00  0.00     0.125 C 
BRANCH  31  32
HETATM   32  C   UNL     1      26.574  36.527  47.871  1.00  0.00     0.046 C 
BRANCH  32  33
HETATM   33  C   UNL     1      27.798  37.379  48.187  1.00  0.00     0.168 C 
BRANCH  33  34
HETATM   34  O   UNL     1      27.712  37.792  49.552  1.00  0.00    -0.396 OA
HETATM   35  C   UNL     1      28.927  38.374  50.003  1.00  0.00     0.201 C 
ENDBRANCH  33  34
ENDBRANCH  32  33
ENDBRANCH  31  32
ENDBRANCH  28  31
ENDBRANCH   7  27
TORSDOF 9
ENDMDL
MODEL 9
REMARK VINA RESULT:      -7.8     20.310     23.515
REMARK  9 active torsions:
REMARK  status: ('A' for Active; 'I' for Inactive)
REMARK    1  A    between atoms: C_2  and  C_3 
REMARK    2  A    between atoms: C_6  and  N_7 
REMARK    3  A    between atoms: N_7  and  S_8 
REMARK    4  A    between atoms: S_8  and  C_9 
REMARK    5  A    between atoms: C_15  and  C_16 
REMARK       I    between atoms: C_16  and  N_17 
REMARK    6  A    between atoms: N_17  and  C_18 
REMARK    7  A    between atoms: C_18  and  C_19 
REMARK    8  A    between atoms: C_19  and  C_20 
REMARK    9  A    between atoms: C_20  and  O_21 
ROOT
HETATM    1  C   UNL     1      39.982  44.409  64.078  1.00  0.00     0.081 A 
HETATM    2  C   UNL     1      40.571  43.273  64.640  1.00  0.00     0.043 A 
HETATM    3  C   UNL     1      40.278  42.020  64.097  1.00  0.00     0.043 A 
HETATM    4  C   UNL     1      39.422  41.893  62.988  1.00  0.00     0.046 A 
HETATM    5  N   UNL     1      39.115  40.621  62.491  1.00  0.00    -0.364 N 
HETATM    6  C   UNL     1      39.687  39.497  63.031  1.00  0.00     0.109 A 
HETATM    7  C   UNL     1      40.526  39.477  64.081  1.00  0.00     0.098 A 
HETATM    8  C   UNL     1      40.870  40.791  64.694  1.00  0.00     0.201 A 
HETATM    9  O   UNL     1      41.615  40.876  65.668  1.00  0.00    -0.286 OA
HETATM   10  C   UNL     1      38.846  43.042  62.438  1.00  0.00     0.032 A 
HETATM   11  C   UNL     1      39.131  44.302  62.974  1.00  0.00     0.027 A 
HETATM   12  H   UNL     1      38.603  40.534  61.621  1.00  0.00     0.165 HD
ENDROOT
BRANCH   1  13
HETATM   13  S   UNL     1      40.369  46.009  64.756  1.00  0.00     0.263 S 
HETATM   14  O   UNL     1      41.453  46.572  63.982  1.00  0.00    -0.200 OA
HETATM   15  O   UNL     1      40.478  45.845  66.191  1.00  0.00    -0.200 OA
BRANCH  13  16
HETATM   16  N   UNL     1      38.952  46.881  64.481  1.00  0.00    -0.281 N 
HETATM   17  H   UNL     1      38.650  46.842  63.509  1.00  0.00     0.179 HD
BRANCH  16  18
HETATM   18  C   UNL     1      38.729  48.088  65.197  1.00  0.00     0.042 A 
HETATM   19  C   UNL     1      39.499  49.214  64.916  1.00  0.00     0.030 A 
HETATM   20  C   UNL     1      39.289  50.398  65.631  1.00  0.00     0.010 A 
HETATM   21  C   UNL     1      38.300  50.471  66.624  1.00  0.00    -0.055 A 
HETATM   22  C   UNL     1      37.547  49.321  66.906  1.00  0.00     0.010 A 
HETATM   23  C   UNL     1      37.764  48.135  66.200  1.00  0.00     0.030 A 
BRANCH  21  24
HETATM   24  C   UNL     1      38.036  51.746  67.408  1.00  0.00     0.010 C 
HETATM   25  C   UNL     1      36.958  51.564  68.480  1.00  0.00     0.015 C 
HETATM   26  C   UNL     1      37.682  52.899  66.469  1.00  0.00     0.015 C 
ENDBRANCH  21  24
ENDBRANCH  16  18
ENDBRANCH  13  16
ENDBRANCH   1  13
BRANCH   7  27
HETATM   27  C   UNL     1      41.039  38.159  64.556  1.00  0.00     0.257 C 
HETATM   28  N   UNL     1      42.323  37.858  64.178  1.00  0.00    -0.357 N 
HETATM   29  H   UNL     1      42.843  38.555  63.642  1.00  0.00     0.162 HD
HETATM   30  O   UNL     1      40.348  37.411  65.243  1.00  0.00    -0.267 OA
BRANCH  28  31
HETATM   31  C   UNL     1      43.003  36.654  64.602  1.00  0.00     0.125 C 
BRANCH  31  32
HETATM   32  C   UNL     1      44.522  36.780  64.604  1.00  0.00     0.046 C 
BRANCH  32  33
HETATM   33  C   UNL     1      45.003  38.109  65.175  1.00  0.00     0.168 C 
BRANCH  33  34
HETATM   34  O   UNL     1      45.167  39.025  64.091  1.00  0.00    -0.396 OA
HETATM   35  C   UNL     1      46.503  39.037  63.609  1.00  0.00     0.201 C 
ENDBRANCH  33  34
ENDBRANCH  32  33
ENDBRANCH  31  32
ENDBRANCH  28  31
ENDBRANCH   7  27
TORSDOF 9
ENDMDL
MODEL 10
REMARK VINA RESULT:      -7.7      3.129     10.573
REMARK  9 active torsions:
REMARK  status: ('A' for Active; 'I' for Inactive)
REMARK    1  A    between atoms: C_2  and  C_3 
REMARK    2  A    between atoms: C_6  and  N_7 
REMARK    3  A    between atoms: N_7  and  S_8 
REMARK    4  A    between atoms: S_8  and  C_9 
REMARK    5  A    between atoms: C_15  and  C_16 
REMARK       I    between atoms: C_16  and  N_17 
REMARK    6  A    between atoms: N_17  and  C_18 
REMARK    7  A    between atoms: C_18  and  C_19 
REMARK    8  A    between atoms: C_19  and  C_20 
REMARK    9  A    between atoms: C_20  and  O_21 
ROOT
HETATM    1  C   UNL     1      23.248  47.867  49.163  1.00  0.00     0.081 A 
HETATM    2  C   UNL     1      24.254  47.469  50.048  1.00  0.00     0.043 A 
HETATM    3  C   UNL     1      24.392  46.111  50.348  1.00  0.00     0.043 A 
HETATM    4  C   UNL     1      23.553  45.149  49.757  1.00  0.00     0.046 A 
HETATM    5  N   UNL     1      23.689  43.802  50.108  1.00  0.00    -0.364 N 
HETATM    6  C   UNL     1      24.672  43.394  50.973  1.00  0.00     0.109 A 
HETATM    7  C   UNL     1      25.545  44.204  51.598  1.00  0.00     0.098 A 
HETATM    8  C   UNL     1      25.437  45.662  51.309  1.00  0.00     0.201 A 
HETATM    9  O   UNL     1      26.178  46.484  51.843  1.00  0.00    -0.286 OA
HETATM   10  C   UNL     1      22.555  45.569  48.871  1.00  0.00     0.032 A 
HETATM   11  C   UNL     1      22.406  46.925  48.565  1.00  0.00     0.027 A 
HETATM   12  H   UNL     1      23.173  43.096  49.593  1.00  0.00     0.165 HD
ENDROOT
BRANCH   1  13
HETATM   13  S   UNL     1      23.083  49.595  48.765  1.00  0.00     0.263 S 
HETATM   14  O   UNL     1      22.534  49.694  47.430  1.00  0.00    -0.200 OA
HETATM   15  O   UNL     1      24.337  50.230  49.110  1.00  0.00    -0.200 OA
BRANCH  13  16
HETATM   16  N   UNL     1      21.950  50.129  49.894  1.00  0.00    -0.281 N 
HETATM   17  H   UNL     1      22.100  49.730  50.819  1.00  0.00     0.179 HD
BRANCH  16  18
HETATM   18  C   UNL     1      20.609  50.357  49.479  1.00  0.00     0.042 A 
HETATM   19  C   UNL     1      20.259  51.576  48.906  1.00  0.00     0.030 A 
HETATM   20  C   UNL     1      18.937  51.807  48.511  1.00  0.00     0.010 A 
HETATM   21  C   UNL     1      17.956  50.816  48.675  1.00  0.00    -0.055 A 
HETATM   22  C   UNL     1      18.325  49.601  49.272  1.00  0.00     0.010 A 
HETATM   23  C   UNL     1      19.642  49.375  49.676  1.00  0.00     0.030 A 
BRANCH  21  24
HETATM   24  C   UNL     1      16.515  51.029  48.243  1.00  0.00     0.010 C 
HETATM   25  C   UNL     1      15.744  51.945  49.198  1.00  0.00     0.015 C 
HETATM   26  C   UNL     1      15.795  49.691  48.071  1.00  0.00     0.015 C 
ENDBRANCH  21  24
ENDBRANCH  16  18
ENDBRANCH  13  16
ENDBRANCH   1  13
BRANCH   7  27
HETATM   27  C   UNL     1      26.539  43.595  52.529  1.00  0.00     0.257 C 
HETATM   28  N   UNL     1      27.082  42.407  52.112  1.00  0.00    -0.357 N 
HETATM   29  H   UNL     1      26.806  42.045  51.197  1.00  0.00     0.162 HD
HETATM   30  O   UNL     1      26.842  44.137  53.589  1.00  0.00    -0.267 OA
BRANCH  28  31
HETATM   31  C   UNL     1      28.108  41.710  52.858  1.00  0.00     0.125 C 
BRANCH  31  32
HETATM   32  C   UNL     1      28.776  40.586  52.072  1.00  0.00     0.046 C 
BRANCH  32  33
HETATM   33  C   UNL     1      28.421  40.612  50.590  1.00  0.00     0.168 C 
BRANCH  33  34
HETATM   34  O   UNL     1      28.312  39.261  50.136  1.00  0.00    -0.396 OA
HETATM   35  C   UNL     1      29.348  38.443  50.660  1.00  0.00     0.201 C 
ENDBRANCH  33  34
ENDBRANCH  32  33
ENDBRANCH  31  32
ENDBRANCH  28  31
ENDBRANCH   7  27
TORSDOF 9
ENDMDL
