MODEL 1
REMARK VINA RESULT:      -8.2      0.000      0.000
REMARK  5 active torsions:
REMARK  status: ('A' for Active; 'I' for Inactive)
REMARK    1  A    between atoms: C_8  and  C_9 
REMARK    2  A    between atoms: C_9  and  N_10 
REMARK    3  A    between atoms: N_10  and  C_13 
REMARK    4  A    between atoms: C_13  and  C_14 
REMARK    5  A    between atoms: C_13  and  C_19 
ROOT
HETATM    1  N   UNL     1      26.492  46.082  53.113  1.00  0.00    -0.056 N 
HETATM    2  H   UNL     1      26.500  47.009  53.563  1.00  0.00     0.278 HD
HETATM    3  H   UNL     1      27.362  46.061  52.568  1.00  0.00     0.278 HD
ENDROOT
BRANCH   1   4
HETATM    4  C   UNL     1      26.532  45.042  54.168  1.00  0.00     0.275 C 
BRANCH   4   5
HETATM    5  C   UNL     1      27.888  44.425  54.295  1.00  0.00     0.004 A 
HETATM    6  C   UNL     1      28.799  44.870  55.242  1.00  0.00     0.113 A 
HETATM    7  C   UNL     1      30.038  44.295  55.400  1.00  0.00     0.105 A 
HETATM    8  O   UNL     1      28.602  45.916  56.097  1.00  0.00    -0.322 OA
HETATM    9  C   UNL     1      30.447  43.234  54.625  1.00  0.00     0.040 A 
HETATM   10  O   UNL     1      30.767  44.891  56.378  1.00  0.00    -0.323 OA
HETATM   11  C   UNL     1      29.555  42.750  53.665  1.00  0.00     0.003 A 
HETATM   12  C   UNL     1      28.284  43.335  53.502  1.00  0.00     0.012 A 
HETATM   13  C   UNL     1      29.840  45.881  56.858  1.00  0.00     0.352 A 
ENDBRANCH   4   5
ENDBRANCH   1   4
BRANCH   1  14
HETATM   14  C   UNL     1      25.332  46.027  52.165  1.00  0.00     0.292 C 
BRANCH  14  15
HETATM   15  C   UNL     1      25.164  44.682  51.511  1.00  0.00     0.190 A 
HETATM   16  N   UNL     1      24.032  43.972  51.646  1.00  0.00    -0.109 NA
HETATM   17  O   UNL     1      24.276  42.840  50.857  1.00  0.00    -0.205 OA
HETATM   18  C   UNL     1      25.508  43.013  50.307  1.00  0.00     0.288 A 
HETATM   19  N   UNL     1      26.085  44.140  50.651  1.00  0.00    -0.215 NA
ENDBRANCH  14  15
BRANCH  14  20
HETATM   20  C   UNL     1      25.447  47.030  51.029  1.00  0.00    -0.020 A 
HETATM   21  C   UNL     1      24.296  47.391  50.304  1.00  0.00     0.011 A 
HETATM   22  C   UNL     1      24.366  48.336  49.276  1.00  0.00     0.024 A 
HETATM   23  C   UNL     1      25.584  48.929  48.957  1.00  0.00     0.034 A 
HETATM   24 CL   UNL     1      25.667  50.091  47.695  1.00  0.00    -0.084 Cl
HETATM   25  C   UNL     1      26.736  48.583  49.658  1.00  0.00     0.024 A 
HETATM   26  C   UNL     1      26.671  47.641  50.689  1.00  0.00     0.011 A 
ENDBRANCH  14  20
ENDBRANCH   1  14
TORSDOF 5
ENDMDL
MODEL 2
REMARK VINA RESULT:      -8.1      2.550      3.550
REMARK  5 active torsions:
REMARK  status: ('A' for Active; 'I' for Inactive)
REMARK    1  A    between atoms: C_8  and  C_9 
REMARK    2  A    between atoms: C_9  and  N_10 
REMARK    3  A    between atoms: N_10  and  C_13 
REMARK    4  A    between atoms: C_13  and  C_14 
REMARK    5  A    between atoms: C_13  and  C_19 
ROOT
HETATM    1  N   UNL     1      28.534  42.624  52.514  1.00  0.00    -0.056 N 
HETATM    2  H   UNL     1      28.650  43.645  52.437  1.00  0.00     0.278 HD
HETATM    3  H   UNL     1      29.232  42.242  51.865  1.00  0.00     0.278 HD
ENDROOT
BRANCH   1   4
HETATM    4  C   UNL     1      28.856  42.215  53.902  1.00  0.00     0.275 C 
BRANCH   4   5
HETATM    5  C   UNL     1      29.433  43.342  54.698  1.00  0.00     0.004 A 
HETATM    6  C   UNL     1      28.768  44.553  54.822  1.00  0.00     0.113 A 
HETATM    7  C   UNL     1      29.261  45.591  55.577  1.00  0.00     0.105 A 
HETATM    8  O   UNL     1      27.587  44.871  54.215  1.00  0.00    -0.322 OA
HETATM    9  C   UNL     1      30.451  45.486  56.260  1.00  0.00     0.040 A 
HETATM   10  O   UNL     1      28.452  46.682  55.555  1.00  0.00    -0.323 OA
HETATM   11  C   UNL     1      31.148  44.279  56.168  1.00  0.00     0.003 A 
HETATM   12  C   UNL     1      30.644  43.213  55.398  1.00  0.00     0.012 A 
HETATM   13  C   UNL     1      27.365  46.210  54.738  1.00  0.00     0.352 A 
ENDBRANCH   4   5
ENDBRANCH   1   4
BRANCH   1  14
HETATM   14  C   UNL     1      27.168  42.265  52.012  1.00  0.00     0.292 C 
BRANCH  14  15
HETATM   15  C   UNL     1      27.183  41.158  50.992  1.00  0.00     0.190 A 
HETATM   16  N   UNL     1      28.331  40.583  50.597  1.00  0.00    -0.109 NA
HETATM   17  O   UNL     1      27.895  39.597  49.703  1.00  0.00    -0.205 OA
HETATM   18  C   UNL     1      26.537  39.663  49.689  1.00  0.00     0.288 A 
HETATM   19  N   UNL     1      26.046  40.583  50.485  1.00  0.00    -0.215 NA
ENDBRANCH  14  15
BRANCH  14  20
HETATM   20  C   UNL     1      26.453  43.431  51.351  1.00  0.00    -0.020 A 
HETATM   21  C   UNL     1      25.181  43.816  51.811  1.00  0.00     0.011 A 
HETATM   22  C   UNL     1      24.514  44.906  51.243  1.00  0.00     0.024 A 
HETATM   23  C   UNL     1      25.108  45.623  50.208  1.00  0.00     0.034 A 
HETATM   24 CL   UNL     1      24.288  46.963  49.513  1.00  0.00    -0.084 Cl
HETATM   25  C   UNL     1      26.364  45.256  49.733  1.00  0.00     0.024 A 
HETATM   26  C   UNL     1      27.036  44.169  50.300  1.00  0.00     0.011 A 
ENDBRANCH  14  20
ENDBRANCH   1  14
TORSDOF 5
ENDMDL
MODEL 3
REMARK VINA RESULT:      -8.1      3.451      6.985
REMARK  5 active torsions:
REMARK  status: ('A' for Active; 'I' for Inactive)
REMARK    1  A    between atoms: C_8  and  C_9 
REMARK    2  A    between atoms: C_9  and  N_10 
REMARK    3  A    between atoms: N_10  and  C_13 
REMARK    4  A    between atoms: C_13  and  C_14 
REMARK    5  A    between atoms: C_13  and  C_19 
ROOT
HETATM    1  N   UNL     1      24.973  47.036  51.200  1.00  0.00    -0.056 N 
HETATM    2  H   UNL     1      25.495  47.924  51.155  1.00  0.00     0.278 HD
HETATM    3  H   UNL     1      24.374  47.140  52.028  1.00  0.00     0.278 HD
ENDROOT
BRANCH   1   4
HETATM    4  C   UNL     1      24.135  46.918  49.983  1.00  0.00     0.275 C 
BRANCH   4   5
HETATM    5  C   UNL     1      24.099  48.193  49.202  1.00  0.00     0.004 A 
HETATM    6  C   UNL     1      25.263  48.882  48.890  1.00  0.00     0.113 A 
HETATM    7  C   UNL     1      25.259  50.036  48.143  1.00  0.00     0.105 A 
HETATM    8  O   UNL     1      26.521  48.528  49.286  1.00  0.00    -0.322 OA
HETATM    9  C   UNL     1      24.090  50.578  47.656  1.00  0.00     0.040 A 
HETATM   10  O   UNL     1      26.504  50.545  47.963  1.00  0.00    -0.323 OA
HETATM   11  C   UNL     1      22.897  49.909  47.942  1.00  0.00     0.003 A 
HETATM   12  C   UNL     1      22.899  48.725  48.703  1.00  0.00     0.012 A 
HETATM   13  C   UNL     1      27.310  49.563  48.638  1.00  0.00     0.352 A 
ENDBRANCH   4   5
ENDBRANCH   1   4
BRANCH   1  14
HETATM   14  C   UNL     1      25.948  45.926  51.450  1.00  0.00     0.292 C 
BRANCH  14  15
HETATM   15  C   UNL     1      25.329  44.558  51.342  1.00  0.00     0.190 A 
HETATM   16  N   UNL     1      24.230  44.228  52.040  1.00  0.00    -0.109 NA
HETATM   17  O   UNL     1      23.972  42.918  51.616  1.00  0.00    -0.205 OA
HETATM   18  C   UNL     1      24.918  42.622  50.685  1.00  0.00     0.288 A 
HETATM   19  N   UNL     1      25.758  43.603  50.457  1.00  0.00    -0.215 NA
ENDBRANCH  14  15
BRANCH  14  20
HETATM   20  C   UNL     1      26.578  45.990  52.832  1.00  0.00    -0.020 A 
HETATM   21  C   UNL     1      27.363  44.914  53.286  1.00  0.00     0.011 A 
HETATM   22  C   UNL     1      27.981  44.960  54.539  1.00  0.00     0.024 A 
HETATM   23  C   UNL     1      27.822  46.078  55.354  1.00  0.00     0.034 A 
HETATM   24 CL   UNL     1      28.585  46.132  56.892  1.00  0.00    -0.084 Cl
HETATM   25  C   UNL     1      27.046  47.151  54.927  1.00  0.00     0.024 A 
HETATM   26  C   UNL     1      26.428  47.111  53.673  1.00  0.00     0.011 A 
ENDBRANCH  14  20
ENDBRANCH   1  14
TORSDOF 5
ENDMDL
MODEL 4
REMARK VINA RESULT:      -7.9      3.577      7.376
REMARK  5 active torsions:
REMARK  status: ('A' for Active; 'I' for Inactive)
REMARK    1  A    between atoms: C_8  and  C_9 
REMARK    2  A    between atoms: C_9  and  N_10 
REMARK    3  A    between atoms: N_10  and  C_13 
REMARK    4  A    between atoms: C_13  and  C_14 
REMARK    5  A    between atoms: C_13  and  C_19 
ROOT
HETATM    1  N   UNL     1      25.871  46.905  51.570  1.00  0.00    -0.056 N 
HETATM    2  H   UNL     1      26.753  46.549  51.174  1.00  0.00     0.278 HD
HETATM    3  H   UNL     1      26.042  47.910  51.697  1.00  0.00     0.278 HD
ENDROOT
BRANCH   1   4
HETATM    4  C   UNL     1      24.789  46.698  50.579  1.00  0.00     0.275 C 
BRANCH   4   5
HETATM    5  C   UNL     1      24.607  47.888  49.691  1.00  0.00     0.004 A 
HETATM    6  C   UNL     1      25.691  48.639  49.260  1.00  0.00     0.113 A 
HETATM    7  C   UNL     1      25.553  49.716  48.416  1.00  0.00     0.105 A 
HETATM    8  O   UNL     1      26.991  48.430  49.622  1.00  0.00    -0.322 OA
HETATM    9  C   UNL     1      24.322  50.110  47.944  1.00  0.00     0.040 A 
HETATM   10  O   UNL     1      26.740  50.308  48.128  1.00  0.00    -0.323 OA
HETATM   11  C   UNL     1      23.205  49.374  48.348  1.00  0.00     0.003 A 
HETATM   12  C   UNL     1      23.344  48.269  49.210  1.00  0.00     0.012 A 
HETATM   13  C   UNL     1      27.658  49.463  48.845  1.00  0.00     0.352 A 
ENDBRANCH   4   5
ENDBRANCH   1   4
BRANCH   1  14
HETATM   14  C   UNL     1      25.671  46.280  52.917  1.00  0.00     0.292 C 
BRANCH  14  15
HETATM   15  C   UNL     1      26.157  47.144  54.050  1.00  0.00     0.190 A 
HETATM   16  N   UNL     1      25.400  48.132  54.555  1.00  0.00    -0.109 NA
HETATM   17  O   UNL     1      26.192  48.633  55.595  1.00  0.00    -0.205 OA
HETATM   18  C   UNL     1      27.316  47.868  55.626  1.00  0.00     0.288 A 
HETATM   19  N   UNL     1      27.333  46.921  54.719  1.00  0.00    -0.215 NA
ENDBRANCH  14  15
BRANCH  14  20
HETATM   20  C   UNL     1      26.395  44.952  53.067  1.00  0.00    -0.020 A 
HETATM   21  C   UNL     1      27.281  44.527  52.060  1.00  0.00     0.011 A 
HETATM   22  C   UNL     1      27.985  43.326  52.186  1.00  0.00     0.024 A 
HETATM   23  C   UNL     1      27.812  42.533  53.318  1.00  0.00     0.034 A 
HETATM   24 CL   UNL     1      28.679  41.059  53.472  1.00  0.00    -0.084 Cl
HETATM   25  C   UNL     1      26.936  42.931  54.324  1.00  0.00     0.024 A 
HETATM   26  C   UNL     1      26.232  44.133  54.204  1.00  0.00     0.011 A 
ENDBRANCH  14  20
ENDBRANCH   1  14
TORSDOF 5
ENDMDL
MODEL 5
REMARK VINA RESULT:      -7.9      1.398      1.998
REMARK  5 active torsions:
REMARK  status: ('A' for Active; 'I' for Inactive)
REMARK    1  A    between atoms: C_8  and  C_9 
REMARK    2  A    between atoms: C_9  and  N_10 
REMARK    3  A    between atoms: N_10  and  C_13 
REMARK    4  A    between atoms: C_13  and  C_14 
REMARK    5  A    between atoms: C_13  and  C_19 
ROOT
HETATM    1  N   UNL     1      26.707  44.691  52.327  1.00  0.00    -0.056 N 
HETATM    2  H   UNL     1      26.425  45.410  53.010  1.00  0.00     0.278 HD
HETATM    3  H   UNL     1      27.538  45.089  51.874  1.00  0.00     0.278 HD
ENDROOT
BRANCH   1   4
HETATM    4  C   UNL     1      27.074  43.458  53.063  1.00  0.00     0.275 C 
BRANCH   4   5
HETATM    5  C   UNL     1      28.307  43.645  53.889  1.00  0.00     0.004 A 
HETATM    6  C   UNL     1      28.480  44.769  54.684  1.00  0.00     0.113 A 
HETATM    7  C   UNL     1      29.588  44.947  55.479  1.00  0.00     0.105 A 
HETATM    8  O   UNL     1      27.613  45.821  54.763  1.00  0.00    -0.322 OA
HETATM    9  C   UNL     1      30.595  44.010  55.533  1.00  0.00     0.040 A 
HETATM   10  O   UNL     1      29.553  46.117  56.166  1.00  0.00    -0.323 OA
HETATM   11  C   UNL     1      30.455  42.859  54.754  1.00  0.00     0.003 A 
HETATM   12  C   UNL     1      29.320  42.673  53.941  1.00  0.00     0.012 A 
HETATM   13  C   UNL     1      28.279  46.646  55.758  1.00  0.00     0.352 A 
ENDBRANCH   4   5
ENDBRANCH   1   4
BRANCH   1  14
HETATM   14  C   UNL     1      25.620  44.559  51.304  1.00  0.00     0.292 C 
BRANCH  14  15
HETATM   15  C   UNL     1      25.945  43.570  50.218  1.00  0.00     0.190 A 
HETATM   16  N   UNL     1      27.132  43.582  49.589  1.00  0.00    -0.109 NA
HETATM   17  O   UNL     1      27.033  42.493  48.713  1.00  0.00    -0.205 OA
HETATM   18  C   UNL     1      25.818  41.926  48.939  1.00  0.00     0.288 A 
HETATM   19  N   UNL     1      25.121  42.529  49.873  1.00  0.00    -0.215 NA
ENDBRANCH  14  15
BRANCH  14  20
HETATM   20  C   UNL     1      25.310  45.868  50.596  1.00  0.00    -0.020 A 
HETATM   21  C   UNL     1      26.286  46.881  50.555  1.00  0.00     0.011 A 
HETATM   22  C   UNL     1      26.042  48.082  49.883  1.00  0.00     0.024 A 
HETATM   23  C   UNL     1      24.821  48.288  49.245  1.00  0.00     0.034 A 
HETATM   24 CL   UNL     1      24.524  49.764  48.418  1.00  0.00    -0.084 Cl
HETATM   25  C   UNL     1      23.839  47.301  49.278  1.00  0.00     0.024 A 
HETATM   26  C   UNL     1      24.081  46.097  49.946  1.00  0.00     0.011 A 
ENDBRANCH  14  20
ENDBRANCH   1  14
TORSDOF 5
ENDMDL
MODEL 6
REMARK VINA RESULT:      -7.9      2.379      3.410
REMARK  5 active torsions:
REMARK  status: ('A' for Active; 'I' for Inactive)
REMARK    1  A    between atoms: C_8  and  C_9 
REMARK    2  A    between atoms: C_9  and  N_10 
REMARK    3  A    between atoms: N_10  and  C_13 
REMARK    4  A    between atoms: C_13  and  C_14 
REMARK    5  A    between atoms: C_13  and  C_19 
ROOT
HETATM    1  N   UNL     1      28.976  43.133  52.440  1.00  0.00    -0.056 N 
HETATM    2  H   UNL     1      29.096  44.148  52.315  1.00  0.00     0.278 HD
HETATM    3  H   UNL     1      29.545  42.719  51.692  1.00  0.00     0.278 HD
ENDROOT
BRANCH   1   4
HETATM    4  C   UNL     1      29.527  42.751  53.763  1.00  0.00     0.275 C 
BRANCH   4   5
HETATM    5  C   UNL     1      29.490  43.889  54.733  1.00  0.00     0.004 A 
HETATM    6  C   UNL     1      30.337  43.928  55.832  1.00  0.00     0.113 A 
HETATM    7  C   UNL     1      30.347  44.980  56.718  1.00  0.00     0.105 A 
HETATM    8  O   UNL     1      31.227  42.952  56.178  1.00  0.00    -0.322 OA
HETATM    9  C   UNL     1      29.512  46.063  56.562  1.00  0.00     0.040 A 
HETATM   10  O   UNL     1      31.247  44.809  57.719  1.00  0.00    -0.323 OA
HETATM   11  C   UNL     1      28.650  46.066  55.463  1.00  0.00     0.003 A 
HETATM   12  C   UNL     1      28.640  44.992  54.552  1.00  0.00     0.012 A 
HETATM   13  C   UNL     1      31.845  43.553  57.350  1.00  0.00     0.352 A 
ENDBRANCH   4   5
ENDBRANCH   1   4
BRANCH   1  14
HETATM   14  C   UNL     1      27.538  42.791  52.192  1.00  0.00     0.292 C 
BRANCH  14  15
HETATM   15  C   UNL     1      27.358  41.617  51.268  1.00  0.00     0.190 A 
HETATM   16  N   UNL     1      28.405  40.888  50.847  1.00  0.00    -0.109 NA
HETATM   17  O   UNL     1      27.800  39.893  50.068  1.00  0.00    -0.205 OA
HETATM   18  C   UNL     1      26.459  40.111  50.139  1.00  0.00     0.288 A 
HETATM   19  N   UNL     1      26.131  41.138  50.887  1.00  0.00    -0.215 NA
ENDBRANCH  14  15
BRANCH  14  20
HETATM   20  C   UNL     1      26.757  43.936  51.568  1.00  0.00    -0.020 A 
HETATM   21  C   UNL     1      25.600  44.417  52.210  1.00  0.00     0.011 A 
HETATM   22  C   UNL     1      24.880  45.490  51.676  1.00  0.00     0.024 A 
HETATM   23  C   UNL     1      25.304  46.093  50.495  1.00  0.00     0.034 A 
HETATM   24 CL   UNL     1      24.419  47.413  49.842  1.00  0.00    -0.084 Cl
HETATM   25  C   UNL     1      26.442  45.630  49.840  1.00  0.00     0.024 A 
HETATM   26  C   UNL     1      27.167  44.560  50.372  1.00  0.00     0.011 A 
ENDBRANCH  14  20
ENDBRANCH   1  14
TORSDOF 5
ENDMDL
MODEL 7
REMARK VINA RESULT:      -7.8      3.648      6.274
REMARK  5 active torsions:
REMARK  status: ('A' for Active; 'I' for Inactive)
REMARK    1  A    between atoms: C_8  and  C_9 
REMARK    2  A    between atoms: C_9  and  N_10 
REMARK    3  A    between atoms: N_10  and  C_13 
REMARK    4  A    between atoms: C_13  and  C_14 
REMARK    5  A    between atoms: C_13  and  C_19 
ROOT
HETATM    1  N   UNL     1      25.323  42.144  51.366  1.00  0.00    -0.056 N 
HETATM    2  H   UNL     1      25.296  41.983  52.383  1.00  0.00     0.278 HD
HETATM    3  H   UNL     1      24.827  41.336  50.972  1.00  0.00     0.278 HD
ENDROOT
BRANCH   1   4
HETATM    4  C   UNL     1      24.579  43.390  51.064  1.00  0.00     0.275 C 
BRANCH   4   5
HETATM    5  C   UNL     1      25.096  44.554  51.848  1.00  0.00     0.004 A 
HETATM    6  C   UNL     1      25.481  45.732  51.223  1.00  0.00     0.113 A 
HETATM    7  C   UNL     1      25.925  46.827  51.925  1.00  0.00     0.105 A 
HETATM    8  O   UNL     1      25.491  45.943  49.874  1.00  0.00    -0.322 OA
HETATM    9  C   UNL     1      26.010  46.819  53.299  1.00  0.00     0.040 A 
HETATM   10  O   UNL     1      26.254  47.866  51.116  1.00  0.00    -0.323 OA
HETATM   11  C   UNL     1      25.623  45.655  53.967  1.00  0.00     0.003 A 
HETATM   12  C   UNL     1      25.164  44.532  53.251  1.00  0.00     0.012 A 
HETATM   13  C   UNL     1      25.928  47.329  49.821  1.00  0.00     0.352 A 
ENDBRANCH   4   5
ENDBRANCH   1   4
BRANCH   1  14
HETATM   14  C   UNL     1      26.752  42.094  50.916  1.00  0.00     0.292 C 
BRANCH  14  15
HETATM   15  C   UNL     1      27.131  40.779  50.289  1.00  0.00     0.190 A 
HETATM   16  N   UNL     1      26.285  39.736  50.279  1.00  0.00    -0.109 NA
HETATM   17  O   UNL     1      26.999  38.761  49.572  1.00  0.00    -0.205 OA
HETATM   18  C   UNL     1      28.174  39.336  49.203  1.00  0.00     0.288 A 
HETATM   19  N   UNL     1      28.295  40.584  49.591  1.00  0.00    -0.215 NA
ENDBRANCH  14  15
BRANCH  14  20
HETATM   20  C   UNL     1      27.738  42.313  52.052  1.00  0.00    -0.020 A 
HETATM   21  C   UNL     1      28.500  43.495  52.090  1.00  0.00     0.011 A 
HETATM   22  C   UNL     1      29.391  43.738  53.139  1.00  0.00     0.024 A 
HETATM   23  C   UNL     1      29.534  42.804  54.162  1.00  0.00     0.034 A 
HETATM   24 CL   UNL     1      30.628  43.106  55.452  1.00  0.00    -0.084 Cl
HETATM   25  C   UNL     1      28.794  41.625  54.142  1.00  0.00     0.024 A 
HETATM   26  C   UNL     1      27.899  41.379  53.095  1.00  0.00     0.011 A 
ENDBRANCH  14  20
ENDBRANCH   1  14
TORSDOF 5
ENDMDL
MODEL 8
REMARK VINA RESULT:      -7.6      6.252      9.794
REMARK  5 active torsions:
REMARK  status: ('A' for Active; 'I' for Inactive)
REMARK    1  A    between atoms: C_8  and  C_9 
REMARK    2  A    between atoms: C_9  and  N_10 
REMARK    3  A    between atoms: N_10  and  C_13 
REMARK    4  A    between atoms: C_13  and  C_14 
REMARK    5  A    between atoms: C_13  and  C_19 
ROOT
HETATM    1  N   UNL     1      21.249  49.108  49.882  1.00  0.00    -0.056 N 
HETATM    2  H   UNL     1      21.853  48.826  50.668  1.00  0.00     0.278 HD
HETATM    3  H   UNL     1      20.441  48.477  49.948  1.00  0.00     0.278 HD
ENDROOT
BRANCH   1   4
HETATM    4  C   UNL     1      20.814  50.509  50.099  1.00  0.00     0.275 C 
BRANCH   4   5
HETATM    5  C   UNL     1      19.681  50.888  49.199  1.00  0.00     0.004 A 
HETATM    6  C   UNL     1      18.623  50.021  48.964  1.00  0.00     0.113 A 
HETATM    7  C   UNL     1      17.554  50.361  48.169  1.00  0.00     0.105 A 
HETATM    8  O   UNL     1      18.519  48.752  49.456  1.00  0.00    -0.322 OA
HETATM    9  C   UNL     1      17.470  51.592  47.559  1.00  0.00     0.040 A 
HETATM   10  O   UNL     1      16.639  49.363  48.073  1.00  0.00    -0.323 OA
HETATM   11  C   UNL     1      18.511  52.498  47.778  1.00  0.00     0.003 A 
HETATM   12  C   UNL     1      19.606  52.153  48.594  1.00  0.00     0.012 A 
HETATM   13  C   UNL     1      17.220  48.364  48.930  1.00  0.00     0.352 A 
ENDBRANCH   4   5
ENDBRANCH   1   4
BRANCH   1  14
HETATM   14  C   UNL     1      21.974  48.825  48.602  1.00  0.00     0.292 C 
BRANCH  14  15
HETATM   15  C   UNL     1      21.691  47.453  48.051  1.00  0.00     0.190 A 
HETATM   16  N   UNL     1      20.909  46.580  48.707  1.00  0.00    -0.109 NA
HETATM   17  O   UNL     1      20.873  45.480  47.841  1.00  0.00    -0.205 OA
HETATM   18  C   UNL     1      21.603  45.827  46.748  1.00  0.00     0.288 A 
HETATM   19  N   UNL     1      22.103  47.038  46.810  1.00  0.00    -0.215 NA
ENDBRANCH  14  15
BRANCH  14  20
HETATM   20  C   UNL     1      23.485  48.912  48.745  1.00  0.00    -0.020 A 
HETATM   21  C   UNL     1      24.151  48.031  49.616  1.00  0.00     0.011 A 
HETATM   22  C   UNL     1      25.543  48.067  49.743  1.00  0.00     0.024 A 
HETATM   23  C   UNL     1      26.286  48.983  49.004  1.00  0.00     0.034 A 
HETATM   24 CL   UNL     1      27.996  49.023  49.160  1.00  0.00    -0.084 Cl
HETATM   25  C   UNL     1      25.648  49.868  48.139  1.00  0.00     0.024 A 
HETATM   26  C   UNL     1      24.256  49.834  48.007  1.00  0.00     0.011 A 
ENDBRANCH  14  20
ENDBRANCH   1  14
TORSDOF 5
ENDMDL
MODEL 9
REMARK VINA RESULT:      -7.5      4.460      7.016
REMARK  5 active torsions:
REMARK  status: ('A' for Active; 'I' for Inactive)
REMARK    1  A    between atoms: C_8  and  C_9 
REMARK    2  A    between atoms: C_9  and  N_10 
REMARK    3  A    between atoms: N_10  and  C_13 
REMARK    4  A    between atoms: C_13  and  C_14 
REMARK    5  A    between atoms: C_13  and  C_19 
ROOT
HETATM    1  N   UNL     1      27.429  41.002  51.668  1.00  0.00    -0.056 N 
HETATM    2  H   UNL     1      27.564  40.364  52.465  1.00  0.00     0.278 HD
HETATM    3  H   UNL     1      28.371  41.117  51.276  1.00  0.00     0.278 HD
ENDROOT
BRANCH   1   4
HETATM    4  C   UNL     1      26.548  40.340  50.677  1.00  0.00     0.275 C 
BRANCH   4   5
HETATM    5  C   UNL     1      27.330  39.625  49.621  1.00  0.00     0.004 A 
HETATM    6  C   UNL     1      28.504  38.951  49.925  1.00  0.00     0.113 A 
HETATM    7  C   UNL     1      29.222  38.257  48.980  1.00  0.00     0.105 A 
HETATM    8  O   UNL     1      29.094  38.908  51.156  1.00  0.00    -0.322 OA
HETATM    9  C   UNL     1      28.811  38.188  47.668  1.00  0.00     0.040 A 
HETATM   10  O   UNL     1      30.338  37.679  49.493  1.00  0.00    -0.323 OA
HETATM   11  C   UNL     1      27.628  38.846  47.323  1.00  0.00     0.003 A 
HETATM   12  C   UNL     1      26.889  39.555  48.290  1.00  0.00     0.012 A 
HETATM   13  C   UNL     1      30.230  38.043  50.881  1.00  0.00     0.352 A 
ENDBRANCH   4   5
ENDBRANCH   1   4
BRANCH   1  14
HETATM   14  C   UNL     1      26.965  42.326  52.195  1.00  0.00     0.292 C 
BRANCH  14  15
HETATM   15  C   UNL     1      26.731  43.346  51.112  1.00  0.00     0.190 A 
HETATM   16  N   UNL     1      27.731  43.776  50.325  1.00  0.00    -0.109 NA
HETATM   17  O   UNL     1      27.083  44.656  49.448  1.00  0.00    -0.205 OA
HETATM   18  C   UNL     1      25.764  44.627  49.780  1.00  0.00     0.288 A 
HETATM   19  N   UNL     1      25.489  43.817  50.775  1.00  0.00    -0.215 NA
ENDBRANCH  14  15
BRANCH  14  20
HETATM   20  C   UNL     1      27.955  42.961  53.157  1.00  0.00    -0.020 A 
HETATM   21  C   UNL     1      27.564  44.080  53.916  1.00  0.00     0.011 A 
HETATM   22  C   UNL     1      28.442  44.664  54.833  1.00  0.00     0.024 A 
HETATM   23  C   UNL     1      29.721  44.140  55.003  1.00  0.00     0.034 A 
HETATM   24 CL   UNL     1      30.798  44.859  56.132  1.00  0.00    -0.084 Cl
HETATM   25  C   UNL     1      30.131  43.038  54.259  1.00  0.00     0.024 A 
HETATM   26  C   UNL     1      29.255  42.448  53.343  1.00  0.00     0.011 A 
ENDBRANCH  14  20
ENDBRANCH   1  14
TORSDOF 5
ENDMDL
MODEL 10
REMARK VINA RESULT:      -7.5     16.017     17.338
REMARK  5 active torsions:
REMARK  status: ('A' for Active; 'I' for Inactive)
REMARK    1  A    between atoms: C_8  and  C_9 
REMARK    2  A    between atoms: C_9  and  N_10 
REMARK    3  A    between atoms: N_10  and  C_13 
REMARK    4  A    between atoms: C_13  and  C_14 
REMARK    5  A    between atoms: C_13  and  C_19 
ROOT
HETATM    1  N   UNL     1      36.631  45.582  65.713  1.00  0.00    -0.056 N 
HETATM    2  H   UNL     1      37.637  45.385  65.617  1.00  0.00     0.278 HD
HETATM    3  H   UNL     1      36.476  45.608  66.728  1.00  0.00     0.278 HD
ENDROOT
BRANCH   1   4
HETATM    4  C   UNL     1      36.350  46.913  65.124  1.00  0.00     0.275 C 
BRANCH   4   5
HETATM    5  C   UNL     1      37.536  47.821  65.205  1.00  0.00     0.004 A 
HETATM    6  C   UNL     1      38.814  47.369  64.910  1.00  0.00     0.113 A 
HETATM    7  C   UNL     1      39.914  48.193  64.943  1.00  0.00     0.105 A 
HETATM    8  O   UNL     1      39.140  46.084  64.581  1.00  0.00    -0.322 OA
HETATM    9  C   UNL     1      39.808  49.526  65.269  1.00  0.00     0.040 A 
HETATM   10  O   UNL     1      41.062  47.542  64.626  1.00  0.00    -0.323 OA
HETATM   11  C   UNL     1      38.536  50.024  65.564  1.00  0.00     0.003 A 
HETATM   12  C   UNL     1      37.407  49.182  65.528  1.00  0.00     0.012 A 
HETATM   13  C   UNL     1      40.568  46.221  64.343  1.00  0.00     0.352 A 
ENDBRANCH   4   5
ENDBRANCH   1   4
BRANCH   1  14
HETATM   14  C   UNL     1      35.866  44.425  65.143  1.00  0.00     0.292 C 
BRANCH  14  15
HETATM   15  C   UNL     1      34.994  43.734  66.157  1.00  0.00     0.190 A 
HETATM   16  N   UNL     1      35.211  43.863  67.476  1.00  0.00    -0.109 NA
HETATM   17  O   UNL     1      34.168  43.118  68.040  1.00  0.00    -0.205 OA
HETATM   18  C   UNL     1      33.420  42.657  67.002  1.00  0.00     0.288 A 
HETATM   19  N   UNL     1      33.864  43.030  65.826  1.00  0.00    -0.215 NA
ENDBRANCH  14  15
BRANCH  14  20
HETATM   20  C   UNL     1      36.767  43.346  64.566  1.00  0.00    -0.020 A 
HETATM   21  C   UNL     1      37.375  43.549  63.313  1.00  0.00     0.011 A 
HETATM   22  C   UNL     1      38.235  42.588  62.772  1.00  0.00     0.024 A 
HETATM   23  C   UNL     1      38.496  41.414  63.473  1.00  0.00     0.034 A 
HETATM   24 CL   UNL     1      39.555  40.236  62.807  1.00  0.00    -0.084 Cl
HETATM   25  C   UNL     1      37.902  41.190  64.711  1.00  0.00     0.024 A 
HETATM   26  C   UNL     1      37.044  42.150  65.258  1.00  0.00     0.011 A 
ENDBRANCH  14  20
ENDBRANCH   1  14
TORSDOF 5
ENDMDL
