MODEL 1
REMARK VINA RESULT:     -10.7      0.000      0.000
REMARK  8 active torsions:
REMARK  status: ('A' for Active; 'I' for Inactive)
REMARK    1  A    between atoms: C_3  and  C_4 
REMARK    2  A    between atoms: N_5  and  N_6 
REMARK    3  A    between atoms: C_17  and  C_18 
REMARK       I    between atoms: C_18  and  N_19 
REMARK    4  A    between atoms: N_19  and  C_20 
REMARK    5  A    between atoms: C_20  and  C_21 
REMARK    6  A    between atoms: C_21  and  C_22 
REMARK    7  A    between atoms: C_29  and  N_30 
REMARK    8  A    between atoms: C_31  and  O_32 
ROOT
HETATM    1  N   UNL     1      27.469  42.862  52.157  1.00  0.00    -0.202 N 
HETATM    2  C   UNL     1      28.130  43.412  53.240  1.00  0.00     0.183 A 
HETATM    3  C   UNL     1      27.422  44.555  53.604  1.00  0.00     0.124 A 
HETATM    4  N   UNL     1      27.878  45.368  54.591  1.00  0.00    -0.242 NA
HETATM    5  C   UNL     1      28.983  44.939  55.220  1.00  0.00     0.086 A 
HETATM    6  C   UNL     1      29.664  43.750  54.849  1.00  0.00     0.088 A 
HETATM    7  N   UNL     1      29.269  42.975  53.825  1.00  0.00    -0.225 NA
HETATM    8  C   UNL     1      29.468  45.681  56.291  1.00  0.00     0.034 A 
HETATM    9  C   UNL     1      30.593  45.277  57.013  1.00  0.00     0.002 A 
HETATM   10  C   UNL     1      31.252  44.111  56.655  1.00  0.00     0.002 A 
HETATM   11  C   UNL     1      30.785  43.362  55.574  1.00  0.00     0.034 A 
HETATM   12  C   UNL     1      26.263  44.644  52.776  1.00  0.00     0.099 C 
HETATM   13  C   UNL     1      26.194  43.420  52.118  1.00  0.00     0.122 C 
ENDROOT
BRANCH  12  14
HETATM   14  C   UNL     1      25.376  45.794  52.599  1.00  0.00     0.236 C 
HETATM   15  N   UNL     1      24.343  45.611  51.683  1.00  0.00    -0.258 NA
HETATM   16  H   UNL     1      24.083  44.635  51.668  1.00  0.00     0.130 HD
HETATM   17  O   UNL     1      25.562  46.878  53.141  1.00  0.00    -0.274 OA
BRANCH  15  18
HETATM   18  C   UNL     1      24.610  45.972  50.295  1.00  0.00     0.099 C 
BRANCH  18  19
HETATM   19  C   UNL     1      24.075  47.322  49.816  1.00  0.00     0.048 C 
BRANCH  19  20
HETATM   20  C   UNL     1      25.226  48.199  49.362  1.00  0.00    -0.083 C 
HETATM   21  C   UNL     1      24.881  49.469  48.619  1.00  0.00     0.034 C 
HETATM   22  C   UNL     1      26.077  50.105  47.901  1.00  0.00     0.005 C 
HETATM   23  C   UNL     1      27.336  50.069  48.762  1.00  0.00     0.004 C 
HETATM   24  C   UNL     1      27.693  48.636  49.154  1.00  0.00     0.027 C 
HETATM   25  C   UNL     1      26.503  47.836  49.590  1.00  0.00    -0.024 C 
ENDBRANCH  19  20
ENDBRANCH  18  19
ENDBRANCH  15  18
ENDBRANCH  12  14
BRANCH  13  26
HETATM   26  N   UNL     1      25.198  42.829  51.383  1.00  0.00    -0.286 NA
HETATM   27  H   UNL     1      24.750  43.417  50.678  1.00  0.00     0.125 HD
HETATM   28  H   UNL     1      24.448  42.414  51.943  1.00  0.00     0.125 HD
ENDBRANCH  13  26
BRANCH   1  29
HETATM   29  N   UNL     1      27.866  41.974  51.179  1.00  0.00    -0.176 NA
HETATM   30  C   UNL     1      27.949  40.729  51.530  1.00  0.00     0.153 C 
BRANCH  30  31
HETATM   31  C   UNL     1      28.576  39.737  50.623  1.00  0.00     0.016 A 
HETATM   32  C   UNL     1      29.418  38.768  51.178  1.00  0.00     0.016 A 
HETATM   33  C   UNL     1      30.099  37.879  50.342  1.00  0.00     0.001 A 
HETATM   34  C   UNL     1      29.945  37.958  48.957  1.00  0.00     0.003 A 
HETATM   35  C   UNL     1      29.105  38.922  48.400  1.00  0.00     0.037 A 
HETATM   36  C   UNL     1      28.426  39.809  49.231  1.00  0.00     0.077 A 
BRANCH  36  37
HETATM   37  O   UNL     1      27.651  40.754  48.614  1.00  0.00    -0.360 OA
HETATM   38  H   UNL     1      28.049  40.895  47.728  1.00  0.00     0.217 HD
ENDBRANCH  36  37
ENDBRANCH  30  31
ENDBRANCH   1  29
TORSDOF 8
ENDMDL
MODEL 2
REMARK VINA RESULT:     -10.6      1.818      8.052
REMARK  8 active torsions:
REMARK  status: ('A' for Active; 'I' for Inactive)
REMARK    1  A    between atoms: C_3  and  C_4 
REMARK    2  A    between atoms: N_5  and  N_6 
REMARK    3  A    between atoms: C_17  and  C_18 
REMARK       I    between atoms: C_18  and  N_19 
REMARK    4  A    between atoms: N_19  and  C_20 
REMARK    5  A    between atoms: C_20  and  C_21 
REMARK    6  A    between atoms: C_21  and  C_22 
REMARK    7  A    between atoms: C_29  and  N_30 
REMARK    8  A    between atoms: C_31  and  O_32 
ROOT
HETATM    1  N   UNL     1      25.973  44.370  50.496  1.00  0.00    -0.202 N 
HETATM    2  C   UNL     1      26.603  43.179  50.186  1.00  0.00     0.183 A 
HETATM    3  C   UNL     1      27.057  42.639  51.388  1.00  0.00     0.124 A 
HETATM    4  N   UNL     1      27.799  41.502  51.401  1.00  0.00    -0.242 NA
HETATM    5  C   UNL     1      27.972  40.919  50.205  1.00  0.00     0.086 A 
HETATM    6  C   UNL     1      27.468  41.475  49.000  1.00  0.00     0.088 A 
HETATM    7  N   UNL     1      26.798  42.639  48.960  1.00  0.00    -0.225 NA
HETATM    8  C   UNL     1      28.659  39.711  50.148  1.00  0.00     0.034 A 
HETATM    9  C   UNL     1      28.849  39.031  48.943  1.00  0.00     0.002 A 
HETATM   10  C   UNL     1      28.348  39.571  47.768  1.00  0.00     0.002 A 
HETATM   11  C   UNL     1      27.667  40.789  47.807  1.00  0.00     0.034 A 
HETATM   12  C   UNL     1      26.614  43.483  52.450  1.00  0.00     0.099 C 
HETATM   13  C   UNL     1      25.704  44.356  51.863  1.00  0.00     0.122 C 
ENDROOT
BRANCH  12  14
HETATM   14  C   UNL     1      27.065  43.480  53.842  1.00  0.00     0.236 C 
HETATM   15  N   UNL     1      27.022  44.716  54.481  1.00  0.00    -0.258 NA
HETATM   16  H   UNL     1      26.273  45.268  54.086  1.00  0.00     0.130 HD
HETATM   17  O   UNL     1      27.533  42.492  54.396  1.00  0.00    -0.274 OA
BRANCH  15  18
HETATM   18  C   UNL     1      28.216  45.551  54.400  1.00  0.00     0.099 C 
BRANCH  18  19
HETATM   19  C   UNL     1      28.693  46.204  55.699  1.00  0.00     0.048 C 
BRANCH  19  20
HETATM   20  C   UNL     1      29.755  45.338  56.349  1.00  0.00    -0.083 C 
HETATM   21  C   UNL     1      30.323  44.202  55.530  1.00  0.00     0.034 C 
HETATM   22  C   UNL     1      31.112  43.182  56.358  1.00  0.00     0.005 C 
HETATM   23  C   UNL     1      32.000  43.865  57.395  1.00  0.00     0.004 C 
HETATM   24  C   UNL     1      31.174  44.740  58.335  1.00  0.00     0.027 C 
HETATM   25  C   UNL     1      30.148  45.563  57.617  1.00  0.00    -0.024 C 
ENDBRANCH  19  20
ENDBRANCH  18  19
ENDBRANCH  15  18
ENDBRANCH  12  14
BRANCH  13  26
HETATM   26  N   UNL     1      24.791  45.227  52.400  1.00  0.00    -0.286 NA
HETATM   27  H   UNL     1      25.104  46.191  52.518  1.00  0.00     0.125 HD
HETATM   28  H   UNL     1      24.400  44.929  53.299  1.00  0.00     0.125 HD
ENDBRANCH  13  26
BRANCH   1  29
HETATM   29  N   UNL     1      25.655  45.477  49.739  1.00  0.00    -0.176 NA
HETATM   30  C   UNL     1      26.246  46.585  50.059  1.00  0.00     0.153 C 
BRANCH  30  31
HETATM   31  C   UNL     1      25.810  47.867  49.456  1.00  0.00     0.016 A 
HETATM   32  C   UNL     1      24.450  48.193  49.500  1.00  0.00     0.016 A 
HETATM   33  C   UNL     1      23.992  49.346  48.857  1.00  0.00     0.001 A 
HETATM   34  C   UNL     1      24.885  50.171  48.170  1.00  0.00     0.003 A 
HETATM   35  C   UNL     1      26.240  49.849  48.125  1.00  0.00     0.037 A 
HETATM   36  C   UNL     1      26.699  48.700  48.764  1.00  0.00     0.077 A 
BRANCH  36  37
HETATM   37  O   UNL     1      28.035  48.426  48.645  1.00  0.00    -0.360 OA
HETATM   38  H   UNL     1      28.380  49.046  47.966  1.00  0.00     0.217 HD
ENDBRANCH  36  37
ENDBRANCH  30  31
ENDBRANCH   1  29
TORSDOF 8
ENDMDL
MODEL 3
REMARK VINA RESULT:     -10.4      1.117      1.781
REMARK  8 active torsions:
REMARK  status: ('A' for Active; 'I' for Inactive)
REMARK    1  A    between atoms: C_3  and  C_4 
REMARK    2  A    between atoms: N_5  and  N_6 
REMARK    3  A    between atoms: C_17  and  C_18 
REMARK       I    between atoms: C_18  and  N_19 
REMARK    4  A    between atoms: N_19  and  C_20 
REMARK    5  A    between atoms: C_20  and  C_21 
REMARK    6  A    between atoms: C_21  and  C_22 
REMARK    7  A    between atoms: C_29  and  N_30 
REMARK    8  A    between atoms: C_31  and  O_32 
ROOT
HETATM    1  N   UNL     1      26.822  42.902  52.464  1.00  0.00    -0.202 N 
HETATM    2  C   UNL     1      27.672  43.474  53.393  1.00  0.00     0.183 A 
HETATM    3  C   UNL     1      27.259  44.793  53.557  1.00  0.00     0.124 A 
HETATM    4  N   UNL     1      27.958  45.646  54.349  1.00  0.00    -0.242 NA
HETATM    5  C   UNL     1      28.993  45.098  55.005  1.00  0.00     0.086 A 
HETATM    6  C   UNL     1      29.371  43.739  54.843  1.00  0.00     0.088 A 
HETATM    7  N   UNL     1      28.736  42.902  54.005  1.00  0.00    -0.225 NA
HETATM    8  C   UNL     1      29.712  45.891  55.892  1.00  0.00     0.034 A 
HETATM    9  C   UNL     1      30.780  45.380  56.632  1.00  0.00     0.002 A 
HETATM   10  C   UNL     1      31.142  44.050  56.480  1.00  0.00     0.002 A 
HETATM   11  C   UNL     1      30.438  43.244  55.584  1.00  0.00     0.034 A 
HETATM   12  C   UNL     1      26.082  44.992  52.774  1.00  0.00     0.099 C 
HETATM   13  C   UNL     1      25.698  43.718  52.369  1.00  0.00     0.122 C 
ENDROOT
BRANCH  12  14
HETATM   14  C   UNL     1      25.451  46.262  52.415  1.00  0.00     0.236 C 
HETATM   15  N   UNL     1      24.579  46.205  51.331  1.00  0.00    -0.258 NA
HETATM   16  H   UNL     1      24.161  45.285  51.290  1.00  0.00     0.130 HD
HETATM   17  O   UNL     1      25.723  47.327  52.958  1.00  0.00    -0.274 OA
BRANCH  15  18
HETATM   18  C   UNL     1      25.143  46.444  50.006  1.00  0.00     0.099 C 
BRANCH  18  19
HETATM   19  C   UNL     1      25.620  47.865  49.704  1.00  0.00     0.048 C 
BRANCH  19  20
HETATM   20  C   UNL     1      24.482  48.673  49.110  1.00  0.00    -0.083 C 
HETATM   21  C   UNL     1      24.844  49.919  48.337  1.00  0.00     0.034 C 
HETATM   22  C   UNL     1      23.654  50.850  48.077  1.00  0.00     0.005 C 
HETATM   23  C   UNL     1      22.404  50.069  47.683  1.00  0.00     0.004 C 
HETATM   24  C   UNL     1      22.022  49.059  48.762  1.00  0.00     0.027 C 
HETATM   25  C   UNL     1      23.201  48.302  49.298  1.00  0.00    -0.024 C 
ENDBRANCH  19  20
ENDBRANCH  18  19
ENDBRANCH  15  18
ENDBRANCH  12  14
BRANCH  13  26
HETATM   26  N   UNL     1      24.542  43.245  51.803  1.00  0.00    -0.286 NA
HETATM   27  H   UNL     1      24.220  43.732  50.965  1.00  0.00     0.125 HD
HETATM   28  H   UNL     1      23.744  43.200  52.444  1.00  0.00     0.125 HD
ENDBRANCH  13  26
BRANCH   1  29
HETATM   29  N   UNL     1      26.938  41.786  51.661  1.00  0.00    -0.176 NA
HETATM   30  C   UNL     1      27.949  41.761  50.851  1.00  0.00     0.153 C 
BRANCH  30  31
HETATM   31  C   UNL     1      28.038  40.719  49.800  1.00  0.00     0.016 A 
HETATM   32  C   UNL     1      28.578  39.475  50.142  1.00  0.00     0.016 A 
HETATM   33  C   UNL     1      28.765  38.504  49.153  1.00  0.00     0.001 A 
HETATM   34  C   UNL     1      28.419  38.775  47.828  1.00  0.00     0.003 A 
HETATM   35  C   UNL     1      27.881  40.014  47.484  1.00  0.00     0.037 A 
HETATM   36  C   UNL     1      27.694  40.982  48.467  1.00  0.00     0.077 A 
BRANCH  36  37
HETATM   37  O   UNL     1      27.198  42.189  48.051  1.00  0.00    -0.360 OA
HETATM   38  H   UNL     1      27.854  42.546  47.414  1.00  0.00     0.217 HD
ENDBRANCH  36  37
ENDBRANCH  30  31
ENDBRANCH   1  29
TORSDOF 8
ENDMDL
MODEL 4
REMARK VINA RESULT:     -10.3      1.657      5.740
REMARK  8 active torsions:
REMARK  status: ('A' for Active; 'I' for Inactive)
REMARK    1  A    between atoms: C_3  and  C_4 
REMARK    2  A    between atoms: N_5  and  N_6 
REMARK    3  A    between atoms: C_17  and  C_18 
REMARK       I    between atoms: C_18  and  N_19 
REMARK    4  A    between atoms: N_19  and  C_20 
REMARK    5  A    between atoms: C_20  and  C_21 
REMARK    6  A    between atoms: C_21  and  C_22 
REMARK    7  A    between atoms: C_29  and  N_30 
REMARK    8  A    between atoms: C_31  and  O_32 
ROOT
HETATM    1  N   UNL     1      27.630  43.561  53.097  1.00  0.00    -0.202 N 
HETATM    2  C   UNL     1      27.712  42.453  52.274  1.00  0.00     0.183 A 
HETATM    3  C   UNL     1      26.631  42.523  51.398  1.00  0.00     0.124 A 
HETATM    4  N   UNL     1      26.388  41.520  50.515  1.00  0.00    -0.242 NA
HETATM    5  C   UNL     1      27.301  40.536  50.503  1.00  0.00     0.086 A 
HETATM    6  C   UNL     1      28.412  40.509  51.386  1.00  0.00     0.088 A 
HETATM    7  N   UNL     1      28.625  41.455  52.316  1.00  0.00    -0.225 NA
HETATM    8  C   UNL     1      27.159  39.510  49.575  1.00  0.00     0.034 A 
HETATM    9  C   UNL     1      28.088  38.471  49.482  1.00  0.00     0.002 A 
HETATM   10  C   UNL     1      29.178  38.452  50.339  1.00  0.00     0.002 A 
HETATM   11  C   UNL     1      29.327  39.467  51.285  1.00  0.00     0.034 A 
HETATM   12  C   UNL     1      25.935  43.743  51.645  1.00  0.00     0.099 C 
HETATM   13  C   UNL     1      26.769  44.471  52.488  1.00  0.00     0.122 C 
ENDROOT
BRANCH  12  14
HETATM   14  C   UNL     1      24.604  44.125  51.174  1.00  0.00     0.236 C 
HETATM   15  N   UNL     1      24.455  44.173  49.790  1.00  0.00    -0.258 NA
HETATM   16  H   UNL     1      25.080  43.501  49.366  1.00  0.00     0.130 HD
HETATM   17  O   UNL     1      23.696  44.468  51.924  1.00  0.00    -0.274 OA
BRANCH  15  18
HETATM   18  C   UNL     1      24.735  45.445  49.132  1.00  0.00     0.099 C 
BRANCH  18  19
HETATM   19  C   UNL     1      24.525  46.713  49.960  1.00  0.00     0.048 C 
BRANCH  19  20
HETATM   20  C   UNL     1      25.458  47.806  49.473  1.00  0.00    -0.083 C 
HETATM   21  C   UNL     1      24.830  49.025  48.839  1.00  0.00     0.034 C 
HETATM   22  C   UNL     1      25.826  49.901  48.071  1.00  0.00     0.005 C 
HETATM   23  C   UNL     1      27.142  50.053  48.827  1.00  0.00     0.004 C 
HETATM   24  C   UNL     1      27.780  48.693  49.100  1.00  0.00     0.027 C 
HETATM   25  C   UNL     1      26.794  47.670  49.578  1.00  0.00    -0.024 C 
ENDBRANCH  19  20
ENDBRANCH  18  19
ENDBRANCH  15  18
ENDBRANCH  12  14
BRANCH  13  26
HETATM   26  N   UNL     1      26.758  45.785  52.878  1.00  0.00    -0.286 NA
HETATM   27  H   UNL     1      26.812  45.957  53.883  1.00  0.00     0.125 HD
HETATM   28  H   UNL     1      25.960  46.324  52.529  1.00  0.00     0.125 HD
ENDBRANCH  13  26
BRANCH   1  29
HETATM   29  N   UNL     1      28.176  43.844  54.331  1.00  0.00    -0.176 NA
HETATM   30  C   UNL     1      29.412  44.234  54.339  1.00  0.00     0.153 C 
BRANCH  30  31
HETATM   31  C   UNL     1      30.152  44.348  55.619  1.00  0.00     0.016 A 
HETATM   32  C   UNL     1      31.071  43.345  55.945  1.00  0.00     0.016 A 
HETATM   33  C   UNL     1      31.714  43.371  57.187  1.00  0.00     0.001 A 
HETATM   34  C   UNL     1      31.439  44.390  58.100  1.00  0.00     0.003 A 
HETATM   35  C   UNL     1      30.524  45.391  57.777  1.00  0.00     0.037 A 
HETATM   36  C   UNL     1      29.882  45.367  56.542  1.00  0.00     0.077 A 
BRANCH  36  37
HETATM   37  O   UNL     1      28.967  46.358  56.308  1.00  0.00    -0.360 OA
HETATM   38  H   UNL     1      29.485  47.185  56.203  1.00  0.00     0.217 HD
ENDBRANCH  36  37
ENDBRANCH  30  31
ENDBRANCH   1  29
TORSDOF 8
ENDMDL
MODEL 5
REMARK VINA RESULT:      -9.6      2.284      8.172
REMARK  8 active torsions:
REMARK  status: ('A' for Active; 'I' for Inactive)
REMARK    1  A    between atoms: C_3  and  C_4 
REMARK    2  A    between atoms: N_5  and  N_6 
REMARK    3  A    between atoms: C_17  and  C_18 
REMARK       I    between atoms: C_18  and  N_19 
REMARK    4  A    between atoms: N_19  and  C_20 
REMARK    5  A    between atoms: C_20  and  C_21 
REMARK    6  A    between atoms: C_21  and  C_22 
REMARK    7  A    between atoms: C_29  and  N_30 
REMARK    8  A    between atoms: C_31  and  O_32 
ROOT
HETATM    1  N   UNL     1      24.816  45.861  50.476  1.00  0.00    -0.202 N 
HETATM    2  C   UNL     1      25.555  45.932  51.643  1.00  0.00     0.183 A 
HETATM    3  C   UNL     1      26.036  44.649  51.892  1.00  0.00     0.124 A 
HETATM    4  N   UNL     1      26.732  44.377  53.026  1.00  0.00    -0.242 NA
HETATM    5  C   UNL     1      26.981  45.437  53.811  1.00  0.00     0.086 A 
HETATM    6  C   UNL     1      26.506  46.741  53.513  1.00  0.00     0.088 A 
HETATM    7  N   UNL     1      25.751  47.012  52.435  1.00  0.00    -0.225 NA
HETATM    8  C   UNL     1      27.752  45.250  54.953  1.00  0.00     0.034 A 
HETATM    9  C   UNL     1      28.078  46.313  55.799  1.00  0.00     0.002 A 
HETATM   10  C   UNL     1      27.621  47.588  55.502  1.00  0.00     0.002 A 
HETATM   11  C   UNL     1      26.836  47.788  54.365  1.00  0.00     0.034 A 
HETATM   12  C   UNL     1      25.649  43.809  50.806  1.00  0.00     0.099 C 
HETATM   13  C   UNL     1      25.165  44.677  49.832  1.00  0.00     0.122 C 
ENDROOT
BRANCH  12  14
HETATM   14  C   UNL     1      25.685  42.347  50.747  1.00  0.00     0.236 C 
HETATM   15  N   UNL     1      26.596  41.742  51.609  1.00  0.00    -0.258 NA
HETATM   16  H   UNL     1      26.710  42.320  52.430  1.00  0.00     0.130 HD
HETATM   17  O   UNL     1      25.035  41.689  49.943  1.00  0.00    -0.274 OA
BRANCH  15  18
HETATM   18  C   UNL     1      27.943  41.506  51.100  1.00  0.00     0.099 C 
BRANCH  18  19
HETATM   19  C   UNL     1      28.392  40.049  50.979  1.00  0.00     0.048 C 
BRANCH  19  20
HETATM   20  C   UNL     1      28.348  39.617  49.526  1.00  0.00    -0.083 C 
HETATM   21  C   UNL     1      28.553  38.149  49.231  1.00  0.00     0.034 C 
HETATM   22  C   UNL     1      28.842  37.853  47.755  1.00  0.00     0.005 C 
HETATM   23  C   UNL     1      27.951  38.678  46.830  1.00  0.00     0.004 C 
HETATM   24  C   UNL     1      28.130  40.173  47.084  1.00  0.00     0.027 C 
HETATM   25  C   UNL     1      28.164  40.519  48.543  1.00  0.00    -0.024 C 
ENDBRANCH  19  20
ENDBRANCH  18  19
ENDBRANCH  15  18
ENDBRANCH  12  14
BRANCH  13  26
HETATM   26  N   UNL     1      24.870  44.494  48.505  1.00  0.00    -0.286 NA
HETATM   27  H   UNL     1      24.530  43.568  48.243  1.00  0.00     0.125 HD
HETATM   28  H   UNL     1      25.638  44.719  47.865  1.00  0.00     0.125 HD
ENDBRANCH  13  26
BRANCH   1  29
HETATM   29  N   UNL     1      23.844  46.680  49.940  1.00  0.00    -0.176 NA
HETATM   30  C   UNL     1      24.255  47.771  49.377  1.00  0.00     0.153 C 
BRANCH  30  31
HETATM   31  C   UNL     1      23.284  48.816  48.972  1.00  0.00     0.016 A 
HETATM   32  C   UNL     1      23.759  50.112  48.747  1.00  0.00     0.016 A 
HETATM   33  C   UNL     1      22.858  51.141  48.458  1.00  0.00     0.001 A 
HETATM   34  C   UNL     1      21.487  50.879  48.398  1.00  0.00     0.003 A 
HETATM   35  C   UNL     1      21.012  49.588  48.621  1.00  0.00     0.037 A 
HETATM   36  C   UNL     1      21.907  48.562  48.910  1.00  0.00     0.077 A 
BRANCH  36  37
HETATM   37  O   UNL     1      21.367  47.329  49.157  1.00  0.00    -0.360 OA
HETATM   38  H   UNL     1      22.094  46.683  49.025  1.00  0.00     0.217 HD
ENDBRANCH  36  37
ENDBRANCH  30  31
ENDBRANCH   1  29
TORSDOF 8
ENDMDL
MODEL 6
REMARK VINA RESULT:      -9.6      2.094      6.096
REMARK  8 active torsions:
REMARK  status: ('A' for Active; 'I' for Inactive)
REMARK    1  A    between atoms: C_3  and  C_4 
REMARK    2  A    between atoms: N_5  and  N_6 
REMARK    3  A    between atoms: C_17  and  C_18 
REMARK       I    between atoms: C_18  and  N_19 
REMARK    4  A    between atoms: N_19  and  C_20 
REMARK    5  A    between atoms: C_20  and  C_21 
REMARK    6  A    between atoms: C_21  and  C_22 
REMARK    7  A    between atoms: C_29  and  N_30 
REMARK    8  A    between atoms: C_31  and  O_32 
ROOT
HETATM    1  N   UNL     1      27.046  42.838  52.116  1.00  0.00    -0.202 N 
HETATM    2  C   UNL     1      27.273  41.695  51.373  1.00  0.00     0.183 A 
HETATM    3  C   UNL     1      26.171  41.533  50.536  1.00  0.00     0.124 A 
HETATM    4  N   UNL     1      26.060  40.440  49.738  1.00  0.00    -0.242 NA
HETATM    5  C   UNL     1      27.112  39.606  49.762  1.00  0.00     0.086 A 
HETATM    6  C   UNL     1      28.238  39.815  50.601  1.00  0.00     0.088 A 
HETATM    7  N   UNL     1      28.329  40.851  51.452  1.00  0.00    -0.225 NA
HETATM    8  C   UNL     1      27.103  38.503  48.916  1.00  0.00     0.034 A 
HETATM    9  C   UNL     1      28.177  37.611  48.864  1.00  0.00     0.002 A 
HETATM   10  C   UNL     1      29.280  37.821  49.677  1.00  0.00     0.002 A 
HETATM   11  C   UNL     1      29.298  38.918  50.541  1.00  0.00     0.034 A 
HETATM   12  C   UNL     1      25.304  42.651  50.721  1.00  0.00     0.099 C 
HETATM   13  C   UNL     1      26.040  43.558  51.477  1.00  0.00     0.122 C 
ENDROOT
BRANCH  12  14
HETATM   14  C   UNL     1      23.918  42.791  50.275  1.00  0.00     0.236 C 
HETATM   15  N   UNL     1      23.710  42.591  48.913  1.00  0.00    -0.258 NA
HETATM   16  H   UNL     1      24.397  41.936  48.565  1.00  0.00     0.130 HD
HETATM   17  O   UNL     1      23.005  43.146  51.013  1.00  0.00    -0.274 OA
BRANCH  15  18
HETATM   18  C   UNL     1      23.803  43.760  48.044  1.00  0.00     0.099 C 
BRANCH  18  19
HETATM   19  C   UNL     1      22.525  44.576  47.844  1.00  0.00     0.048 C 
BRANCH  19  20
HETATM   20  C   UNL     1      22.746  46.001  48.316  1.00  0.00    -0.083 C 
HETATM   21  C   UNL     1      21.915  47.084  47.669  1.00  0.00     0.034 C 
HETATM   22  C   UNL     1      22.434  48.501  47.938  1.00  0.00     0.005 C 
HETATM   23  C   UNL     1      22.877  48.672  49.388  1.00  0.00     0.004 C 
HETATM   24  C   UNL     1      23.963  47.664  49.755  1.00  0.00     0.027 C 
HETATM   25  C   UNL     1      23.671  46.282  49.253  1.00  0.00    -0.024 C 
ENDBRANCH  19  20
ENDBRANCH  18  19
ENDBRANCH  15  18
ENDBRANCH  12  14
BRANCH  13  26
HETATM   26  N   UNL     1      25.839  44.883  51.771  1.00  0.00    -0.286 NA
HETATM   27  H   UNL     1      26.361  45.554  51.206  1.00  0.00     0.125 HD
HETATM   28  H   UNL     1      26.005  45.129  52.752  1.00  0.00     0.125 HD
ENDBRANCH  13  26
BRANCH   1  29
HETATM   29  N   UNL     1      27.576  43.295  53.305  1.00  0.00    -0.176 NA
HETATM   30  C   UNL     1      28.775  43.783  53.252  1.00  0.00     0.153 C 
BRANCH  30  31
HETATM   31  C   UNL     1      29.512  44.092  54.501  1.00  0.00     0.016 A 
HETATM   32  C   UNL     1      30.481  43.185  54.941  1.00  0.00     0.016 A 
HETATM   33  C   UNL     1      31.126  43.397  56.164  1.00  0.00     0.001 A 
HETATM   34  C   UNL     1      30.803  44.508  56.946  1.00  0.00     0.003 A 
HETATM   35  C   UNL     1      29.838  45.414  56.509  1.00  0.00     0.037 A 
HETATM   36  C   UNL     1      29.194  45.204  55.292  1.00  0.00     0.077 A 
BRANCH  36  37
HETATM   37  O   UNL     1      28.230  46.112  54.945  1.00  0.00    -0.360 OA
HETATM   38  H   UNL     1      27.513  45.596  54.516  1.00  0.00     0.217 HD
ENDBRANCH  36  37
ENDBRANCH  30  31
ENDBRANCH   1  29
TORSDOF 8
ENDMDL
MODEL 7
REMARK VINA RESULT:      -9.4      3.543      6.954
REMARK  8 active torsions:
REMARK  status: ('A' for Active; 'I' for Inactive)
REMARK    1  A    between atoms: C_3  and  C_4 
REMARK    2  A    between atoms: N_5  and  N_6 
REMARK    3  A    between atoms: C_17  and  C_18 
REMARK       I    between atoms: C_18  and  N_19 
REMARK    4  A    between atoms: N_19  and  C_20 
REMARK    5  A    between atoms: C_20  and  C_21 
REMARK    6  A    between atoms: C_21  and  C_22 
REMARK    7  A    between atoms: C_29  and  N_30 
REMARK    8  A    between atoms: C_31  and  O_32 
ROOT
HETATM    1  N   UNL     1      26.407  45.000  49.939  1.00  0.00    -0.202 N 
HETATM    2  C   UNL     1      25.498  44.183  49.292  1.00  0.00     0.183 A 
HETATM    3  C   UNL     1      24.367  44.958  49.046  1.00  0.00     0.124 A 
HETATM    4  N   UNL     1      23.255  44.406  48.495  1.00  0.00    -0.242 NA
HETATM    5  C   UNL     1      23.373  43.117  48.140  1.00  0.00     0.086 A 
HETATM    6  C   UNL     1      24.552  42.362  48.373  1.00  0.00     0.088 A 
HETATM    7  N   UNL     1      25.634  42.872  48.986  1.00  0.00    -0.225 NA
HETATM    8  C   UNL     1      22.301  42.503  47.502  1.00  0.00     0.034 A 
HETATM    9  C   UNL     1      22.365  41.175  47.075  1.00  0.00     0.002 A 
HETATM   10  C   UNL     1      23.520  40.441  47.295  1.00  0.00     0.002 A 
HETATM   11  C   UNL     1      24.601  41.040  47.945  1.00  0.00     0.034 A 
HETATM   12  C   UNL     1      24.636  46.291  49.477  1.00  0.00     0.099 C 
HETATM   13  C   UNL     1      26.003  46.317  49.736  1.00  0.00     0.122 C 
ENDROOT
BRANCH  12  14
HETATM   14  C   UNL     1      23.678  47.379  49.673  1.00  0.00     0.236 C 
HETATM   15  N   UNL     1      22.412  47.157  49.139  1.00  0.00    -0.258 NA
HETATM   16  H   UNL     1      22.216  46.166  49.150  1.00  0.00     0.130 HD
HETATM   17  O   UNL     1      23.973  48.451  50.190  1.00  0.00    -0.274 OA
BRANCH  15  18
HETATM   18  C   UNL     1      22.182  47.592  47.764  1.00  0.00     0.099 C 
BRANCH  18  19
HETATM   19  C   UNL     1      20.742  47.931  47.378  1.00  0.00     0.048 C 
BRANCH  19  20
HETATM   20  C   UNL     1      20.281  49.159  48.140  1.00  0.00    -0.083 C 
HETATM   21  C   UNL     1      19.221  48.963  49.198  1.00  0.00     0.034 C 
HETATM   22  C   UNL     1      18.569  50.270  49.665  1.00  0.00     0.005 C 
HETATM   23  C   UNL     1      19.600  51.380  49.845  1.00  0.00     0.004 C 
HETATM   24  C   UNL     1      20.363  51.638  48.547  1.00  0.00     0.027 C 
HETATM   25  C   UNL     1      20.783  50.376  47.855  1.00  0.00    -0.024 C 
ENDBRANCH  19  20
ENDBRANCH  18  19
ENDBRANCH  15  18
ENDBRANCH  12  14
BRANCH  13  26
HETATM   26  N   UNL     1      26.876  47.353  49.951  1.00  0.00    -0.286 NA
HETATM   27  H   UNL     1      27.661  47.423  49.302  1.00  0.00     0.125 HD
HETATM   28  H   UNL     1      27.269  47.386  50.896  1.00  0.00     0.125 HD
ENDBRANCH  13  26
BRANCH   1  29
HETATM   29  N   UNL     1      27.510  44.727  50.720  1.00  0.00    -0.176 NA
HETATM   30  C   UNL     1      27.302  44.018  51.784  1.00  0.00     0.153 C 
BRANCH  30  31
HETATM   31  C   UNL     1      28.372  43.860  52.798  1.00  0.00     0.016 A 
HETATM   32  C   UNL     1      29.390  42.932  52.550  1.00  0.00     0.016 A 
HETATM   33  C   UNL     1      30.360  42.688  53.526  1.00  0.00     0.001 A 
HETATM   34  C   UNL     1      30.315  43.364  54.747  1.00  0.00     0.003 A 
HETATM   35  C   UNL     1      29.303  44.290  54.997  1.00  0.00     0.037 A 
HETATM   36  C   UNL     1      28.335  44.534  54.026  1.00  0.00     0.077 A 
BRANCH  36  37
HETATM   37  O   UNL     1      27.349  45.425  54.355  1.00  0.00    -0.360 OA
HETATM   38  H   UNL     1      27.772  46.096  54.933  1.00  0.00     0.217 HD
ENDBRANCH  36  37
ENDBRANCH  30  31
ENDBRANCH   1  29
TORSDOF 8
ENDMDL
MODEL 8
REMARK VINA RESULT:      -9.3      2.977      8.070
REMARK  8 active torsions:
REMARK  status: ('A' for Active; 'I' for Inactive)
REMARK    1  A    between atoms: C_3  and  C_4 
REMARK    2  A    between atoms: N_5  and  N_6 
REMARK    3  A    between atoms: C_17  and  C_18 
REMARK       I    between atoms: C_18  and  N_19 
REMARK    4  A    between atoms: N_19  and  C_20 
REMARK    5  A    between atoms: C_20  and  C_21 
REMARK    6  A    between atoms: C_21  and  C_22 
REMARK    7  A    between atoms: C_29  and  N_30 
REMARK    8  A    between atoms: C_31  and  O_32 
ROOT
HETATM    1  N   UNL     1      24.576  46.366  49.902  1.00  0.00    -0.202 N 
HETATM    2  C   UNL     1      25.232  46.266  51.115  1.00  0.00     0.183 A 
HETATM    3  C   UNL     1      25.177  44.927  51.493  1.00  0.00     0.124 A 
HETATM    4  N   UNL     1      25.665  44.525  52.695  1.00  0.00    -0.242 NA
HETATM    5  C   UNL     1      26.262  45.484  53.419  1.00  0.00     0.086 A 
HETATM    6  C   UNL     1      26.333  46.836  52.992  1.00  0.00     0.088 A 
HETATM    7  N   UNL     1      25.788  47.265  51.841  1.00  0.00    -0.225 NA
HETATM    8  C   UNL     1      26.851  45.133  54.629  1.00  0.00     0.034 A 
HETATM    9  C   UNL     1      27.518  46.071  55.419  1.00  0.00     0.002 A 
HETATM   10  C   UNL     1      27.594  47.390  54.997  1.00  0.00     0.002 A 
HETATM   11  C   UNL     1      26.997  47.760  53.790  1.00  0.00     0.034 A 
HETATM   12  C   UNL     1      24.550  44.193  50.442  1.00  0.00     0.099 C 
HETATM   13  C   UNL     1      24.478  45.081  49.374  1.00  0.00     0.122 C 
ENDROOT
BRANCH  12  14
HETATM   14  C   UNL     1      24.030  42.827  50.492  1.00  0.00     0.236 C 
HETATM   15  N   UNL     1      24.861  41.898  51.114  1.00  0.00    -0.258 NA
HETATM   16  H   UNL     1      25.409  42.366  51.823  1.00  0.00     0.130 HD
HETATM   17  O   UNL     1      22.983  42.484  49.954  1.00  0.00    -0.274 OA
BRANCH  15  18
HETATM   18  C   UNL     1      25.822  41.193  50.271  1.00  0.00     0.099 C 
BRANCH  18  19
HETATM   19  C   UNL     1      27.128  41.922  49.951  1.00  0.00     0.048 C 
BRANCH  19  20
HETATM   20  C   UNL     1      27.945  42.091  51.218  1.00  0.00    -0.083 C 
HETATM   21  C   UNL     1      28.014  40.916  52.164  1.00  0.00     0.034 C 
HETATM   22  C   UNL     1      28.551  41.275  53.554  1.00  0.00     0.005 C 
HETATM   23  C   UNL     1      29.740  42.228  53.469  1.00  0.00     0.004 C 
HETATM   24  C   UNL     1      29.363  43.512  52.731  1.00  0.00     0.027 C 
HETATM   25  C   UNL     1      28.557  43.259  51.493  1.00  0.00    -0.024 C 
ENDBRANCH  19  20
ENDBRANCH  18  19
ENDBRANCH  15  18
ENDBRANCH  12  14
BRANCH  13  26
HETATM   26  N   UNL     1      24.197  44.896  48.044  1.00  0.00    -0.286 NA
HETATM   27  H   UNL     1      24.694  45.502  47.391  1.00  0.00     0.125 HD
HETATM   28  H   UNL     1      23.202  44.960  47.809  1.00  0.00     0.125 HD
ENDBRANCH  13  26
BRANCH   1  29
HETATM   29  N   UNL     1      24.014  47.434  49.234  1.00  0.00    -0.176 NA
HETATM   30  C   UNL     1      23.230  48.199  49.926  1.00  0.00     0.153 C 
BRANCH  30  31
HETATM   31  C   UNL     1      22.409  49.234  49.252  1.00  0.00     0.016 A 
HETATM   32  C   UNL     1      23.059  50.352  48.718  1.00  0.00     0.016 A 
HETATM   33  C   UNL     1      22.307  51.391  48.162  1.00  0.00     0.001 A 
HETATM   34  C   UNL     1      20.912  51.317  48.140  1.00  0.00     0.003 A 
HETATM   35  C   UNL     1      20.263  50.203  48.670  1.00  0.00     0.037 A 
HETATM   36  C   UNL     1      21.010  49.167  49.225  1.00  0.00     0.077 A 
BRANCH  36  37
HETATM   37  O   UNL     1      20.305  48.123  49.762  1.00  0.00    -0.360 OA
HETATM   38  H   UNL     1      20.850  47.781  50.503  1.00  0.00     0.217 HD
ENDBRANCH  36  37
ENDBRANCH  30  31
ENDBRANCH   1  29
TORSDOF 8
ENDMDL
MODEL 9
REMARK VINA RESULT:      -9.2      5.275      9.992
REMARK  8 active torsions:
REMARK  status: ('A' for Active; 'I' for Inactive)
REMARK    1  A    between atoms: C_3  and  C_4 
REMARK    2  A    between atoms: N_5  and  N_6 
REMARK    3  A    between atoms: C_17  and  C_18 
REMARK       I    between atoms: C_18  and  N_19 
REMARK    4  A    between atoms: N_19  and  C_20 
REMARK    5  A    between atoms: C_20  and  C_21 
REMARK    6  A    between atoms: C_21  and  C_22 
REMARK    7  A    between atoms: C_29  and  N_30 
REMARK    8  A    between atoms: C_31  and  O_32 
ROOT
HETATM    1  N   UNL     1      22.351  47.454  48.362  1.00  0.00    -0.202 N 
HETATM    2  C   UNL     1      23.242  46.847  49.228  1.00  0.00     0.183 A 
HETATM    3  C   UNL     1      23.153  45.476  49.001  1.00  0.00     0.124 A 
HETATM    4  N   UNL     1      23.852  44.599  49.768  1.00  0.00    -0.242 NA
HETATM    5  C   UNL     1      24.673  45.158  50.670  1.00  0.00     0.086 A 
HETATM    6  C   UNL     1      24.768  46.562  50.855  1.00  0.00     0.088 A 
HETATM    7  N   UNL     1      24.028  47.440  50.158  1.00  0.00    -0.225 NA
HETATM    8  C   UNL     1      25.476  44.326  51.442  1.00  0.00     0.034 A 
HETATM    9  C   UNL     1      26.378  44.838  52.377  1.00  0.00     0.002 A 
HETATM   10  C   UNL     1      26.477  46.210  52.550  1.00  0.00     0.002 A 
HETATM   11  C   UNL     1      25.668  47.058  51.792  1.00  0.00     0.034 A 
HETATM   12  C   UNL     1      22.252  45.261  47.916  1.00  0.00     0.099 C 
HETATM   13  C   UNL     1      22.029  46.524  47.376  1.00  0.00     0.122 C 
ENDROOT
BRANCH  12  14
HETATM   14  C   UNL     1      21.637  44.001  47.499  1.00  0.00     0.236 C 
HETATM   15  N   UNL     1      20.629  44.119  46.546  1.00  0.00    -0.258 NA
HETATM   16  H   UNL     1      20.814  44.926  45.966  1.00  0.00     0.130 HD
HETATM   17  O   UNL     1      21.913  42.918  48.004  1.00  0.00    -0.274 OA
BRANCH  15  18
HETATM   18  C   UNL     1      19.264  44.287  47.035  1.00  0.00     0.099 C 
BRANCH  18  19
HETATM   19  C   UNL     1      18.290  45.036  46.124  1.00  0.00     0.048 C 
BRANCH  19  20
HETATM   20  C   UNL     1      17.728  46.242  46.853  1.00  0.00    -0.083 C 
HETATM   21  C   UNL     1      17.646  47.541  46.087  1.00  0.00     0.034 C 
HETATM   22  C   UNL     1      17.406  48.766  46.977  1.00  0.00     0.005 C 
HETATM   23  C   UNL     1      16.373  48.479  48.063  1.00  0.00     0.004 C 
HETATM   24  C   UNL     1      16.806  47.303  48.937  1.00  0.00     0.027 C 
HETATM   25  C   UNL     1      17.349  46.153  48.142  1.00  0.00    -0.024 C 
ENDBRANCH  19  20
ENDBRANCH  18  19
ENDBRANCH  15  18
ENDBRANCH  12  14
BRANCH  13  26
HETATM   26  N   UNL     1      21.452  46.930  46.200  1.00  0.00    -0.286 NA
HETATM   27  H   UNL     1      21.072  46.191  45.607  1.00  0.00     0.125 HD
HETATM   28  H   UNL     1      22.058  47.504  45.606  1.00  0.00     0.125 HD
ENDBRANCH  13  26
BRANCH   1  29
HETATM   29  N   UNL     1      21.754  48.697  48.362  1.00  0.00    -0.176 NA
HETATM   30  C   UNL     1      20.795  48.876  49.215  1.00  0.00     0.153 C 
BRANCH  30  31
HETATM   31  C   UNL     1      19.948  50.091  49.143  1.00  0.00     0.016 A 
HETATM   32  C   UNL     1      20.250  51.054  48.175  1.00  0.00     0.016 A 
HETATM   33  C   UNL     1      19.534  52.254  48.142  1.00  0.00     0.001 A 
HETATM   34  C   UNL     1      18.522  52.495  49.075  1.00  0.00     0.003 A 
HETATM   35  C   UNL     1      18.219  51.536  50.040  1.00  0.00     0.037 A 
HETATM   36  C   UNL     1      18.932  50.341  50.075  1.00  0.00     0.077 A 
BRANCH  36  37
HETATM   37  O   UNL     1      18.607  49.463  51.074  1.00  0.00    -0.360 OA
HETATM   38  H   UNL     1      19.215  48.699  50.972  1.00  0.00     0.217 HD
ENDBRANCH  36  37
ENDBRANCH  30  31
ENDBRANCH   1  29
TORSDOF 8
ENDMDL
MODEL 10
REMARK VINA RESULT:      -9.1      2.320      7.653
REMARK  8 active torsions:
REMARK  status: ('A' for Active; 'I' for Inactive)
REMARK    1  A    between atoms: C_3  and  C_4 
REMARK    2  A    between atoms: N_5  and  N_6 
REMARK    3  A    between atoms: C_17  and  C_18 
REMARK       I    between atoms: C_18  and  N_19 
REMARK    4  A    between atoms: N_19  and  C_20 
REMARK    5  A    between atoms: C_20  and  C_21 
REMARK    6  A    between atoms: C_21  and  C_22 
REMARK    7  A    between atoms: C_29  and  N_30 
REMARK    8  A    between atoms: C_31  and  O_32 
ROOT
HETATM    1  N   UNL     1      25.032  45.281  51.180  1.00  0.00    -0.202 N 
HETATM    2  C   UNL     1      24.413  46.244  50.403  1.00  0.00     0.183 A 
HETATM    3  C   UNL     1      23.519  45.575  49.571  1.00  0.00     0.124 A 
HETATM    4  N   UNL     1      22.819  46.248  48.622  1.00  0.00    -0.242 NA
HETATM    5  C   UNL     1      22.993  47.579  48.620  1.00  0.00     0.086 A 
HETATM    6  C   UNL     1      23.887  48.237  49.505  1.00  0.00     0.088 A 
HETATM    7  N   UNL     1      24.644  47.578  50.398  1.00  0.00    -0.225 NA
HETATM    8  C   UNL     1      22.252  48.344  47.726  1.00  0.00     0.034 A 
HETATM    9  C   UNL     1      22.357  49.736  47.690  1.00  0.00     0.002 A 
HETATM   10  C   UNL     1      23.224  50.379  48.561  1.00  0.00     0.002 A 
HETATM   11  C   UNL     1      23.983  49.623  49.456  1.00  0.00     0.034 A 
HETATM   12  C   UNL     1      23.540  44.191  49.915  1.00  0.00     0.099 C 
HETATM   13  C   UNL     1      24.260  44.125  51.104  1.00  0.00     0.122 C 
ENDROOT
BRANCH  12  14
HETATM   14  C   UNL     1      22.986  43.071  49.154  1.00  0.00     0.236 C 
HETATM   15  N   UNL     1      23.685  41.872  49.270  1.00  0.00    -0.258 NA
HETATM   16  H   UNL     1      24.124  41.830  50.179  1.00  0.00     0.130 HD
HETATM   17  O   UNL     1      22.030  43.180  48.395  1.00  0.00    -0.274 OA
BRANCH  15  18
HETATM   18  C   UNL     1      24.750  41.624  48.303  1.00  0.00     0.099 C 
BRANCH  18  19
HETATM   19  C   UNL     1      26.114  42.250  48.601  1.00  0.00     0.048 C 
BRANCH  19  20
HETATM   20  C   UNL     1      27.096  41.170  49.013  1.00  0.00    -0.083 C 
HETATM   21  C   UNL     1      27.118  40.770  50.470  1.00  0.00     0.034 C 
HETATM   22  C   UNL     1      28.351  39.948  50.863  1.00  0.00     0.005 C 
HETATM   23  C   UNL     1      28.694  38.906  49.803  1.00  0.00     0.004 C 
HETATM   24  C   UNL     1      28.943  39.562  48.447  1.00  0.00     0.027 C 
HETATM   25  C   UNL     1      27.931  40.618  48.113  1.00  0.00    -0.024 C 
ENDBRANCH  19  20
ENDBRANCH  18  19
ENDBRANCH  15  18
ENDBRANCH  12  14
BRANCH  13  26
HETATM   26  N   UNL     1      24.418  43.122  52.026  1.00  0.00    -0.286 NA
HETATM   27  H   UNL     1      24.737  43.409  52.953  1.00  0.00     0.125 HD
HETATM   28  H   UNL     1      25.033  42.361  51.724  1.00  0.00     0.125 HD
ENDBRANCH  13  26
BRANCH   1  29
HETATM   29  N   UNL     1      26.208  45.283  51.900  1.00  0.00    -0.176 NA
HETATM   30  C   UNL     1      26.925  44.205  51.835  1.00  0.00     0.153 C 
BRANCH  30  31
HETATM   31  C   UNL     1      28.086  44.024  52.740  1.00  0.00     0.016 A 
HETATM   32  C   UNL     1      29.146  43.220  52.308  1.00  0.00     0.016 A 
HETATM   33  C   UNL     1      30.210  42.950  53.173  1.00  0.00     0.001 A 
HETATM   34  C   UNL     1      30.215  43.477  54.467  1.00  0.00     0.003 A 
HETATM   35  C   UNL     1      29.160  44.279  54.900  1.00  0.00     0.037 A 
HETATM   36  C   UNL     1      28.099  44.548  54.040  1.00  0.00     0.077 A 
BRANCH  36  37
HETATM   37  O   UNL     1      27.080  45.310  54.545  1.00  0.00    -0.360 OA
HETATM   38  H   UNL     1      26.674  44.777  55.263  1.00  0.00     0.217 HD
ENDBRANCH  36  37
ENDBRANCH  30  31
ENDBRANCH   1  29
TORSDOF 8
ENDMDL
