MODEL 1
REMARK VINA RESULT:      -9.5      0.000      0.000
REMARK  5 active torsions:
REMARK  status: ('A' for Active; 'I' for Inactive)
REMARK    1  A    between atoms: C_9  and  C_10 
REMARK       I    between atoms: C_10  and  N_11 
REMARK    2  A    between atoms: N_11  and  C_12 
REMARK    3  A    between atoms: C_12  and  C_13 
REMARK    4  A    between atoms: C_13  and  N_14 
REMARK       I    between atoms: N_14  and  C_15 
REMARK    5  A    between atoms: C_15  and  C_16 
ROOT
HETATM    1  C   UNL     1      25.241  45.798  52.531  1.00  0.00     0.272 C 
HETATM    2  N   UNL     1      25.137  46.702  51.495  1.00  0.00    -0.354 N 
HETATM    3  O   UNL     1      24.670  44.710  52.528  1.00  0.00    -0.266 OA
HETATM    4  H   UNL     1      25.611  47.591  51.636  1.00  0.00     0.162 HD
ENDROOT
BRANCH   2   5
HETATM    5  C   UNL     1      24.307  46.477  50.335  1.00  0.00     0.142 C 
BRANCH   5   6
HETATM    6  C   UNL     1      24.192  47.718  49.441  1.00  0.00     0.142 C 
BRANCH   6   7
HETATM    7  N   UNL     1      22.964  48.456  49.667  1.00  0.00    -0.355 N 
HETATM    8  C   UNL     1      22.407  49.240  48.679  1.00  0.00     0.251 C 
HETATM    9  O   UNL     1      22.904  49.348  47.563  1.00  0.00    -0.268 OA
HETATM   10  H   UNL     1      22.442  48.234  50.503  1.00  0.00     0.162 HD
BRANCH   8  11
HETATM   11  C   UNL     1      21.133  49.950  49.003  1.00  0.00     0.032 A 
HETATM   12  C   UNL     1      20.147  49.402  49.836  1.00  0.00     0.018 A 
HETATM   13  C   UNL     1      18.978  50.123  50.111  1.00  0.00     0.025 A 
HETATM   14  C   UNL     1      18.796  51.392  49.564  1.00  0.00     0.034 A 
HETATM   15 CL   UNL     1      17.360  52.274  49.912  1.00  0.00    -0.084 Cl
HETATM   16  C   UNL     1      19.774  51.952  48.747  1.00  0.00     0.025 A 
HETATM   17  C   UNL     1      20.939  51.233  48.468  1.00  0.00     0.018 A 
ENDBRANCH   8  11
ENDBRANCH   6   7
ENDBRANCH   5   6
ENDBRANCH   2   5
BRANCH   1  18
HETATM   18  C   UNL     1      26.081  46.278  53.639  1.00  0.00     0.157 A 
HETATM   19  C   UNL     1      27.266  45.672  54.154  1.00  0.00     0.029 A 
HETATM   20  C   UNL     1      28.029  44.523  53.865  1.00  0.00     0.023 A 
HETATM   21  C   UNL     1      27.673  46.501  55.193  1.00  0.00     0.063 A 
HETATM   22  C   UNL     1      29.177  44.244  54.625  1.00  0.00    -0.061 A 
HETATM   23  C   UNL     1      30.002  43.023  54.336  1.00  0.00     0.048 C 
HETATM   24  C   UNL     1      29.552  45.107  55.663  1.00  0.00     0.009 A 
HETATM   25  C   UNL     1      28.809  46.253  55.968  1.00  0.00     0.032 A 
HETATM   26  N   UNL     1      26.750  47.508  55.234  1.00  0.00    -0.277 N 
HETATM   27  H   UNL     1      26.732  48.297  55.870  1.00  0.00     0.189 HD
HETATM   28  N   UNL     1      25.772  47.407  54.318  1.00  0.00    -0.168 NA
ENDBRANCH   1  18
TORSDOF 5
ENDMDL
MODEL 2
REMARK VINA RESULT:      -9.3      4.299      9.852
REMARK  5 active torsions:
REMARK  status: ('A' for Active; 'I' for Inactive)
REMARK    1  A    between atoms: C_9  and  C_10 
REMARK       I    between atoms: C_10  and  N_11 
REMARK    2  A    between atoms: N_11  and  C_12 
REMARK    3  A    between atoms: C_12  and  C_13 
REMARK    4  A    between atoms: C_13  and  N_14 
REMARK       I    between atoms: N_14  and  C_15 
REMARK    5  A    between atoms: C_15  and  C_16 
ROOT
HETATM    1  C   UNL     1      25.916  46.914  50.641  1.00  0.00     0.272 C 
HETATM    2  N   UNL     1      25.817  45.698  49.999  1.00  0.00    -0.354 N 
HETATM    3  O   UNL     1      26.075  47.018  51.854  1.00  0.00    -0.266 OA
HETATM    4  H   UNL     1      25.631  45.739  49.000  1.00  0.00     0.162 HD
ENDROOT
BRANCH   2   5
HETATM    5  C   UNL     1      25.839  44.435  50.699  1.00  0.00     0.142 C 
BRANCH   5   6
HETATM    6  C   UNL     1      27.261  43.904  50.913  1.00  0.00     0.142 C 
BRANCH   6   7
HETATM    7  N   UNL     1      27.809  44.280  52.203  1.00  0.00    -0.355 N 
HETATM    8  C   UNL     1      28.786  43.523  52.815  1.00  0.00     0.251 C 
HETATM    9  O   UNL     1      29.251  42.508  52.307  1.00  0.00    -0.268 OA
HETATM   10  H   UNL     1      27.582  45.202  52.548  1.00  0.00     0.162 HD
BRANCH   8  11
HETATM   11  C   UNL     1      29.297  44.000  54.135  1.00  0.00     0.032 A 
HETATM   12  C   UNL     1      28.755  45.105  54.807  1.00  0.00     0.018 A 
HETATM   13  C   UNL     1      29.271  45.497  56.049  1.00  0.00     0.025 A 
HETATM   14  C   UNL     1      30.319  44.782  56.626  1.00  0.00     0.034 A 
HETATM   15 CL   UNL     1      30.944  45.265  58.154  1.00  0.00    -0.084 Cl
HETATM   16  C   UNL     1      30.857  43.675  55.975  1.00  0.00     0.025 A 
HETATM   17  C   UNL     1      30.346  43.285  54.734  1.00  0.00     0.018 A 
ENDBRANCH   8  11
ENDBRANCH   6   7
ENDBRANCH   5   6
ENDBRANCH   2   5
BRANCH   1  18
HETATM   18  C   UNL     1      25.789  48.063  49.730  1.00  0.00     0.157 A 
HETATM   19  C   UNL     1      24.586  48.654  49.241  1.00  0.00     0.029 A 
HETATM   20  C   UNL     1      23.204  48.425  49.398  1.00  0.00     0.023 A 
HETATM   21  C   UNL     1      25.003  49.692  48.417  1.00  0.00     0.063 A 
HETATM   22  C   UNL     1      22.285  49.247  48.723  1.00  0.00    -0.061 A 
HETATM   23  C   UNL     1      20.809  49.019  48.872  1.00  0.00     0.048 C 
HETATM   24  C   UNL     1      22.749  50.283  47.903  1.00  0.00     0.009 A 
HETATM   25  C   UNL     1      24.117  50.528  47.733  1.00  0.00     0.032 A 
HETATM   26  N   UNL     1      26.369  49.662  48.462  1.00  0.00    -0.277 N 
HETATM   27  H   UNL     1      27.012  50.280  47.979  1.00  0.00     0.189 HD
HETATM   28  N   UNL     1      26.881  48.692  49.238  1.00  0.00    -0.168 NA
ENDBRANCH   1  18
TORSDOF 5
ENDMDL
MODEL 3
REMARK VINA RESULT:      -9.2      1.346      1.888
REMARK  5 active torsions:
REMARK  status: ('A' for Active; 'I' for Inactive)
REMARK    1  A    between atoms: C_9  and  C_10 
REMARK       I    between atoms: C_10  and  N_11 
REMARK    2  A    between atoms: N_11  and  C_12 
REMARK    3  A    between atoms: C_12  and  C_13 
REMARK    4  A    between atoms: C_13  and  N_14 
REMARK       I    between atoms: N_14  and  C_15 
REMARK    5  A    between atoms: C_15  and  C_16 
ROOT
HETATM    1  C   UNL     1      25.368  45.107  53.456  1.00  0.00     0.272 C 
HETATM    2  N   UNL     1      25.334  45.571  52.159  1.00  0.00    -0.354 N 
HETATM    3  O   UNL     1      24.648  44.198  53.861  1.00  0.00    -0.266 OA
HETATM    4  H   UNL     1      25.938  46.364  51.957  1.00  0.00     0.162 HD
ENDROOT
BRANCH   2   5
HETATM    5  C   UNL     1      24.411  45.068  51.168  1.00  0.00     0.142 C 
BRANCH   5   6
HETATM    6  C   UNL     1      24.593  45.736  49.800  1.00  0.00     0.142 C 
BRANCH   6   7
HETATM    7  N   UNL     1      23.615  46.780  49.554  1.00  0.00    -0.355 N 
HETATM    8  C   UNL     1      23.985  48.106  49.483  1.00  0.00     0.251 C 
HETATM    9  O   UNL     1      25.148  48.475  49.610  1.00  0.00    -0.268 OA
HETATM   10  H   UNL     1      22.694  46.486  49.261  1.00  0.00     0.162 HD
BRANCH   8  11
HETATM   11  C   UNL     1      22.908  49.105  49.212  1.00  0.00     0.032 A 
HETATM   12  C   UNL     1      23.173  50.460  48.963  1.00  0.00     0.018 A 
HETATM   13  C   UNL     1      22.120  51.346  48.705  1.00  0.00     0.025 A 
HETATM   14  C   UNL     1      20.806  50.882  48.683  1.00  0.00     0.034 A 
HETATM   15 CL   UNL     1      19.518  51.976  48.358  1.00  0.00    -0.084 Cl
HETATM   16  C   UNL     1      20.532  49.537  48.914  1.00  0.00     0.025 A 
HETATM   17  C   UNL     1      21.580  48.651  49.177  1.00  0.00     0.018 A 
ENDBRANCH   8  11
ENDBRANCH   6   7
ENDBRANCH   5   6
ENDBRANCH   2   5
BRANCH   1  18
HETATM   18  C   UNL     1      26.335  45.823  54.304  1.00  0.00     0.157 A 
HETATM   19  C   UNL     1      27.626  45.375  54.715  1.00  0.00     0.029 A 
HETATM   20  C   UNL     1      28.416  44.226  54.513  1.00  0.00     0.023 A 
HETATM   21  C   UNL     1      28.129  46.402  55.504  1.00  0.00     0.063 A 
HETATM   22  C   UNL     1      29.686  44.144  55.109  1.00  0.00    -0.061 A 
HETATM   23  C   UNL     1      30.542  42.926  54.911  1.00  0.00     0.048 C 
HETATM   24  C   UNL     1      30.155  45.203  55.897  1.00  0.00     0.009 A 
HETATM   25  C   UNL     1      29.387  46.354  56.111  1.00  0.00     0.032 A 
HETATM   26  N   UNL     1      27.153  47.360  55.517  1.00  0.00    -0.277 N 
HETATM   27  H   UNL     1      27.178  48.253  55.996  1.00  0.00     0.189 HD
HETATM   28  N   UNL     1      26.055  47.045  54.811  1.00  0.00    -0.168 NA
ENDBRANCH   1  18
TORSDOF 5
ENDMDL
MODEL 4
REMARK VINA RESULT:      -9.2      6.534      9.841
REMARK  5 active torsions:
REMARK  status: ('A' for Active; 'I' for Inactive)
REMARK    1  A    between atoms: C_9  and  C_10 
REMARK       I    between atoms: C_10  and  N_11 
REMARK    2  A    between atoms: N_11  and  C_12 
REMARK    3  A    between atoms: C_12  and  C_13 
REMARK    4  A    between atoms: C_13  and  N_14 
REMARK       I    between atoms: N_14  and  C_15 
REMARK    5  A    between atoms: C_15  and  C_16 
ROOT
HETATM    1  C   UNL     1      27.139  42.428  50.668  1.00  0.00     0.272 C 
HETATM    2  N   UNL     1      26.158  42.536  51.631  1.00  0.00    -0.354 N 
HETATM    3  O   UNL     1      27.308  43.270  49.790  1.00  0.00    -0.266 OA
HETATM    4  H   UNL     1      26.080  41.750  52.272  1.00  0.00     0.162 HD
ENDROOT
BRANCH   2   5
HETATM    5  C   UNL     1      25.206  43.622  51.666  1.00  0.00     0.142 C 
BRANCH   5   6
HETATM    6  C   UNL     1      25.690  44.805  52.512  1.00  0.00     0.142 C 
BRANCH   6   7
HETATM    7  N   UNL     1      26.855  44.477  53.314  1.00  0.00    -0.355 N 
HETATM    8  C   UNL     1      27.518  45.442  54.042  1.00  0.00     0.251 C 
HETATM    9  O   UNL     1      27.161  46.616  54.063  1.00  0.00    -0.268 OA
HETATM   10  H   UNL     1      27.050  43.497  53.462  1.00  0.00     0.162 HD
BRANCH   8  11
HETATM   11  C   UNL     1      28.697  45.004  54.848  1.00  0.00     0.032 A 
HETATM   12  C   UNL     1      29.214  45.758  55.912  1.00  0.00     0.018 A 
HETATM   13  C   UNL     1      30.316  45.289  56.637  1.00  0.00     0.025 A 
HETATM   14  C   UNL     1      30.895  44.064  56.311  1.00  0.00     0.034 A 
HETATM   15 CL   UNL     1      32.244  43.489  57.212  1.00  0.00    -0.084 Cl
HETATM   16  C   UNL     1      30.382  43.299  55.268  1.00  0.00     0.025 A 
HETATM   17  C   UNL     1      29.285  43.767  54.539  1.00  0.00     0.018 A 
ENDBRANCH   8  11
ENDBRANCH   6   7
ENDBRANCH   5   6
ENDBRANCH   2   5
BRANCH   1  18
HETATM   18  C   UNL     1      27.939  41.199  50.789  1.00  0.00     0.157 A 
HETATM   19  C   UNL     1      28.191  40.226  49.777  1.00  0.00     0.029 A 
HETATM   20  C   UNL     1      27.835  40.048  48.426  1.00  0.00     0.023 A 
HETATM   21  C   UNL     1      28.985  39.265  50.391  1.00  0.00     0.063 A 
HETATM   22  C   UNL     1      28.289  38.913  47.733  1.00  0.00    -0.061 A 
HETATM   23  C   UNL     1      27.918  38.702  46.293  1.00  0.00     0.048 C 
HETATM   24  C   UNL     1      29.089  37.969  48.390  1.00  0.00     0.009 A 
HETATM   25  C   UNL     1      29.454  38.125  49.732  1.00  0.00     0.032 A 
HETATM   26  N   UNL     1      29.154  39.702  51.676  1.00  0.00    -0.277 N 
HETATM   27  H   UNL     1      29.682  39.249  52.413  1.00  0.00     0.189 HD
HETATM   28  N   UNL     1      28.535  40.861  51.956  1.00  0.00    -0.168 NA
ENDBRANCH   1  18
TORSDOF 5
ENDMDL
MODEL 5
REMARK VINA RESULT:      -9.1      1.879      2.614
REMARK  5 active torsions:
REMARK  status: ('A' for Active; 'I' for Inactive)
REMARK    1  A    between atoms: C_9  and  C_10 
REMARK       I    between atoms: C_10  and  N_11 
REMARK    2  A    between atoms: N_11  and  C_12 
REMARK    3  A    between atoms: C_12  and  C_13 
REMARK    4  A    between atoms: C_13  and  N_14 
REMARK       I    between atoms: N_14  and  C_15 
REMARK    5  A    between atoms: C_15  and  C_16 
ROOT
HETATM    1  C   UNL     1      25.939  44.691  52.459  1.00  0.00     0.272 C 
HETATM    2  N   UNL     1      26.151  45.901  51.832  1.00  0.00    -0.354 N 
HETATM    3  O   UNL     1      24.825  44.300  52.798  1.00  0.00    -0.266 OA
HETATM    4  H   UNL     1      27.123  46.139  51.649  1.00  0.00     0.162 HD
ENDROOT
BRANCH   2   5
HETATM    5  C   UNL     1      25.090  46.843  51.563  1.00  0.00     0.142 C 
BRANCH   5   6
HETATM    6  C   UNL     1      24.565  46.746  50.126  1.00  0.00     0.142 C 
BRANCH   6   7
HETATM    7  N   UNL     1      23.463  47.656  49.872  1.00  0.00    -0.355 N 
HETATM    8  C   UNL     1      23.681  48.923  49.374  1.00  0.00     0.251 C 
HETATM    9  O   UNL     1      24.802  49.346  49.108  1.00  0.00    -0.268 OA
HETATM   10  H   UNL     1      22.531  47.269  49.902  1.00  0.00     0.162 HD
BRANCH   8  11
HETATM   11  C   UNL     1      22.482  49.781  49.132  1.00  0.00     0.032 A 
HETATM   12  C   UNL     1      21.853  50.514  50.149  1.00  0.00     0.018 A 
HETATM   13  C   UNL     1      20.739  51.310  49.857  1.00  0.00     0.025 A 
HETATM   14  C   UNL     1      20.257  51.383  48.551  1.00  0.00     0.034 A 
HETATM   15 CL   UNL     1      18.891  52.368  48.198  1.00  0.00    -0.084 Cl
HETATM   16  C   UNL     1      20.881  50.672  47.530  1.00  0.00     0.025 A 
HETATM   17  C   UNL     1      21.991  49.873  47.820  1.00  0.00     0.018 A 
ENDBRANCH   8  11
ENDBRANCH   6   7
ENDBRANCH   5   6
ENDBRANCH   2   5
BRANCH   1  18
HETATM   18  C   UNL     1      27.179  43.935  52.696  1.00  0.00     0.157 A 
HETATM   19  C   UNL     1      28.152  44.161  53.715  1.00  0.00     0.029 A 
HETATM   20  C   UNL     1      28.318  45.071  54.778  1.00  0.00     0.023 A 
HETATM   21  C   UNL     1      29.126  43.192  53.506  1.00  0.00     0.063 A 
HETATM   22  C   UNL     1      29.456  44.979  55.597  1.00  0.00    -0.061 A 
HETATM   23  C   UNL     1      29.655  45.942  56.733  1.00  0.00     0.048 C 
HETATM   24  C   UNL     1      30.413  43.987  55.351  1.00  0.00     0.009 A 
HETATM   25  C   UNL     1      30.268  43.073  54.302  1.00  0.00     0.032 A 
HETATM   26  N   UNL     1      28.696  42.476  52.423  1.00  0.00    -0.277 N 
HETATM   27  H   UNL     1      29.160  41.687  51.988  1.00  0.00     0.189 HD
HETATM   28  N   UNL     1      27.530  42.896  51.904  1.00  0.00    -0.168 NA
ENDBRANCH   1  18
TORSDOF 5
ENDMDL
MODEL 6
REMARK VINA RESULT:      -9.0      2.140      2.924
REMARK  5 active torsions:
REMARK  status: ('A' for Active; 'I' for Inactive)
REMARK    1  A    between atoms: C_9  and  C_10 
REMARK       I    between atoms: C_10  and  N_11 
REMARK    2  A    between atoms: N_11  and  C_12 
REMARK    3  A    between atoms: C_12  and  C_13 
REMARK    4  A    between atoms: C_13  and  N_14 
REMARK       I    between atoms: N_14  and  C_15 
REMARK    5  A    between atoms: C_15  and  C_16 
ROOT
HETATM    1  C   UNL     1      25.629  43.923  52.490  1.00  0.00     0.272 C 
HETATM    2  N   UNL     1      25.368  44.171  51.159  1.00  0.00    -0.354 N 
HETATM    3  O   UNL     1      24.848  44.219  53.391  1.00  0.00    -0.266 OA
HETATM    4  H   UNL     1      26.114  43.930  50.511  1.00  0.00     0.162 HD
ENDROOT
BRANCH   2   5
HETATM    5  C   UNL     1      24.178  44.850  50.705  1.00  0.00     0.142 C 
BRANCH   5   6
HETATM    6  C   UNL     1      24.377  45.553  49.357  1.00  0.00     0.142 C 
BRANCH   6   7
HETATM    7  N   UNL     1      23.413  46.615  49.133  1.00  0.00    -0.355 N 
HETATM    8  C   UNL     1      23.694  47.920  49.476  1.00  0.00     0.251 C 
HETATM    9  O   UNL     1      24.764  48.258  49.972  1.00  0.00    -0.268 OA
HETATM   10  H   UNL     1      22.612  46.395  48.559  1.00  0.00     0.162 HD
BRANCH   8  11
HETATM   11  C   UNL     1      22.644  48.945  49.193  1.00  0.00     0.032 A 
HETATM   12  C   UNL     1      21.280  48.633  49.107  1.00  0.00     0.018 A 
HETATM   13  C   UNL     1      20.342  49.641  48.851  1.00  0.00     0.025 A 
HETATM   14  C   UNL     1      20.762  50.960  48.691  1.00  0.00     0.034 A 
HETATM   15 CL   UNL     1      19.603  52.194  48.383  1.00  0.00    -0.084 Cl
HETATM   16  C   UNL     1      22.112  51.285  48.788  1.00  0.00     0.025 A 
HETATM   17  C   UNL     1      23.051  50.280  49.040  1.00  0.00     0.018 A 
ENDBRANCH   8  11
ENDBRANCH   6   7
ENDBRANCH   5   6
ENDBRANCH   2   5
BRANCH   1  18
HETATM   18  C   UNL     1      26.938  43.290  52.718  1.00  0.00     0.157 A 
HETATM   19  C   UNL     1      27.948  43.696  53.640  1.00  0.00     0.029 A 
HETATM   20  C   UNL     1      28.103  44.725  54.591  1.00  0.00     0.023 A 
HETATM   21  C   UNL     1      28.984  42.787  53.465  1.00  0.00     0.063 A 
HETATM   22  C   UNL     1      29.292  44.807  55.336  1.00  0.00    -0.061 A 
HETATM   23  C   UNL     1      29.480  45.897  56.351  1.00  0.00     0.048 C 
HETATM   24  C   UNL     1      30.310  43.868  55.128  1.00  0.00     0.009 A 
HETATM   25  C   UNL     1      30.177  42.838  54.189  1.00  0.00     0.032 A 
HETATM   26  N   UNL     1      28.550  41.928  52.493  1.00  0.00    -0.277 N 
HETATM   27  H   UNL     1      29.049  41.134  52.110  1.00  0.00     0.189 HD
HETATM   28  N   UNL     1      27.324  42.202  52.014  1.00  0.00    -0.168 NA
ENDBRANCH   1  18
TORSDOF 5
ENDMDL
MODEL 7
REMARK VINA RESULT:      -9.0      1.501      2.285
REMARK  5 active torsions:
REMARK  status: ('A' for Active; 'I' for Inactive)
REMARK    1  A    between atoms: C_9  and  C_10 
REMARK       I    between atoms: C_10  and  N_11 
REMARK    2  A    between atoms: N_11  and  C_12 
REMARK    3  A    between atoms: C_12  and  C_13 
REMARK    4  A    between atoms: C_13  and  N_14 
REMARK       I    between atoms: N_14  and  C_15 
REMARK    5  A    between atoms: C_15  and  C_16 
ROOT
HETATM    1  C   UNL     1      24.902  45.182  51.521  1.00  0.00     0.272 C 
HETATM    2  N   UNL     1      25.054  46.248  50.661  1.00  0.00    -0.354 N 
HETATM    3  O   UNL     1      23.879  44.504  51.571  1.00  0.00    -0.266 OA
HETATM    4  H   UNL     1      25.925  46.766  50.750  1.00  0.00     0.162 HD
ENDROOT
BRANCH   2   5
HETATM    5  C   UNL     1      24.007  46.700  49.776  1.00  0.00     0.142 C 
BRANCH   5   6
HETATM    6  C   UNL     1      24.160  48.174  49.383  1.00  0.00     0.142 C 
BRANCH   6   7
HETATM    7  N   UNL     1      22.956  48.946  49.630  1.00  0.00    -0.355 N 
HETATM    8  C   UNL     1      22.069  49.233  48.615  1.00  0.00     0.251 C 
HETATM    9  O   UNL     1      22.237  48.850  47.462  1.00  0.00    -0.268 OA
HETATM   10  H   UNL     1      22.704  49.106  50.595  1.00  0.00     0.162 HD
BRANCH   8  11
HETATM   11  C   UNL     1      20.850  50.021  48.971  1.00  0.00     0.032 A 
HETATM   12  C   UNL     1      19.868  49.547  49.853  1.00  0.00     0.018 A 
HETATM   13  C   UNL     1      18.753  50.338  50.156  1.00  0.00     0.025 A 
HETATM   14  C   UNL     1      18.622  51.605  49.590  1.00  0.00     0.034 A 
HETATM   15 CL   UNL     1      17.253  52.574  49.973  1.00  0.00    -0.084 Cl
HETATM   16  C   UNL     1      19.597  52.092  48.725  1.00  0.00     0.025 A 
HETATM   17  C   UNL     1      20.709  51.303  48.417  1.00  0.00     0.018 A 
ENDBRANCH   8  11
ENDBRANCH   6   7
ENDBRANCH   5   6
ENDBRANCH   2   5
BRANCH   1  18
HETATM   18  C   UNL     1      26.075  44.956  52.381  1.00  0.00     0.157 A 
HETATM   19  C   UNL     1      26.526  45.770  53.463  1.00  0.00     0.029 A 
HETATM   20  C   UNL     1      26.104  46.963  54.083  1.00  0.00     0.023 A 
HETATM   21  C   UNL     1      27.667  45.137  53.939  1.00  0.00     0.063 A 
HETATM   22  C   UNL     1      26.840  47.481  55.162  1.00  0.00    -0.061 A 
HETATM   23  C   UNL     1      26.410  48.753  55.835  1.00  0.00     0.048 C 
HETATM   24  C   UNL     1      27.984  46.809  55.611  1.00  0.00     0.009 A 
HETATM   25  C   UNL     1      28.421  45.624  55.010  1.00  0.00     0.032 A 
HETATM   26  N   UNL     1      27.823  44.031  53.150  1.00  0.00    -0.277 N 
HETATM   27  H   UNL     1      28.554  43.332  53.212  1.00  0.00     0.189 HD
HETATM   28  N   UNL     1      26.887  43.890  52.196  1.00  0.00    -0.168 NA
ENDBRANCH   1  18
TORSDOF 5
ENDMDL
MODEL 8
REMARK VINA RESULT:      -8.9      3.874     10.096
REMARK  5 active torsions:
REMARK  status: ('A' for Active; 'I' for Inactive)
REMARK    1  A    between atoms: C_9  and  C_10 
REMARK       I    between atoms: C_10  and  N_11 
REMARK    2  A    between atoms: N_11  and  C_12 
REMARK    3  A    between atoms: C_12  and  C_13 
REMARK    4  A    between atoms: C_13  and  N_14 
REMARK       I    between atoms: N_14  and  C_15 
REMARK    5  A    between atoms: C_15  and  C_16 
ROOT
HETATM    1  C   UNL     1      23.618  47.630  49.483  1.00  0.00     0.272 C 
HETATM    2  N   UNL     1      24.781  47.607  50.222  1.00  0.00    -0.354 N 
HETATM    3  O   UNL     1      23.076  46.613  49.057  1.00  0.00    -0.266 OA
HETATM    4  H   UNL     1      25.163  48.516  50.472  1.00  0.00     0.162 HD
ENDROOT
BRANCH   2   5
HETATM    5  C   UNL     1      25.500  46.390  50.519  1.00  0.00     0.142 C 
BRANCH   5   6
HETATM    6  C   UNL     1      25.190  45.849  51.919  1.00  0.00     0.142 C 
BRANCH   6   7
HETATM    7  N   UNL     1      26.386  45.461  52.645  1.00  0.00    -0.355 N 
HETATM    8  C   UNL     1      26.632  45.926  53.920  1.00  0.00     0.251 C 
HETATM    9  O   UNL     1      25.860  46.674  54.511  1.00  0.00    -0.268 OA
HETATM   10  H   UNL     1      26.933  44.706  52.258  1.00  0.00     0.162 HD
BRANCH   8  11
HETATM   11  C   UNL     1      27.883  45.459  54.590  1.00  0.00     0.032 A 
HETATM   12  C   UNL     1      28.550  46.214  55.566  1.00  0.00     0.018 A 
HETATM   13  C   UNL     1      29.713  45.716  56.167  1.00  0.00     0.025 A 
HETATM   14  C   UNL     1      30.205  44.464  55.804  1.00  0.00     0.034 A 
HETATM   15 CL   UNL     1      31.631  43.857  56.551  1.00  0.00    -0.084 Cl
HETATM   16  C   UNL     1      29.544  43.699  54.847  1.00  0.00     0.025 A 
HETATM   17  C   UNL     1      28.385  44.195  54.242  1.00  0.00     0.018 A 
ENDBRANCH   8  11
ENDBRANCH   6   7
ENDBRANCH   5   6
ENDBRANCH   2   5
BRANCH   1  18
HETATM   18  C   UNL     1      23.109  48.990  49.243  1.00  0.00     0.157 A 
HETATM   19  C   UNL     1      21.746  49.396  49.119  1.00  0.00     0.029 A 
HETATM   20  C   UNL     1      20.488  48.764  49.168  1.00  0.00     0.023 A 
HETATM   21  C   UNL     1      21.798  50.766  48.891  1.00  0.00     0.063 A 
HETATM   22  C   UNL     1      19.322  49.527  48.989  1.00  0.00    -0.061 A 
HETATM   23  C   UNL     1      17.970  48.873  49.033  1.00  0.00     0.048 C 
HETATM   24  C   UNL     1      19.420  50.906  48.763  1.00  0.00     0.009 A 
HETATM   25  C   UNL     1      20.659  51.554  48.710  1.00  0.00     0.032 A 
HETATM   26  N   UNL     1      23.128  51.083  48.894  1.00  0.00    -0.277 N 
HETATM   27  H   UNL     1      23.540  51.999  48.759  1.00  0.00     0.189 HD
HETATM   28  N   UNL     1      23.950  50.039  49.097  1.00  0.00    -0.168 NA
ENDBRANCH   1  18
TORSDOF 5
ENDMDL
MODEL 9
REMARK VINA RESULT:      -8.9      4.435      5.960
REMARK  5 active torsions:
REMARK  status: ('A' for Active; 'I' for Inactive)
REMARK    1  A    between atoms: C_9  and  C_10 
REMARK       I    between atoms: C_10  and  N_11 
REMARK    2  A    between atoms: N_11  and  C_12 
REMARK    3  A    between atoms: C_12  and  C_13 
REMARK    4  A    between atoms: C_13  and  N_14 
REMARK       I    between atoms: N_14  and  C_15 
REMARK    5  A    between atoms: C_15  and  C_16 
ROOT
HETATM    1  C   UNL     1      28.611  41.860  53.423  1.00  0.00     0.272 C 
HETATM    2  N   UNL     1      28.845  42.011  52.072  1.00  0.00    -0.354 N 
HETATM    3  O   UNL     1      28.093  40.856  53.904  1.00  0.00    -0.266 OA
HETATM    4  H   UNL     1      29.228  42.909  51.788  1.00  0.00     0.162 HD
ENDROOT
BRANCH   2   5
HETATM    5  C   UNL     1      28.455  41.024  51.093  1.00  0.00     0.142 C 
BRANCH   5   6
HETATM    6  C   UNL     1      27.086  41.320  50.469  1.00  0.00     0.142 C 
BRANCH   6   7
HETATM    7  N   UNL     1      26.902  42.729  50.170  1.00  0.00    -0.355 N 
HETATM    8  C   UNL     1      25.768  43.403  50.569  1.00  0.00     0.251 C 
HETATM    9  O   UNL     1      24.865  42.864  51.201  1.00  0.00    -0.268 OA
HETATM   10  H   UNL     1      27.705  43.233  49.822  1.00  0.00     0.162 HD
BRANCH   8  11
HETATM   11  C   UNL     1      25.677  44.855  50.226  1.00  0.00     0.032 A 
HETATM   12  C   UNL     1      26.802  45.641  49.941  1.00  0.00     0.018 A 
HETATM   13  C   UNL     1      26.651  46.995  49.615  1.00  0.00     0.025 A 
HETATM   14  C   UNL     1      25.379  47.562  49.563  1.00  0.00     0.034 A 
HETATM   15 CL   UNL     1      25.200  49.224  49.156  1.00  0.00    -0.084 Cl
HETATM   16  C   UNL     1      24.253  46.788  49.830  1.00  0.00     0.025 A 
HETATM   17  C   UNL     1      24.401  45.438  50.160  1.00  0.00     0.018 A 
ENDBRANCH   8  11
ENDBRANCH   6   7
ENDBRANCH   5   6
ENDBRANCH   2   5
BRANCH   1  18
HETATM   18  C   UNL     1      29.023  43.028  54.218  1.00  0.00     0.157 A 
HETATM   19  C   UNL     1      28.400  44.311  54.262  1.00  0.00     0.029 A 
HETATM   20  C   UNL     1      27.285  44.921  53.654  1.00  0.00     0.023 A 
HETATM   21  C   UNL     1      29.170  45.056  55.147  1.00  0.00     0.063 A 
HETATM   22  C   UNL     1      26.977  46.259  53.955  1.00  0.00    -0.061 A 
HETATM   23  C   UNL     1      25.795  46.930  53.315  1.00  0.00     0.048 C 
HETATM   24  C   UNL     1      27.779  46.973  54.854  1.00  0.00     0.009 A 
HETATM   25  C   UNL     1      28.892  46.387  55.469  1.00  0.00     0.032 A 
HETATM   26  N   UNL     1      30.162  44.212  55.561  1.00  0.00    -0.277 N 
HETATM   27  H   UNL     1      30.910  44.419  56.214  1.00  0.00     0.189 HD
HETATM   28  N   UNL     1      30.112  42.983  55.020  1.00  0.00    -0.168 NA
ENDBRANCH   1  18
TORSDOF 5
ENDMDL
MODEL 10
REMARK VINA RESULT:      -8.8      3.961      5.236
REMARK  5 active torsions:
REMARK  status: ('A' for Active; 'I' for Inactive)
REMARK    1  A    between atoms: C_9  and  C_10 
REMARK       I    between atoms: C_10  and  N_11 
REMARK    2  A    between atoms: N_11  and  C_12 
REMARK    3  A    between atoms: C_12  and  C_13 
REMARK    4  A    between atoms: C_13  and  N_14 
REMARK       I    between atoms: N_14  and  C_15 
REMARK    5  A    between atoms: C_15  and  C_16 
ROOT
HETATM    1  C   UNL     1      28.174  42.315  52.761  1.00  0.00     0.272 C 
HETATM    2  N   UNL     1      26.949  42.104  52.165  1.00  0.00    -0.354 N 
HETATM    3  O   UNL     1      29.105  41.520  52.674  1.00  0.00    -0.266 OA
HETATM    4  H   UNL     1      26.239  42.808  52.353  1.00  0.00     0.162 HD
ENDROOT
BRANCH   2   5
HETATM    5  C   UNL     1      26.630  40.904  51.427  1.00  0.00     0.142 C 
BRANCH   5   6
HETATM    6  C   UNL     1      25.995  41.201  50.063  1.00  0.00     0.142 C 
BRANCH   6   7
HETATM    7  N   UNL     1      25.370  42.510  50.012  1.00  0.00    -0.355 N 
HETATM    8  C   UNL     1      26.081  43.629  49.634  1.00  0.00     0.251 C 
HETATM    9  O   UNL     1      27.264  43.584  49.313  1.00  0.00    -0.268 OA
HETATM   10  H   UNL     1      24.363  42.541  50.086  1.00  0.00     0.162 HD
BRANCH   8  11
HETATM   11  C   UNL     1      25.345  44.929  49.599  1.00  0.00     0.032 A 
HETATM   12  C   UNL     1      25.930  46.145  49.982  1.00  0.00     0.018 A 
HETATM   13  C   UNL     1      25.191  47.333  49.915  1.00  0.00     0.025 A 
HETATM   14  C   UNL     1      23.875  47.312  49.457  1.00  0.00     0.034 A 
HETATM   15 CL   UNL     1      22.976  48.776  49.371  1.00  0.00    -0.084 Cl
HETATM   16  C   UNL     1      23.289  46.113  49.060  1.00  0.00     0.025 A 
HETATM   17  C   UNL     1      24.022  44.925  49.130  1.00  0.00     0.018 A 
ENDBRANCH   8  11
ENDBRANCH   6   7
ENDBRANCH   5   6
ENDBRANCH   2   5
BRANCH   1  18
HETATM   18  C   UNL     1      28.240  43.572  53.523  1.00  0.00     0.157 A 
HETATM   19  C   UNL     1      29.138  43.897  54.584  1.00  0.00     0.029 A 
HETATM   20  C   UNL     1      30.193  43.250  55.256  1.00  0.00     0.023 A 
HETATM   21  C   UNL     1      28.789  45.185  54.970  1.00  0.00     0.063 A 
HETATM   22  C   UNL     1      30.865  43.917  56.295  1.00  0.00    -0.061 A 
HETATM   23  C   UNL     1      31.990  43.244  57.028  1.00  0.00     0.048 C 
HETATM   24  C   UNL     1      30.481  45.216  56.652  1.00  0.00     0.009 A 
HETATM   25  C   UNL     1      29.436  45.877  55.997  1.00  0.00     0.032 A 
HETATM   26  N   UNL     1      27.750  45.539  54.154  1.00  0.00    -0.277 N 
HETATM   27  H   UNL     1      27.243  46.416  54.153  1.00  0.00     0.189 HD
HETATM   28  N   UNL     1      27.387  44.592  53.273  1.00  0.00    -0.168 NA
ENDBRANCH   1  18
TORSDOF 5
ENDMDL
