MODEL 1
REMARK VINA RESULT:      -8.9      0.000      0.000
REMARK  10 active torsions:
REMARK  status: ('A' for Active; 'I' for Inactive)
REMARK    1  A    between atoms: C_2  and  O_3 
REMARK    2  A    between atoms: O_3  and  C_4 
REMARK    3  A    between atoms: C_5  and  O_6 
REMARK    4  A    between atoms: O_6  and  C_7 
REMARK    5  A    between atoms: C_7  and  C_8 
REMARK       I    between atoms: C_8  and  N_9 
REMARK    6  A    between atoms: N_9  and  C_10 
REMARK    7  A    between atoms: C_18  and  C_19 
REMARK    8  A    between atoms: C_19  and  N_20 
REMARK    9  A    between atoms: N_20  and  C_21 
REMARK   10  A    between atoms: C_24  and  N_25 
ROOT
HETATM    1  C   UNL     1      25.751  46.901  49.961  1.00  0.00     0.103 A 
HETATM    2  C   UNL     1      24.376  46.733  49.724  1.00  0.00     0.120 A 
HETATM    3  C   UNL     1      23.859  45.464  49.442  1.00  0.00     0.047 A 
HETATM    4 BR   UNL     1      22.031  45.196  49.015  1.00  0.00    -0.048 Br
HETATM    5  C   UNL     1      24.698  44.348  49.464  1.00  0.00     0.031 A 
HETATM    6  C   UNL     1      26.065  44.492  49.746  1.00  0.00    -0.036 A 
HETATM    7  C   UNL     1      26.582  45.776  49.991  1.00  0.00     0.048 A 
ENDROOT
BRANCH   6   8
HETATM    8  C   UNL     1      26.965  43.278  49.801  1.00  0.00     0.158 C 
BRANCH   8   9
HETATM    9  N   UNL     1      26.837  42.636  51.105  1.00  0.00    -0.386 N 
HETATM   10  H   UNL     1      26.713  41.627  51.029  1.00  0.00     0.160 HD
BRANCH   9  11
HETATM   11  C   UNL     1      27.671  43.005  52.157  1.00  0.00     0.028 A 
HETATM   12  C   UNL     1      29.032  42.683  52.218  1.00  0.00     0.031 A 
HETATM   13  C   UNL     1      29.838  43.123  53.276  1.00  0.00     0.039 A 
HETATM   14  C   UNL     1      29.294  43.925  54.278  1.00  0.00     0.134 A 
HETATM   15  C   UNL     1      27.956  44.307  54.209  1.00  0.00     0.039 A 
HETATM   16  C   UNL     1      27.162  43.859  53.147  1.00  0.00     0.031 A 
BRANCH  14  17
HETATM   17  N   UNL     1      30.157  44.338  55.402  1.00  0.00    -0.041 N 
HETATM   18  H   UNL     1      30.948  44.842  54.982  1.00  0.00     0.286 HD
HETATM   19  C   UNL     1      29.463  45.315  56.315  1.00  0.00     0.241 C 
HETATM   20  C   UNL     1      30.465  45.806  57.355  1.00  0.00     0.028 C 
HETATM   21  C   UNL     1      31.112  44.646  58.110  1.00  0.00     0.003 C 
HETATM   22  C   UNL     1      31.739  43.635  57.154  1.00  0.00     0.028 C 
HETATM   23  C   UNL     1      30.736  43.144  56.117  1.00  0.00     0.241 C 
ENDBRANCH  14  17
ENDBRANCH   9  11
ENDBRANCH   8   9
ENDBRANCH   6   8
BRANCH   1  24
HETATM   24  O   UNL     1      26.170  48.182  50.205  1.00  0.00    -0.349 OA
BRANCH  24  25
HETATM   25  C   UNL     1      27.278  48.682  49.457  1.00  0.00     0.171 C 
HETATM   26  C   UNL     1      26.829  49.822  48.560  1.00  0.00     0.034 C 
ENDBRANCH  24  25
ENDBRANCH   1  24
BRANCH   2  27
HETATM   27  O   UNL     1      23.564  47.842  49.714  1.00  0.00    -0.338 OA
BRANCH  27  28
HETATM   28  C   UNL     1      23.477  48.373  48.386  1.00  0.00     0.278 C 
BRANCH  28  29
HETATM   29  C   UNL     1      22.296  49.329  48.240  1.00  0.00     0.242 C 
HETATM   30  N   UNL     1      21.228  49.032  49.061  1.00  0.00    -0.351 N 
HETATM   31  H   UNL     1      21.415  48.333  49.775  1.00  0.00     0.163 HD
HETATM   32  O   UNL     1      22.303  50.235  47.411  1.00  0.00    -0.271 OA
BRANCH  30  33
HETATM   33  C   UNL     1      19.978  49.799  49.139  1.00  0.00     0.022 C 
HETATM   34  C   UNL     1      19.172  49.679  47.835  1.00  0.00     0.037 C 
HETATM   35  C   UNL     1      19.131  49.215  50.283  1.00  0.00     0.037 C 
HETATM   36  C   UNL     1      20.264  51.277  49.446  1.00  0.00     0.037 C 
ENDBRANCH  30  33
ENDBRANCH  28  29
ENDBRANCH  27  28
ENDBRANCH   2  27
TORSDOF 10
ENDMDL
MODEL 2
REMARK VINA RESULT:      -8.5      2.016      2.954
REMARK  10 active torsions:
REMARK  status: ('A' for Active; 'I' for Inactive)
REMARK    1  A    between atoms: C_2  and  O_3 
REMARK    2  A    between atoms: O_3  and  C_4 
REMARK    3  A    between atoms: C_5  and  O_6 
REMARK    4  A    between atoms: O_6  and  C_7 
REMARK    5  A    between atoms: C_7  and  C_8 
REMARK       I    between atoms: C_8  and  N_9 
REMARK    6  A    between atoms: N_9  and  C_10 
REMARK    7  A    between atoms: C_18  and  C_19 
REMARK    8  A    between atoms: C_19  and  N_20 
REMARK    9  A    between atoms: N_20  and  C_21 
REMARK   10  A    between atoms: C_24  and  N_25 
ROOT
HETATM    1  C   UNL     1      22.712  48.288  49.253  1.00  0.00     0.103 A 
HETATM    2  C   UNL     1      22.050  47.245  48.583  1.00  0.00     0.120 A 
HETATM    3  C   UNL     1      22.619  45.968  48.529  1.00  0.00     0.047 A 
HETATM    4 BR   UNL     1      21.819  44.553  47.553  1.00  0.00    -0.048 Br
HETATM    5  C   UNL     1      23.813  45.707  49.203  1.00  0.00     0.031 A 
HETATM    6  C   UNL     1      24.464  46.724  49.917  1.00  0.00    -0.036 A 
HETATM    7  C   UNL     1      23.904  48.014  49.933  1.00  0.00     0.048 A 
ENDROOT
BRANCH   6   8
HETATM    8  C   UNL     1      25.740  46.432  50.672  1.00  0.00     0.158 C 
BRANCH   8   9
HETATM    9  N   UNL     1      25.422  46.111  52.061  1.00  0.00    -0.386 N 
HETATM   10  H   UNL     1      24.678  45.419  52.137  1.00  0.00     0.160 HD
BRANCH   9  11
HETATM   11  C   UNL     1      26.441  45.923  52.991  1.00  0.00     0.028 A 
HETATM   12  C   UNL     1      27.196  44.748  53.089  1.00  0.00     0.031 A 
HETATM   13  C   UNL     1      28.244  44.629  54.011  1.00  0.00     0.039 A 
HETATM   14  C   UNL     1      28.574  45.707  54.831  1.00  0.00     0.134 A 
HETATM   15  C   UNL     1      27.875  46.907  54.712  1.00  0.00     0.039 A 
HETATM   16  C   UNL     1      26.830  47.011  53.787  1.00  0.00     0.031 A 
BRANCH  14  17
HETATM   17  N   UNL     1      29.655  45.539  55.822  1.00  0.00    -0.041 N 
HETATM   18  H   UNL     1      30.405  46.181  55.535  1.00  0.00     0.286 HD
HETATM   19  C   UNL     1      29.227  45.970  57.201  1.00  0.00     0.241 C 
HETATM   20  C   UNL     1      30.437  45.909  58.127  1.00  0.00     0.028 C 
HETATM   21  C   UNL     1      31.093  44.530  58.114  1.00  0.00     0.003 C 
HETATM   22  C   UNL     1      31.444  44.089  56.695  1.00  0.00     0.028 C 
HETATM   23  C   UNL     1      30.233  44.148  55.771  1.00  0.00     0.241 C 
ENDBRANCH  14  17
ENDBRANCH   9  11
ENDBRANCH   8   9
ENDBRANCH   6   8
BRANCH   1  24
HETATM   24  O   UNL     1      22.092  49.509  49.233  1.00  0.00    -0.349 OA
BRANCH  24  25
HETATM   25  C   UNL     1      22.906  50.674  49.094  1.00  0.00     0.171 C 
HETATM   26  C   UNL     1      23.482  50.742  47.692  1.00  0.00     0.034 C 
ENDBRANCH  24  25
ENDBRANCH   1  24
BRANCH   2  27
HETATM   27  O   UNL     1      20.871  47.518  47.931  1.00  0.00    -0.338 OA
BRANCH  27  28
HETATM   28  C   UNL     1      19.760  47.143  48.754  1.00  0.00     0.278 C 
BRANCH  28  29
HETATM   29  C   UNL     1      18.988  48.365  49.246  1.00  0.00     0.242 C 
HETATM   30  N   UNL     1      19.189  49.499  48.489  1.00  0.00    -0.351 N 
HETATM   31  H   UNL     1      19.678  49.349  47.610  1.00  0.00     0.163 HD
HETATM   32  O   UNL     1      18.307  48.324  50.267  1.00  0.00    -0.271 OA
BRANCH  30  33
HETATM   33  C   UNL     1      18.555  50.802  48.725  1.00  0.00     0.022 C 
HETATM   34  C   UNL     1      19.175  51.507  49.943  1.00  0.00     0.037 C 
HETATM   35  C   UNL     1      18.796  51.682  47.487  1.00  0.00     0.037 C 
HETATM   36  C   UNL     1      17.040  50.643  48.925  1.00  0.00     0.037 C 
ENDBRANCH  30  33
ENDBRANCH  28  29
ENDBRANCH  27  28
ENDBRANCH   2  27
TORSDOF 10
ENDMDL
MODEL 3
REMARK VINA RESULT:      -8.1      2.390      3.641
REMARK  10 active torsions:
REMARK  status: ('A' for Active; 'I' for Inactive)
REMARK    1  A    between atoms: C_2  and  O_3 
REMARK    2  A    between atoms: O_3  and  C_4 
REMARK    3  A    between atoms: C_5  and  O_6 
REMARK    4  A    between atoms: O_6  and  C_7 
REMARK    5  A    between atoms: C_7  and  C_8 
REMARK       I    between atoms: C_8  and  N_9 
REMARK    6  A    between atoms: N_9  and  C_10 
REMARK    7  A    between atoms: C_18  and  C_19 
REMARK    8  A    between atoms: C_19  and  N_20 
REMARK    9  A    between atoms: N_20  and  C_21 
REMARK   10  A    between atoms: C_24  and  N_25 
ROOT
HETATM    1  C   UNL     1      22.986  46.363  48.857  1.00  0.00     0.103 A 
HETATM    2  C   UNL     1      22.659  47.605  48.287  1.00  0.00     0.120 A 
HETATM    3  C   UNL     1      23.396  48.748  48.616  1.00  0.00     0.047 A 
HETATM    4 BR   UNL     1      22.936  50.465  47.955  1.00  0.00    -0.048 Br
HETATM    5  C   UNL     1      24.504  48.645  49.459  1.00  0.00     0.031 A 
HETATM    6  C   UNL     1      24.873  47.404  50.000  1.00  0.00    -0.036 A 
HETATM    7  C   UNL     1      24.103  46.268  49.694  1.00  0.00     0.048 A 
ENDROOT
BRANCH   6   8
HETATM    8  C   UNL     1      26.091  47.290  50.887  1.00  0.00     0.158 C 
BRANCH   8   9
HETATM    9  N   UNL     1      25.670  47.072  52.268  1.00  0.00    -0.386 N 
HETATM   10  H   UNL     1      24.713  46.726  52.330  1.00  0.00     0.160 HD
BRANCH   9  11
HETATM   11  C   UNL     1      26.531  46.467  53.180  1.00  0.00     0.028 A 
HETATM   12  C   UNL     1      26.971  45.142  53.070  1.00  0.00     0.031 A 
HETATM   13  C   UNL     1      27.877  44.597  53.989  1.00  0.00     0.039 A 
HETATM   14  C   UNL     1      28.384  45.388  55.019  1.00  0.00     0.134 A 
HETATM   15  C   UNL     1      28.005  46.726  55.115  1.00  0.00     0.039 A 
HETATM   16  C   UNL     1      27.098  47.257  54.191  1.00  0.00     0.031 A 
BRANCH  14  17
HETATM   17  N   UNL     1      29.304  44.775  55.996  1.00  0.00    -0.041 N 
HETATM   18  H   UNL     1      28.731  44.144  56.570  1.00  0.00     0.286 HD
HETATM   19  C   UNL     1      30.346  43.917  55.326  1.00  0.00     0.241 C 
HETATM   20  C   UNL     1      31.157  43.205  56.405  1.00  0.00     0.028 C 
HETATM   21  C   UNL     1      31.755  44.189  57.408  1.00  0.00     0.003 C 
HETATM   22  C   UNL     1      30.685  45.095  58.011  1.00  0.00     0.028 C 
HETATM   23  C   UNL     1      29.878  45.808  56.932  1.00  0.00     0.241 C 
ENDBRANCH  14  17
ENDBRANCH   9  11
ENDBRANCH   8   9
ENDBRANCH   6   8
BRANCH   1  24
HETATM   24  O   UNL     1      22.195  45.306  48.495  1.00  0.00    -0.349 OA
BRANCH  24  25
HETATM   25  C   UNL     1      22.446  44.038  49.102  1.00  0.00     0.171 C 
HETATM   26  C   UNL     1      23.342  43.201  48.208  1.00  0.00     0.034 C 
ENDBRANCH  24  25
ENDBRANCH   1  24
BRANCH   2  27
HETATM   27  O   UNL     1      21.570  47.687  47.452  1.00  0.00    -0.338 OA
BRANCH  27  28
HETATM   28  C   UNL     1      20.363  47.709  48.224  1.00  0.00     0.278 C 
BRANCH  28  29
HETATM   29  C   UNL     1      19.345  48.688  47.644  1.00  0.00     0.242 C 
HETATM   30  N   UNL     1      19.353  49.929  48.243  1.00  0.00    -0.351 N 
HETATM   31  H   UNL     1      20.137  50.100  48.868  1.00  0.00     0.163 HD
HETATM   32  O   UNL     1      18.558  48.348  46.764  1.00  0.00    -0.271 OA
BRANCH  30  33
HETATM   33  C   UNL     1      18.496  51.061  47.867  1.00  0.00     0.022 C 
HETATM   34  C   UNL     1      19.050  52.384  48.421  1.00  0.00     0.037 C 
HETATM   35  C   UNL     1      18.476  51.154  46.331  1.00  0.00     0.037 C 
HETATM   36  C   UNL     1      17.059  50.844  48.364  1.00  0.00     0.037 C 
ENDBRANCH  30  33
ENDBRANCH  28  29
ENDBRANCH  27  28
ENDBRANCH   2  27
TORSDOF 10
ENDMDL
MODEL 4
REMARK VINA RESULT:      -8.0      2.104      3.227
REMARK  10 active torsions:
REMARK  status: ('A' for Active; 'I' for Inactive)
REMARK    1  A    between atoms: C_2  and  O_3 
REMARK    2  A    between atoms: O_3  and  C_4 
REMARK    3  A    between atoms: C_5  and  O_6 
REMARK    4  A    between atoms: O_6  and  C_7 
REMARK    5  A    between atoms: C_7  and  C_8 
REMARK       I    between atoms: C_8  and  N_9 
REMARK    6  A    between atoms: N_9  and  C_10 
REMARK    7  A    between atoms: C_18  and  C_19 
REMARK    8  A    between atoms: C_19  and  N_20 
REMARK    9  A    between atoms: N_20  and  C_21 
REMARK   10  A    between atoms: C_24  and  N_25 
ROOT
HETATM    1  C   UNL     1      22.374  47.767  48.941  1.00  0.00     0.103 A 
HETATM    2  C   UNL     1      21.194  47.136  48.511  1.00  0.00     0.120 A 
HETATM    3  C   UNL     1      21.175  45.756  48.284  1.00  0.00     0.047 A 
HETATM    4 BR   UNL     1      19.641  44.870  47.606  1.00  0.00    -0.048 Br
HETATM    5  C   UNL     1      22.310  44.989  48.552  1.00  0.00     0.031 A 
HETATM    6  C   UNL     1      23.482  45.595  49.027  1.00  0.00    -0.036 A 
HETATM    7  C   UNL     1      23.503  46.988  49.216  1.00  0.00     0.048 A 
ENDROOT
BRANCH   6   8
HETATM    8  C   UNL     1      24.700  44.758  49.347  1.00  0.00     0.158 C 
BRANCH   8   9
HETATM    9  N   UNL     1      24.488  44.053  50.607  1.00  0.00    -0.386 N 
HETATM   10  H   UNL     1      24.040  43.148  50.473  1.00  0.00     0.160 HD
BRANCH   9  11
HETATM   11  C   UNL     1      25.487  44.029  51.577  1.00  0.00     0.028 A 
HETATM   12  C   UNL     1      26.851  43.911  51.284  1.00  0.00     0.031 A 
HETATM   13  C   UNL     1      27.820  43.942  52.296  1.00  0.00     0.039 A 
HETATM   14  C   UNL     1      27.433  44.127  53.622  1.00  0.00     0.134 A 
HETATM   15  C   UNL     1      26.086  44.304  53.933  1.00  0.00     0.039 A 
HETATM   16  C   UNL     1      25.130  44.270  52.912  1.00  0.00     0.031 A 
BRANCH  14  17
HETATM   17  N   UNL     1      28.472  44.114  54.671  1.00  0.00    -0.041 N 
HETATM   18  H   UNL     1      28.034  43.690  55.499  1.00  0.00     0.286 HD
HETATM   19  C   UNL     1      29.635  43.230  54.301  1.00  0.00     0.241 C 
HETATM   20  C   UNL     1      30.584  43.152  55.492  1.00  0.00     0.028 C 
HETATM   21  C   UNL     1      31.020  44.538  55.962  1.00  0.00     0.003 C 
HETATM   22  C   UNL     1      29.820  45.434  56.254  1.00  0.00     0.028 C 
HETATM   23  C   UNL     1      28.872  45.513  55.063  1.00  0.00     0.241 C 
ENDBRANCH  14  17
ENDBRANCH   9  11
ENDBRANCH   8   9
ENDBRANCH   6   8
BRANCH   1  24
HETATM   24  O   UNL     1      22.304  49.124  49.114  1.00  0.00    -0.349 OA
BRANCH  24  25
HETATM   25  C   UNL     1      23.497  49.887  48.929  1.00  0.00     0.171 C 
HETATM   26  C   UNL     1      23.154  51.266  48.397  1.00  0.00     0.034 C 
ENDBRANCH  24  25
ENDBRANCH   1  24
BRANCH   2  27
HETATM   27  O   UNL     1      20.083  47.906  48.259  1.00  0.00    -0.338 OA
BRANCH  27  28
HETATM   28  C   UNL     1      19.296  48.033  49.449  1.00  0.00     0.278 C 
BRANCH  28  29
HETATM   29  C   UNL     1      18.675  49.423  49.566  1.00  0.00     0.242 C 
HETATM   30  N   UNL     1      18.446  50.039  48.354  1.00  0.00    -0.351 N 
HETATM   31  H   UNL     1      18.552  49.439  47.539  1.00  0.00     0.163 HD
HETATM   32  O   UNL     1      18.470  49.944  50.659  1.00  0.00    -0.271 OA
BRANCH  30  33
HETATM   33  C   UNL     1      17.839  51.365  48.176  1.00  0.00     0.022 C 
HETATM   34  C   UNL     1      18.691  52.457  48.843  1.00  0.00     0.037 C 
HETATM   35  C   UNL     1      17.774  51.661  46.667  1.00  0.00     0.037 C 
HETATM   36  C   UNL     1      16.412  51.391  48.743  1.00  0.00     0.037 C 
ENDBRANCH  30  33
ENDBRANCH  28  29
ENDBRANCH  27  28
ENDBRANCH   2  27
TORSDOF 10
ENDMDL
MODEL 5
REMARK VINA RESULT:      -8.0      1.625      2.142
REMARK  10 active torsions:
REMARK  status: ('A' for Active; 'I' for Inactive)
REMARK    1  A    between atoms: C_2  and  O_3 
REMARK    2  A    between atoms: O_3  and  C_4 
REMARK    3  A    between atoms: C_5  and  O_6 
REMARK    4  A    between atoms: O_6  and  C_7 
REMARK    5  A    between atoms: C_7  and  C_8 
REMARK       I    between atoms: C_8  and  N_9 
REMARK    6  A    between atoms: N_9  and  C_10 
REMARK    7  A    between atoms: C_18  and  C_19 
REMARK    8  A    between atoms: C_19  and  N_20 
REMARK    9  A    between atoms: N_20  and  C_21 
REMARK   10  A    between atoms: C_24  and  N_25 
ROOT
HETATM    1  C   UNL     1      25.046  44.662  49.449  1.00  0.00     0.103 A 
HETATM    2  C   UNL     1      24.086  44.034  48.637  1.00  0.00     0.120 A 
HETATM    3  C   UNL     1      23.966  42.640  48.636  1.00  0.00     0.047 A 
HETATM    4 BR   UNL     1      22.759  41.737  47.486  1.00  0.00    -0.048 Br
HETATM    5  C   UNL     1      24.753  41.871  49.496  1.00  0.00     0.031 A 
HETATM    6  C   UNL     1      25.683  42.485  50.348  1.00  0.00    -0.036 A 
HETATM    7  C   UNL     1      25.823  43.883  50.314  1.00  0.00     0.048 A 
ENDROOT
BRANCH   6   8
HETATM    8  C   UNL     1      26.511  41.653  51.301  1.00  0.00     0.158 C 
BRANCH   8   9
HETATM    9  N   UNL     1      27.907  42.072  51.226  1.00  0.00    -0.386 N 
HETATM   10  H   UNL     1      28.112  42.585  50.370  1.00  0.00     0.160 HD
BRANCH   9  11
HETATM   11  C   UNL     1      28.545  42.600  52.346  1.00  0.00     0.028 A 
HETATM   12  C   UNL     1      29.841  42.247  52.740  1.00  0.00     0.031 A 
HETATM   13  C   UNL     1      30.454  42.847  53.848  1.00  0.00     0.039 A 
HETATM   14  C   UNL     1      29.784  43.840  54.561  1.00  0.00     0.134 A 
HETATM   15  C   UNL     1      28.516  44.249  54.152  1.00  0.00     0.039 A 
HETATM   16  C   UNL     1      27.915  43.641  53.045  1.00  0.00     0.031 A 
BRANCH  14  17
HETATM   17  N   UNL     1      30.439  44.424  55.748  1.00  0.00    -0.041 N 
HETATM   18  H   UNL     1      31.222  44.987  55.392  1.00  0.00     0.286 HD
HETATM   19  C   UNL     1      29.528  45.373  56.483  1.00  0.00     0.241 C 
HETATM   20  C   UNL     1      30.323  46.044  57.599  1.00  0.00     0.028 C 
HETATM   21  C   UNL     1      30.981  45.020  58.521  1.00  0.00     0.003 C 
HETATM   22  C   UNL     1      31.834  44.026  57.738  1.00  0.00     0.028 C 
HETATM   23  C   UNL     1      31.038  43.354  56.625  1.00  0.00     0.241 C 
ENDBRANCH  14  17
ENDBRANCH   9  11
ENDBRANCH   8   9
ENDBRANCH   6   8
BRANCH   1  24
HETATM   24  O   UNL     1      25.107  46.027  49.367  1.00  0.00    -0.349 OA
BRANCH  24  25
HETATM   25  C   UNL     1      26.013  46.713  50.232  1.00  0.00     0.171 C 
HETATM   26  C   UNL     1      26.410  48.044  49.619  1.00  0.00     0.034 C 
ENDBRANCH  24  25
ENDBRANCH   1  24
BRANCH   2  27
HETATM   27  O   UNL     1      23.315  44.807  47.803  1.00  0.00    -0.338 OA
BRANCH  27  28
HETATM   28  C   UNL     1      22.094  45.169  48.460  1.00  0.00     0.278 C 
BRANCH  28  29
HETATM   29  C   UNL     1      21.737  46.633  48.214  1.00  0.00     0.242 C 
HETATM   30  N   UNL     1      20.706  47.099  49.001  1.00  0.00    -0.351 N 
HETATM   31  H   UNL     1      20.427  46.480  49.758  1.00  0.00     0.163 HD
HETATM   32  O   UNL     1      22.295  47.290  47.340  1.00  0.00    -0.271 OA
BRANCH  30  33
HETATM   33  C   UNL     1      20.178  48.470  48.985  1.00  0.00     0.022 C 
HETATM   34  C   UNL     1      19.133  48.673  50.094  1.00  0.00     0.037 C 
HETATM   35  C   UNL     1      21.348  49.435  49.245  1.00  0.00     0.037 C 
HETATM   36  C   UNL     1      19.564  48.801  47.617  1.00  0.00     0.037 C 
ENDBRANCH  30  33
ENDBRANCH  28  29
ENDBRANCH  27  28
ENDBRANCH   2  27
TORSDOF 10
ENDMDL
MODEL 6
REMARK VINA RESULT:      -8.0      2.697     10.990
REMARK  10 active torsions:
REMARK  status: ('A' for Active; 'I' for Inactive)
REMARK    1  A    between atoms: C_2  and  O_3 
REMARK    2  A    between atoms: O_3  and  C_4 
REMARK    3  A    between atoms: C_5  and  O_6 
REMARK    4  A    between atoms: O_6  and  C_7 
REMARK    5  A    between atoms: C_7  and  C_8 
REMARK       I    between atoms: C_8  and  N_9 
REMARK    6  A    between atoms: N_9  and  C_10 
REMARK    7  A    between atoms: C_18  and  C_19 
REMARK    8  A    between atoms: C_19  and  N_20 
REMARK    9  A    between atoms: N_20  and  C_21 
REMARK   10  A    between atoms: C_24  and  N_25 
ROOT
HETATM    1  C   UNL     1      25.224  45.991  51.204  1.00  0.00     0.103 A 
HETATM    2  C   UNL     1      24.686  44.774  50.751  1.00  0.00     0.120 A 
HETATM    3  C   UNL     1      23.712  44.764  49.746  1.00  0.00     0.047 A 
HETATM    4 BR   UNL     1      22.880  43.161  49.170  1.00  0.00    -0.048 Br
HETATM    5  C   UNL     1      23.322  45.960  49.140  1.00  0.00     0.031 A 
HETATM    6  C   UNL     1      23.884  47.179  49.547  1.00  0.00    -0.036 A 
HETATM    7  C   UNL     1      24.834  47.183  50.584  1.00  0.00     0.048 A 
ENDROOT
BRANCH   6   8
HETATM    8  C   UNL     1      23.484  48.469  48.868  1.00  0.00     0.158 C 
BRANCH   8   9
HETATM    9  N   UNL     1      22.759  49.313  49.813  1.00  0.00    -0.386 N 
HETATM   10  H   UNL     1      23.339  50.065  50.184  1.00  0.00     0.160 HD
BRANCH   9  11
HETATM   11  C   UNL     1      21.453  49.713  49.542  1.00  0.00     0.028 A 
HETATM   12  C   UNL     1      20.525  48.920  48.857  1.00  0.00     0.031 A 
HETATM   13  C   UNL     1      19.207  49.351  48.654  1.00  0.00     0.039 A 
HETATM   14  C   UNL     1      18.790  50.578  49.167  1.00  0.00     0.134 A 
HETATM   15  C   UNL     1      19.680  51.359  49.902  1.00  0.00     0.039 A 
HETATM   16  C   UNL     1      20.993  50.917  50.096  1.00  0.00     0.031 A 
BRANCH  14  17
HETATM   17  N   UNL     1      17.408  51.024  48.901  1.00  0.00    -0.041 N 
HETATM   18  H   UNL     1      16.807  50.213  49.089  1.00  0.00     0.286 HD
HETATM   19  C   UNL     1      16.974  52.108  49.854  1.00  0.00     0.241 C 
HETATM   20  C   UNL     1      15.497  52.404  49.614  1.00  0.00     0.028 C 
HETATM   21  C   UNL     1      15.219  52.753  48.153  1.00  0.00     0.003 C 
HETATM   22  C   UNL     1      15.740  51.673  47.209  1.00  0.00     0.028 C 
HETATM   23  C   UNL     1      17.217  51.379  47.449  1.00  0.00     0.241 C 
ENDBRANCH  14  17
ENDBRANCH   9  11
ENDBRANCH   8   9
ENDBRANCH   6   8
BRANCH   1  24
HETATM   24  O   UNL     1      26.153  45.905  52.206  1.00  0.00    -0.349 OA
BRANCH  24  25
HETATM   25  C   UNL     1      25.715  46.109  53.549  1.00  0.00     0.171 C 
HETATM   26  C   UNL     1      26.175  47.467  54.046  1.00  0.00     0.034 C 
ENDBRANCH  24  25
ENDBRANCH   1  24
BRANCH   2  27
HETATM   27  O   UNL     1      25.087  43.606  51.354  1.00  0.00    -0.338 OA
BRANCH  27  28
HETATM   28  C   UNL     1      26.060  42.943  50.537  1.00  0.00     0.278 C 
BRANCH  28  29
HETATM   29  C   UNL     1      27.235  42.432  51.368  1.00  0.00     0.242 C 
HETATM   30  N   UNL     1      27.535  43.218  52.460  1.00  0.00    -0.351 N 
HETATM   31  H   UNL     1      26.845  43.933  52.679  1.00  0.00     0.163 HD
HETATM   32  O   UNL     1      27.875  41.440  51.030  1.00  0.00    -0.271 OA
BRANCH  30  33
HETATM   33  C   UNL     1      28.598  42.946  53.437  1.00  0.00     0.022 C 
HETATM   34  C   UNL     1      28.477  41.523  54.005  1.00  0.00     0.037 C 
HETATM   35  C   UNL     1      29.951  43.061  52.713  1.00  0.00     0.037 C 
HETATM   36  C   UNL     1      28.564  43.974  54.578  1.00  0.00     0.037 C 
ENDBRANCH  30  33
ENDBRANCH  28  29
ENDBRANCH  27  28
ENDBRANCH   2  27
TORSDOF 10
ENDMDL
MODEL 7
REMARK VINA RESULT:      -7.8      3.616     10.659
REMARK  10 active torsions:
REMARK  status: ('A' for Active; 'I' for Inactive)
REMARK    1  A    between atoms: C_2  and  O_3 
REMARK    2  A    between atoms: O_3  and  C_4 
REMARK    3  A    between atoms: C_5  and  O_6 
REMARK    4  A    between atoms: O_6  and  C_7 
REMARK    5  A    between atoms: C_7  and  C_8 
REMARK       I    between atoms: C_8  and  N_9 
REMARK    6  A    between atoms: N_9  and  C_10 
REMARK    7  A    between atoms: C_18  and  C_19 
REMARK    8  A    between atoms: C_19  and  N_20 
REMARK    9  A    between atoms: N_20  and  C_21 
REMARK   10  A    between atoms: C_24  and  N_25 
ROOT
HETATM    1  C   UNL     1      24.227  44.575  50.911  1.00  0.00     0.103 A 
HETATM    2  C   UNL     1      24.811  45.056  52.095  1.00  0.00     0.120 A 
HETATM    3  C   UNL     1      25.220  46.391  52.188  1.00  0.00     0.047 A 
HETATM    4 BR   UNL     1      26.106  47.065  53.723  1.00  0.00    -0.048 Br
HETATM    5  C   UNL     1      24.986  47.268  51.128  1.00  0.00     0.031 A 
HETATM    6  C   UNL     1      24.361  46.817  49.956  1.00  0.00    -0.036 A 
HETATM    7  C   UNL     1      23.987  45.465  49.858  1.00  0.00     0.048 A 
ENDROOT
BRANCH   6   8
HETATM    8  C   UNL     1      24.079  47.776  48.822  1.00  0.00     0.158 C 
BRANCH   8   9
HETATM    9  N   UNL     1      23.648  49.060  49.367  1.00  0.00    -0.386 N 
HETATM   10  H   UNL     1      24.344  49.791  49.231  1.00  0.00     0.160 HD
BRANCH   9  11
HETATM   11  C   UNL     1      22.343  49.505  49.171  1.00  0.00     0.028 A 
HETATM   12  C   UNL     1      21.237  48.651  49.074  1.00  0.00     0.031 A 
HETATM   13  C   UNL     1      19.938  49.154  48.926  1.00  0.00     0.039 A 
HETATM   14  C   UNL     1      19.724  50.532  48.907  1.00  0.00     0.134 A 
HETATM   15  C   UNL     1      20.802  51.402  49.060  1.00  0.00     0.039 A 
HETATM   16  C   UNL     1      22.094  50.886  49.206  1.00  0.00     0.031 A 
BRANCH  14  17
HETATM   17  N   UNL     1      18.350  51.033  48.709  1.00  0.00    -0.041 N 
HETATM   18  H   UNL     1      18.328  51.436  47.764  1.00  0.00     0.286 HD
HETATM   19  C   UNL     1      17.337  49.917  48.721  1.00  0.00     0.241 C 
HETATM   20  C   UNL     1      15.972  50.495  48.361  1.00  0.00     0.028 C 
HETATM   21  C   UNL     1      15.588  51.655  49.278  1.00  0.00     0.003 C 
HETATM   22  C   UNL     1      16.669  52.732  49.303  1.00  0.00     0.028 C 
HETATM   23  C   UNL     1      18.032  52.154  49.666  1.00  0.00     0.241 C 
ENDBRANCH  14  17
ENDBRANCH   9  11
ENDBRANCH   8   9
ENDBRANCH   6   8
BRANCH   1  24
HETATM   24  O   UNL     1      23.880  43.251  50.903  1.00  0.00    -0.349 OA
BRANCH  24  25
HETATM   25  C   UNL     1      22.833  42.835  50.026  1.00  0.00     0.171 C 
HETATM   26  C   UNL     1      23.391  41.933  48.941  1.00  0.00     0.034 C 
ENDBRANCH  24  25
ENDBRANCH   1  24
BRANCH   2  27
HETATM   27  O   UNL     1      25.028  44.180  53.132  1.00  0.00    -0.338 OA
BRANCH  27  28
HETATM   28  C   UNL     1      26.435  44.015  53.347  1.00  0.00     0.278 C 
BRANCH  28  29
HETATM   29  C   UNL     1      27.111  43.349  52.150  1.00  0.00     0.242 C 
HETATM   30  N   UNL     1      26.586  42.117  51.823  1.00  0.00    -0.351 N 
HETATM   31  H   UNL     1      25.717  41.879  52.295  1.00  0.00     0.163 HD
HETATM   32  O   UNL     1      28.076  43.863  51.592  1.00  0.00    -0.271 OA
BRANCH  30  33
HETATM   33  C   UNL     1      27.032  41.273  50.706  1.00  0.00     0.022 C 
HETATM   34  C   UNL     1      27.085  42.073  49.395  1.00  0.00     0.037 C 
HETATM   35  C   UNL     1      28.453  40.774  51.023  1.00  0.00     0.037 C 
HETATM   36  C   UNL     1      26.110  40.055  50.543  1.00  0.00     0.037 C 
ENDBRANCH  30  33
ENDBRANCH  28  29
ENDBRANCH  27  28
ENDBRANCH   2  27
TORSDOF 10
ENDMDL
MODEL 8
REMARK VINA RESULT:      -7.7      1.999      3.130
REMARK  10 active torsions:
REMARK  status: ('A' for Active; 'I' for Inactive)
REMARK    1  A    between atoms: C_2  and  O_3 
REMARK    2  A    between atoms: O_3  and  C_4 
REMARK    3  A    between atoms: C_5  and  O_6 
REMARK    4  A    between atoms: O_6  and  C_7 
REMARK    5  A    between atoms: C_7  and  C_8 
REMARK       I    between atoms: C_8  and  N_9 
REMARK    6  A    between atoms: N_9  and  C_10 
REMARK    7  A    between atoms: C_18  and  C_19 
REMARK    8  A    between atoms: C_19  and  N_20 
REMARK    9  A    between atoms: N_20  and  C_21 
REMARK   10  A    between atoms: C_24  and  N_25 
ROOT
HETATM    1  C   UNL     1      22.394  44.600  48.724  1.00  0.00     0.103 A 
HETATM    2  C   UNL     1      22.755  45.957  48.658  1.00  0.00     0.120 A 
HETATM    3  C   UNL     1      23.740  46.466  49.511  1.00  0.00     0.047 A 
HETATM    4 BR   UNL     1      24.194  48.307  49.535  1.00  0.00    -0.048 Br
HETATM    5  C   UNL     1      24.418  45.612  50.383  1.00  0.00     0.031 A 
HETATM    6  C   UNL     1      24.104  44.246  50.428  1.00  0.00    -0.036 A 
HETATM    7  C   UNL     1      23.086  43.751  49.594  1.00  0.00     0.048 A 
ENDROOT
BRANCH   6   8
HETATM    8  C   UNL     1      24.861  43.317  51.349  1.00  0.00     0.158 C 
BRANCH   8   9
HETATM    9  N   UNL     1      26.291  43.420  51.077  1.00  0.00    -0.386 N 
HETATM   10  H   UNL     1      26.488  43.982  50.250  1.00  0.00     0.160 HD
BRANCH   9  11
HETATM   11  C   UNL     1      27.192  43.643  52.115  1.00  0.00     0.028 A 
HETATM   12  C   UNL     1      28.452  43.039  52.193  1.00  0.00     0.031 A 
HETATM   13  C   UNL     1      29.340  43.336  53.235  1.00  0.00     0.039 A 
HETATM   14  C   UNL     1      28.987  44.275  54.203  1.00  0.00     0.134 A 
HETATM   15  C   UNL     1      27.762  44.933  54.114  1.00  0.00     0.039 A 
HETATM   16  C   UNL     1      26.884  44.625  53.069  1.00  0.00     0.031 A 
BRANCH  14  17
HETATM   17  N   UNL     1      29.926  44.537  55.311  1.00  0.00    -0.041 N 
HETATM   18  H   UNL     1      30.673  45.123  54.919  1.00  0.00     0.286 HD
HETATM   19  C   UNL     1      29.285  45.342  56.413  1.00  0.00     0.241 C 
HETATM   20  C   UNL     1      30.354  45.697  57.441  1.00  0.00     0.028 C 
HETATM   21  C   UNL     1      31.078  44.456  57.958  1.00  0.00     0.003 C 
HETATM   22  C   UNL     1      31.649  43.622  56.814  1.00  0.00     0.028 C 
HETATM   23  C   UNL     1      30.579  43.265  55.789  1.00  0.00     0.241 C 
ENDBRANCH  14  17
ENDBRANCH   9  11
ENDBRANCH   8   9
ENDBRANCH   6   8
BRANCH   1  24
HETATM   24  O   UNL     1      21.404  44.197  47.868  1.00  0.00    -0.349 OA
BRANCH  24  25
HETATM   25  C   UNL     1      21.788  43.646  46.608  1.00  0.00     0.171 C 
HETATM   26  C   UNL     1      20.840  42.526  46.219  1.00  0.00     0.034 C 
ENDBRANCH  24  25
ENDBRANCH   1  24
BRANCH   2  27
HETATM   27  O   UNL     1      22.082  46.782  47.789  1.00  0.00    -0.338 OA
BRANCH  27  28
HETATM   28  C   UNL     1      20.860  47.231  48.387  1.00  0.00     0.278 C 
BRANCH  28  29
HETATM   29  C   UNL     1      20.629  48.720  48.139  1.00  0.00     0.242 C 
HETATM   30  N   UNL     1      19.479  49.213  48.717  1.00  0.00    -0.351 N 
HETATM   31  H   UNL     1      19.021  48.583  49.372  1.00  0.00     0.163 HD
HETATM   32  O   UNL     1      21.386  49.376  47.429  1.00  0.00    -0.271 OA
BRANCH  30  33
HETATM   33  C   UNL     1      19.028  50.610  48.656  1.00  0.00     0.022 C 
HETATM   34  C   UNL     1      20.202  51.579  48.869  1.00  0.00     0.037 C 
HETATM   35  C   UNL     1      18.445  50.861  47.254  1.00  0.00     0.037 C 
HETATM   36  C   UNL     1      17.931  50.874  49.698  1.00  0.00     0.037 C 
ENDBRANCH  30  33
ENDBRANCH  28  29
ENDBRANCH  27  28
ENDBRANCH   2  27
TORSDOF 10
ENDMDL
MODEL 9
REMARK VINA RESULT:      -7.6      2.743      4.364
REMARK  10 active torsions:
REMARK  status: ('A' for Active; 'I' for Inactive)
REMARK    1  A    between atoms: C_2  and  O_3 
REMARK    2  A    between atoms: O_3  and  C_4 
REMARK    3  A    between atoms: C_5  and  O_6 
REMARK    4  A    between atoms: O_6  and  C_7 
REMARK    5  A    between atoms: C_7  and  C_8 
REMARK       I    between atoms: C_8  and  N_9 
REMARK    6  A    between atoms: N_9  and  C_10 
REMARK    7  A    between atoms: C_18  and  C_19 
REMARK    8  A    between atoms: C_19  and  N_20 
REMARK    9  A    between atoms: N_20  and  C_21 
REMARK   10  A    between atoms: C_24  and  N_25 
ROOT
HETATM    1  C   UNL     1      20.651  45.645  48.275  1.00  0.00     0.103 A 
HETATM    2  C   UNL     1      20.827  47.036  48.380  1.00  0.00     0.120 A 
HETATM    3  C   UNL     1      22.067  47.562  48.757  1.00  0.00     0.047 A 
HETATM    4 BR   UNL     1      22.332  49.423  49.013  1.00  0.00    -0.048 Br
HETATM    5  C   UNL     1      23.153  46.711  48.964  1.00  0.00     0.031 A 
HETATM    6  C   UNL     1      23.007  45.323  48.817  1.00  0.00    -0.036 A 
HETATM    7  C   UNL     1      21.748  44.801  48.474  1.00  0.00     0.048 A 
ENDROOT
BRANCH   6   8
HETATM    8  C   UNL     1      24.193  44.406  49.010  1.00  0.00     0.158 C 
BRANCH   8   9
HETATM    9  N   UNL     1      25.378  45.200  49.323  1.00  0.00    -0.386 N 
HETATM   10  H   UNL     1      25.227  46.196  49.170  1.00  0.00     0.160 HD
BRANCH   9  11
HETATM   11  C   UNL     1      26.124  44.929  50.467  1.00  0.00     0.028 A 
HETATM   12  C   UNL     1      27.260  44.110  50.477  1.00  0.00     0.031 A 
HETATM   13  C   UNL     1      28.004  43.911  51.647  1.00  0.00     0.039 A 
HETATM   14  C   UNL     1      27.636  44.561  52.824  1.00  0.00     0.134 A 
HETATM   15  C   UNL     1      26.544  45.426  52.825  1.00  0.00     0.039 A 
HETATM   16  C   UNL     1      25.809  45.615  51.650  1.00  0.00     0.031 A 
BRANCH  14  17
HETATM   17  N   UNL     1      28.414  44.299  54.051  1.00  0.00    -0.041 N 
HETATM   18  H   UNL     1      27.816  43.714  54.648  1.00  0.00     0.286 HD
HETATM   19  C   UNL     1      29.656  43.493  53.769  1.00  0.00     0.241 C 
HETATM   20  C   UNL     1      30.318  43.139  55.097  1.00  0.00     0.028 C 
HETATM   21  C   UNL     1      30.596  44.380  55.941  1.00  0.00     0.003 C 
HETATM   22  C   UNL     1      29.335  45.215  56.144  1.00  0.00     0.028 C 
HETATM   23  C   UNL     1      28.676  45.571  54.816  1.00  0.00     0.241 C 
ENDBRANCH  14  17
ENDBRANCH   9  11
ENDBRANCH   8   9
ENDBRANCH   6   8
BRANCH   1  24
HETATM   24  O   UNL     1      19.397  45.221  47.922  1.00  0.00    -0.349 OA
BRANCH  24  25
HETATM   25  C   UNL     1      19.284  44.261  46.870  1.00  0.00     0.171 C 
HETATM   26  C   UNL     1      18.228  44.704  45.874  1.00  0.00     0.034 C 
ENDBRANCH  24  25
ENDBRANCH   1  24
BRANCH   2  27
HETATM   27  O   UNL     1      19.748  47.860  48.165  1.00  0.00    -0.338 OA
BRANCH  27  28
HETATM   28  C   UNL     1      18.993  48.001  49.374  1.00  0.00     0.278 C 
BRANCH  28  29
HETATM   29  C   UNL     1      18.606  49.456  49.627  1.00  0.00     0.242 C 
HETATM   30  N   UNL     1      18.326  50.170  48.482  1.00  0.00    -0.351 N 
HETATM   31  H   UNL     1      18.241  49.612  47.636  1.00  0.00     0.163 HD
HETATM   32  O   UNL     1      18.615  49.934  50.759  1.00  0.00    -0.271 OA
BRANCH  30  33
HETATM   33  C   UNL     1      17.908  51.578  48.439  1.00  0.00     0.022 C 
HETATM   34  C   UNL     1      17.007  51.924  49.636  1.00  0.00     0.037 C 
HETATM   35  C   UNL     1      19.171  52.453  48.519  1.00  0.00     0.037 C 
HETATM   36  C   UNL     1      17.178  51.889  47.124  1.00  0.00     0.037 C 
ENDBRANCH  30  33
ENDBRANCH  28  29
ENDBRANCH  27  28
ENDBRANCH   2  27
TORSDOF 10
ENDMDL
MODEL 10
REMARK VINA RESULT:      -7.5      3.043     11.626
REMARK  10 active torsions:
REMARK  status: ('A' for Active; 'I' for Inactive)
REMARK    1  A    between atoms: C_2  and  O_3 
REMARK    2  A    between atoms: O_3  and  C_4 
REMARK    3  A    between atoms: C_5  and  O_6 
REMARK    4  A    between atoms: O_6  and  C_7 
REMARK    5  A    between atoms: C_7  and  C_8 
REMARK       I    between atoms: C_8  and  N_9 
REMARK    6  A    between atoms: N_9  and  C_10 
REMARK    7  A    between atoms: C_18  and  C_19 
REMARK    8  A    between atoms: C_19  and  N_20 
REMARK    9  A    between atoms: N_20  and  C_21 
REMARK   10  A    between atoms: C_24  and  N_25 
ROOT
HETATM    1  C   UNL     1      24.158  45.011  49.268  1.00  0.00     0.103 A 
HETATM    2  C   UNL     1      25.288  45.775  49.605  1.00  0.00     0.120 A 
HETATM    3  C   UNL     1      25.249  47.170  49.515  1.00  0.00     0.047 A 
HETATM    4 BR   UNL     1      26.775  48.242  49.859  1.00  0.00    -0.048 Br
HETATM    5  C   UNL     1      24.063  47.813  49.156  1.00  0.00     0.031 A 
HETATM    6  C   UNL     1      22.911  47.069  48.862  1.00  0.00    -0.036 A 
HETATM    7  C   UNL     1      22.971  45.665  48.919  1.00  0.00     0.048 A 
ENDROOT
BRANCH   6   8
HETATM    8  C   UNL     1      21.620  47.768  48.504  1.00  0.00     0.158 C 
BRANCH   8   9
HETATM    9  N   UNL     1      21.301  48.756  49.531  1.00  0.00    -0.386 N 
HETATM   10  H   UNL     1      22.135  49.199  49.914  1.00  0.00     0.160 HD
BRANCH   9  11
HETATM   11  C   UNL     1      20.244  49.645  49.349  1.00  0.00     0.028 A 
HETATM   12  C   UNL     1      19.198  49.805  50.265  1.00  0.00     0.031 A 
HETATM   13  C   UNL     1      18.185  50.750  50.056  1.00  0.00     0.039 A 
HETATM   14  C   UNL     1      18.225  51.576  48.934  1.00  0.00     0.134 A 
HETATM   15  C   UNL     1      19.287  51.475  48.038  1.00  0.00     0.039 A 
HETATM   16  C   UNL     1      20.292  50.527  48.258  1.00  0.00     0.031 A 
BRANCH  14  17
HETATM   17  N   UNL     1      17.122  52.533  48.719  1.00  0.00    -0.041 N 
HETATM   18  H   UNL     1      17.548  53.365  48.290  1.00  0.00     0.286 HD
HETATM   19  C   UNL     1      16.110  52.013  47.732  1.00  0.00     0.241 C 
HETATM   20  C   UNL     1      15.092  53.115  47.453  1.00  0.00     0.028 C 
HETATM   21  C   UNL     1      14.453  53.636  48.738  1.00  0.00     0.003 C 
HETATM   22  C   UNL     1      15.507  54.083  49.747  1.00  0.00     0.028 C 
HETATM   23  C   UNL     1      16.522  52.981  50.028  1.00  0.00     0.241 C 
ENDBRANCH  14  17
ENDBRANCH   9  11
ENDBRANCH   8   9
ENDBRANCH   6   8
BRANCH   1  24
HETATM   24  O   UNL     1      24.296  43.652  49.364  1.00  0.00    -0.349 OA
BRANCH  24  25
HETATM   25  C   UNL     1      23.141  42.880  49.690  1.00  0.00     0.171 C 
HETATM   26  C   UNL     1      22.927  41.798  48.648  1.00  0.00     0.034 C 
ENDBRANCH  24  25
ENDBRANCH   1  24
BRANCH   2  27
HETATM   27  O   UNL     1      26.445  45.125  49.964  1.00  0.00    -0.338 OA
BRANCH  27  28
HETATM   28  C   UNL     1      26.562  45.086  51.391  1.00  0.00     0.278 C 
BRANCH  28  29
HETATM   29  C   UNL     1      27.461  43.940  51.849  1.00  0.00     0.242 C 
HETATM   30  N   UNL     1      28.117  44.181  53.038  1.00  0.00    -0.351 N 
HETATM   31  H   UNL     1      27.798  45.002  53.547  1.00  0.00     0.163 HD
HETATM   32  O   UNL     1      27.614  42.933  51.164  1.00  0.00    -0.271 OA
BRANCH  30  33
HETATM   33  C   UNL     1      29.022  43.243  53.714  1.00  0.00     0.022 C 
HETATM   34  C   UNL     1      29.544  43.832  55.035  1.00  0.00     0.037 C 
HETATM   35  C   UNL     1      28.229  41.965  54.038  1.00  0.00     0.037 C 
HETATM   36  C   UNL     1      30.201  42.870  52.802  1.00  0.00     0.037 C 
ENDBRANCH  30  33
ENDBRANCH  28  29
ENDBRANCH  27  28
ENDBRANCH   2  27
TORSDOF 10
ENDMDL
