MODEL 1
REMARK VINA RESULT:      -8.4      0.000      0.000
REMARK  5 active torsions:
REMARK  status: ('A' for Active; 'I' for Inactive)
REMARK    1  A    between atoms: C_8  and  N_9 
REMARK       I    between atoms: N_9  and  C_10 
REMARK    2  A    between atoms: C_10  and  C_11 
REMARK    3  A    between atoms: C_11  and  N_12 
REMARK    4  A    between atoms: N_12  and  C_13 
REMARK    5  A    between atoms: C_13  and  C_14 
ROOT
HETATM    1  C   UNL     1      25.547  45.529  51.545  1.00  0.00     0.372 C 
ENDROOT
BRANCH   1   2
HETATM    2  C   UNL     1      25.661  46.259  50.196  1.00  0.00     0.250 C 
HETATM    3  N   UNL     1      25.281  47.580  50.286  1.00  0.00    -0.322 N 
HETATM    4  H   UNL     1      24.994  47.871  51.219  1.00  0.00     0.169 HD
HETATM    5  O   UNL     1      26.080  45.672  49.205  1.00  0.00    -0.271 OA
BRANCH   3   6
HETATM    6  C   UNL     1      25.210  48.522  49.278  1.00  0.00     0.085 A 
HETATM    7  C   UNL     1      26.342  49.160  48.808  1.00  0.00     0.052 A 
HETATM    8  C   UNL     1      27.775  49.054  49.172  1.00  0.00     0.072 C 
HETATM    9  N   UNL     1      25.913  50.021  47.839  1.00  0.00    -0.280 N 
HETATM   10  H   UNL     1      26.465  50.656  47.274  1.00  0.00     0.189 HD
HETATM   11  N   UNL     1      24.592  49.997  47.642  1.00  0.00    -0.177 NA
HETATM   12  C   UNL     1      24.143  49.079  48.514  1.00  0.00     0.079 A 
HETATM   13  C   UNL     1      22.685  48.806  48.548  1.00  0.00     0.075 C 
ENDBRANCH   3   6
ENDBRANCH   1   2
BRANCH   1  14
HETATM   14  N   UNL     1      26.565  46.035  52.493  1.00  0.00     0.100 N 
HETATM   15  H   UNL     1      26.310  46.994  52.741  1.00  0.00     0.317 HD
BRANCH  14  16
HETATM   16  C   UNL     1      26.669  45.259  53.745  1.00  0.00     0.251 C 
HETATM   17  C   UNL     1      25.390  44.445  54.005  1.00  0.00     0.048 C 
BRANCH  16  18
HETATM   18  C   UNL     1      27.982  44.490  53.870  1.00  0.00    -0.002 A 
HETATM   19  C   UNL     1      28.849  44.671  54.974  1.00  0.00     0.064 A 
HETATM   20 CL   UNL     1      28.439  45.794  56.238  1.00  0.00    -0.082 Cl
HETATM   21  C   UNL     1      30.052  43.945  55.056  1.00  0.00     0.056 A 
HETATM   22 CL   UNL     1      31.152  44.106  56.383  1.00  0.00    -0.083 Cl
HETATM   23  C   UNL     1      30.407  43.047  54.048  1.00  0.00     0.026 A 
HETATM   24  C   UNL     1      29.572  42.870  52.951  1.00  0.00     0.002 A 
HETATM   25  C   UNL     1      28.376  43.584  52.862  1.00  0.00     0.011 A 
ENDBRANCH  16  18
ENDBRANCH  14  16
ENDBRANCH   1  14
TORSDOF 5
ENDMDL
MODEL 2
REMARK VINA RESULT:      -8.3      1.197      2.152
REMARK  5 active torsions:
REMARK  status: ('A' for Active; 'I' for Inactive)
REMARK    1  A    between atoms: C_8  and  N_9 
REMARK       I    between atoms: N_9  and  C_10 
REMARK    2  A    between atoms: C_10  and  C_11 
REMARK    3  A    between atoms: C_11  and  N_12 
REMARK    4  A    between atoms: N_12  and  C_13 
REMARK    5  A    between atoms: C_13  and  C_14 
ROOT
HETATM    1  C   UNL     1      25.436  45.219  51.770  1.00  0.00     0.372 C 
ENDROOT
BRANCH   1   2
HETATM    2  C   UNL     1      25.353  46.714  51.417  1.00  0.00     0.250 C 
HETATM    3  N   UNL     1      25.311  46.926  50.057  1.00  0.00    -0.322 N 
HETATM    4  H   UNL     1      25.334  46.075  49.499  1.00  0.00     0.169 HD
HETATM    5  O   UNL     1      25.302  47.559  52.304  1.00  0.00    -0.271 OA
BRANCH   3   6
HETATM    6  C   UNL     1      25.282  48.129  49.377  1.00  0.00     0.085 A 
HETATM    7  C   UNL     1      24.092  48.676  48.935  1.00  0.00     0.052 A 
HETATM    8  C   UNL     1      22.684  48.223  49.034  1.00  0.00     0.072 C 
HETATM    9  N   UNL     1      24.426  49.840  48.305  1.00  0.00    -0.280 N 
HETATM   10  H   UNL     1      23.811  50.509  47.854  1.00  0.00     0.189 HD
HETATM   11  N   UNL     1      25.737  50.093  48.298  1.00  0.00    -0.177 NA
HETATM   12  C   UNL     1      26.279  49.056  48.956  1.00  0.00     0.079 A 
HETATM   13  C   UNL     1      27.753  49.035  49.129  1.00  0.00     0.075 C 
ENDBRANCH   3   6
ENDBRANCH   1   2
BRANCH   1  14
HETATM   14  N   UNL     1      26.743  44.909  52.394  1.00  0.00     0.100 N 
HETATM   15  H   UNL     1      27.421  45.598  52.058  1.00  0.00     0.317 HD
BRANCH  14  16
HETATM   16  C   UNL     1      26.739  44.966  53.870  1.00  0.00     0.251 C 
HETATM   17  C   UNL     1      25.513  44.244  54.453  1.00  0.00     0.048 C 
BRANCH  16  18
HETATM   18  C   UNL     1      28.084  44.596  54.491  1.00  0.00    -0.002 A 
HETATM   19  C   UNL     1      28.681  45.388  55.501  1.00  0.00     0.064 A 
HETATM   20 CL   UNL     1      27.889  46.829  56.071  1.00  0.00    -0.082 Cl
HETATM   21  C   UNL     1      29.923  45.017  56.050  1.00  0.00     0.056 A 
HETATM   22 CL   UNL     1      30.704  45.930  57.296  1.00  0.00    -0.083 Cl
HETATM   23  C   UNL     1      30.582  43.871  55.600  1.00  0.00     0.026 A 
HETATM   24  C   UNL     1      30.014  43.092  54.599  1.00  0.00     0.002 A 
HETATM   25  C   UNL     1      28.782  43.451  54.049  1.00  0.00     0.011 A 
ENDBRANCH  16  18
ENDBRANCH  14  16
ENDBRANCH   1  14
TORSDOF 5
ENDMDL
MODEL 3
REMARK VINA RESULT:      -8.2      4.457      5.742
REMARK  5 active torsions:
REMARK  status: ('A' for Active; 'I' for Inactive)
REMARK    1  A    between atoms: C_8  and  N_9 
REMARK       I    between atoms: N_9  and  C_10 
REMARK    2  A    between atoms: C_10  and  C_11 
REMARK    3  A    between atoms: C_11  and  N_12 
REMARK    4  A    between atoms: N_12  and  C_13 
REMARK    5  A    between atoms: C_13  and  C_14 
ROOT
HETATM    1  C   UNL     1      26.094  45.258  53.817  1.00  0.00     0.372 C 
ENDROOT
BRANCH   1   2
HETATM    2  C   UNL     1      25.899  44.088  52.839  1.00  0.00     0.250 C 
HETATM    3  N   UNL     1      27.078  43.424  52.579  1.00  0.00    -0.322 N 
HETATM    4  H   UNL     1      27.886  43.799  53.072  1.00  0.00     0.169 HD
HETATM    5  O   UNL     1      24.783  43.819  52.407  1.00  0.00    -0.271 OA
BRANCH   3   6
HETATM    6  C   UNL     1      27.294  42.363  51.721  1.00  0.00     0.085 A 
HETATM    7  C   UNL     1      27.902  41.200  52.155  1.00  0.00     0.052 A 
HETATM    8  C   UNL     1      28.432  40.779  53.474  1.00  0.00     0.072 C 
HETATM    9  N   UNL     1      27.965  40.381  51.065  1.00  0.00    -0.280 N 
HETATM   10  H   UNL     1      28.349  39.444  51.005  1.00  0.00     0.189 HD
HETATM   11  N   UNL     1      27.450  40.918  49.955  1.00  0.00    -0.177 NA
HETATM   12  C   UNL     1      27.029  42.134  50.340  1.00  0.00     0.079 A 
HETATM   13  C   UNL     1      26.391  43.004  49.320  1.00  0.00     0.075 C 
ENDBRANCH   3   6
ENDBRANCH   1   2
BRANCH   1  14
HETATM   14  N   UNL     1      27.089  44.902  54.854  1.00  0.00     0.100 N 
HETATM   15  H   UNL     1      27.419  43.954  54.657  1.00  0.00     0.317 HD
BRANCH  14  16
HETATM   16  C   UNL     1      28.269  45.789  54.894  1.00  0.00     0.251 C 
HETATM   17  C   UNL     1      27.864  47.264  54.729  1.00  0.00     0.048 C 
BRANCH  16  18
HETATM   18  C   UNL     1      29.212  45.487  56.055  1.00  0.00    -0.002 A 
HETATM   19  C   UNL     1      30.188  44.464  55.975  1.00  0.00     0.064 A 
HETATM   20 CL   UNL     1      30.341  43.507  54.530  1.00  0.00    -0.082 Cl
HETATM   21  C   UNL     1      31.041  44.212  57.066  1.00  0.00     0.056 A 
HETATM   22 CL   UNL     1      32.265  42.988  57.033  1.00  0.00    -0.083 Cl
HETATM   23  C   UNL     1      30.928  44.959  58.240  1.00  0.00     0.026 A 
HETATM   24  C   UNL     1      29.965  45.956  58.338  1.00  0.00     0.002 A 
HETATM   25  C   UNL     1      29.116  46.215  57.261  1.00  0.00     0.011 A 
ENDBRANCH  16  18
ENDBRANCH  14  16
ENDBRANCH   1  14
TORSDOF 5
ENDMDL
MODEL 4
REMARK VINA RESULT:      -8.1      2.746      4.036
REMARK  5 active torsions:
REMARK  status: ('A' for Active; 'I' for Inactive)
REMARK    1  A    between atoms: C_8  and  N_9 
REMARK       I    between atoms: N_9  and  C_10 
REMARK    2  A    between atoms: C_10  and  C_11 
REMARK    3  A    between atoms: C_11  and  N_12 
REMARK    4  A    between atoms: N_12  and  C_13 
REMARK    5  A    between atoms: C_13  and  C_14 
ROOT
HETATM    1  C   UNL     1      26.925  43.807  53.542  1.00  0.00     0.372 C 
ENDROOT
BRANCH   1   2
HETATM    2  C   UNL     1      25.567  44.188  52.931  1.00  0.00     0.250 C 
HETATM    3  N   UNL     1      25.652  44.420  51.575  1.00  0.00    -0.322 N 
HETATM    4  H   UNL     1      26.586  44.298  51.188  1.00  0.00     0.169 HD
HETATM    5  O   UNL     1      24.560  44.229  53.630  1.00  0.00    -0.271 OA
BRANCH   3   6
HETATM    6  C   UNL     1      24.654  44.824  50.709  1.00  0.00     0.085 A 
HETATM    7  C   UNL     1      24.493  46.153  50.367  1.00  0.00     0.052 A 
HETATM    8  C   UNL     1      25.226  47.382  50.755  1.00  0.00     0.072 C 
HETATM    9  N   UNL     1      23.425  46.195  49.517  1.00  0.00    -0.280 N 
HETATM   10  H   UNL     1      23.015  47.003  49.064  1.00  0.00     0.189 HD
HETATM   11  N   UNL     1      22.877  45.000  49.281  1.00  0.00    -0.177 NA
HETATM   12  C   UNL     1      23.621  44.144  50.001  1.00  0.00     0.079 A 
HETATM   13  C   UNL     1      23.267  42.704  49.953  1.00  0.00     0.075 C 
ENDBRANCH   3   6
ENDBRANCH   1   2
BRANCH   1  14
HETATM   14  N   UNL     1      27.121  44.501  54.836  1.00  0.00     0.100 N 
HETATM   15  H   UNL     1      27.343  43.792  55.539  1.00  0.00     0.317 HD
BRANCH  14  16
HETATM   16  C   UNL     1      28.215  45.492  54.834  1.00  0.00     0.251 C 
HETATM   17  C   UNL     1      27.678  46.917  54.617  1.00  0.00     0.048 C 
BRANCH  16  18
HETATM   18  C   UNL     1      29.186  45.320  55.999  1.00  0.00    -0.002 A 
HETATM   19  C   UNL     1      30.208  44.340  55.979  1.00  0.00     0.064 A 
HETATM   20 CL   UNL     1      30.388  43.287  54.605  1.00  0.00    -0.082 Cl
HETATM   21  C   UNL     1      31.085  44.209  57.072  1.00  0.00     0.056 A 
HETATM   22 CL   UNL     1      32.365  43.043  57.109  1.00  0.00    -0.083 Cl
HETATM   23  C   UNL     1      30.952  45.034  58.190  1.00  0.00     0.026 A 
HETATM   24  C   UNL     1      29.944  45.991  58.230  1.00  0.00     0.002 A 
HETATM   25  C   UNL     1      29.071  46.130  57.149  1.00  0.00     0.011 A 
ENDBRANCH  16  18
ENDBRANCH  14  16
ENDBRANCH   1  14
TORSDOF 5
ENDMDL
MODEL 5
REMARK VINA RESULT:      -8.0      2.048      3.260
REMARK  5 active torsions:
REMARK  status: ('A' for Active; 'I' for Inactive)
REMARK    1  A    between atoms: C_8  and  N_9 
REMARK       I    between atoms: N_9  and  C_10 
REMARK    2  A    between atoms: C_10  and  C_11 
REMARK    3  A    between atoms: C_11  and  N_12 
REMARK    4  A    between atoms: N_12  and  C_13 
REMARK    5  A    between atoms: C_13  and  C_14 
ROOT
HETATM    1  C   UNL     1      27.268  43.267  51.821  1.00  0.00     0.372 C 
ENDROOT
BRANCH   1   2
HETATM    2  C   UNL     1      26.669  44.146  50.710  1.00  0.00     0.250 C 
HETATM    3  N   UNL     1      25.439  44.659  51.058  1.00  0.00    -0.322 N 
HETATM    4  H   UNL     1      25.120  44.389  51.987  1.00  0.00     0.169 HD
HETATM    5  O   UNL     1      27.292  44.346  49.673  1.00  0.00    -0.271 OA
BRANCH   3   6
HETATM    6  C   UNL     1      24.592  45.445  50.300  1.00  0.00     0.085 A 
HETATM    7  C   UNL     1      23.390  44.956  49.824  1.00  0.00     0.052 A 
HETATM    8  C   UNL     1      22.724  43.638  49.956  1.00  0.00     0.072 C 
HETATM    9  N   UNL     1      22.823  45.977  49.119  1.00  0.00    -0.280 N 
HETATM   10  H   UNL     1      21.937  45.983  48.626  1.00  0.00     0.189 HD
HETATM   11  N   UNL     1      23.559  47.091  49.094  1.00  0.00    -0.177 NA
HETATM   12  C   UNL     1      24.648  46.785  49.819  1.00  0.00     0.079 A 
HETATM   13  C   UNL     1      25.686  47.832  49.990  1.00  0.00     0.075 C 
ENDBRANCH   3   6
ENDBRANCH   1   2
BRANCH   1  14
HETATM   14  N   UNL     1      28.333  44.002  52.542  1.00  0.00     0.100 N 
HETATM   15  H   UNL     1      28.565  44.833  51.992  1.00  0.00     0.317 HD
BRANCH  14  16
HETATM   16  C   UNL     1      27.952  44.451  53.896  1.00  0.00     0.251 C 
HETATM   17  C   UNL     1      26.611  43.836  54.331  1.00  0.00     0.048 C 
BRANCH  16  18
HETATM   18  C   UNL     1      29.089  44.346  54.908  1.00  0.00    -0.002 A 
HETATM   19  C   UNL     1      29.264  45.307  55.934  1.00  0.00     0.064 A 
HETATM   20 CL   UNL     1      28.173  46.654  56.071  1.00  0.00    -0.082 Cl
HETATM   21  C   UNL     1      30.325  45.178  56.850  1.00  0.00     0.056 A 
HETATM   22 CL   UNL     1      30.591  46.306  58.137  1.00  0.00    -0.083 Cl
HETATM   23  C   UNL     1      31.220  44.111  56.752  1.00  0.00     0.026 A 
HETATM   24  C   UNL     1      31.069  43.169  55.741  1.00  0.00     0.002 A 
HETATM   25  C   UNL     1      30.018  43.287  54.830  1.00  0.00     0.011 A 
ENDBRANCH  16  18
ENDBRANCH  14  16
ENDBRANCH   1  14
TORSDOF 5
ENDMDL
MODEL 6
REMARK VINA RESULT:      -7.9      1.514      2.093
REMARK  5 active torsions:
REMARK  status: ('A' for Active; 'I' for Inactive)
REMARK    1  A    between atoms: C_8  and  N_9 
REMARK       I    between atoms: N_9  and  C_10 
REMARK    2  A    between atoms: C_10  and  C_11 
REMARK    3  A    between atoms: C_11  and  N_12 
REMARK    4  A    between atoms: N_12  and  C_13 
REMARK    5  A    between atoms: C_13  and  C_14 
ROOT
HETATM    1  C   UNL     1      25.840  45.113  51.542  1.00  0.00     0.372 C 
ENDROOT
BRANCH   1   2
HETATM    2  C   UNL     1      25.567  46.608  51.305  1.00  0.00     0.250 C 
HETATM    3  N   UNL     1      25.349  46.892  49.975  1.00  0.00    -0.322 N 
HETATM    4  H   UNL     1      25.392  46.082  49.361  1.00  0.00     0.169 HD
HETATM    5  O   UNL     1      25.534  47.390  52.248  1.00  0.00    -0.271 OA
BRANCH   3   6
HETATM    6  C   UNL     1      25.121  48.122  49.388  1.00  0.00     0.085 A 
HETATM    7  C   UNL     1      26.166  48.943  49.008  1.00  0.00     0.052 A 
HETATM    8  C   UNL     1      27.638  48.792  49.092  1.00  0.00     0.072 C 
HETATM    9  N   UNL     1      25.591  50.063  48.481  1.00  0.00    -0.280 N 
HETATM   10  H   UNL     1      26.048  50.883  48.100  1.00  0.00     0.189 HD
HETATM   11  N   UNL     1      24.256  50.039  48.489  1.00  0.00    -0.177 NA
HETATM   12  C   UNL     1      23.948  48.853  49.038  1.00  0.00     0.079 A 
HETATM   13  C   UNL     1      22.513  48.508  49.192  1.00  0.00     0.075 C 
ENDBRANCH   3   6
ENDBRANCH   1   2
BRANCH   1  14
HETATM   14  N   UNL     1      26.169  44.868  52.965  1.00  0.00     0.100 N 
HETATM   15  H   UNL     1      25.384  44.362  53.384  1.00  0.00     0.317 HD
BRANCH  14  16
HETATM   16  C   UNL     1      27.388  44.062  53.177  1.00  0.00     0.251 C 
HETATM   17  C   UNL     1      28.046  43.683  51.839  1.00  0.00     0.048 C 
BRANCH  16  18
HETATM   18  C   UNL     1      28.322  44.648  54.232  1.00  0.00    -0.002 A 
HETATM   19  C   UNL     1      29.380  43.892  54.792  1.00  0.00     0.064 A 
HETATM   20 CL   UNL     1      29.650  42.249  54.287  1.00  0.00    -0.082 Cl
HETATM   21  C   UNL     1      30.222  44.464  55.764  1.00  0.00     0.056 A 
HETATM   22 CL   UNL     1      31.543  43.604  56.481  1.00  0.00    -0.083 Cl
HETATM   23  C   UNL     1      30.018  45.777  56.194  1.00  0.00     0.026 A 
HETATM   24  C   UNL     1      28.973  46.526  55.663  1.00  0.00     0.002 A 
HETATM   25  C   UNL     1      28.135  45.968  54.697  1.00  0.00     0.011 A 
ENDBRANCH  16  18
ENDBRANCH  14  16
ENDBRANCH   1  14
TORSDOF 5
ENDMDL
MODEL 7
REMARK VINA RESULT:      -7.8      5.167      7.236
REMARK  5 active torsions:
REMARK  status: ('A' for Active; 'I' for Inactive)
REMARK    1  A    between atoms: C_8  and  N_9 
REMARK       I    between atoms: N_9  and  C_10 
REMARK    2  A    between atoms: C_10  and  C_11 
REMARK    3  A    between atoms: C_11  and  N_12 
REMARK    4  A    between atoms: N_12  and  C_13 
REMARK    5  A    between atoms: C_13  and  C_14 
ROOT
HETATM    1  C   UNL     1      28.037  42.470  51.500  1.00  0.00     0.372 C 
ENDROOT
BRANCH   1   2
HETATM    2  C   UNL     1      27.694  41.104  50.885  1.00  0.00     0.250 C 
HETATM    3  N   UNL     1      28.653  40.679  49.992  1.00  0.00    -0.322 N 
HETATM    4  H   UNL     1      29.435  41.321  49.881  1.00  0.00     0.169 HD
HETATM    5  O   UNL     1      26.679  40.506  51.225  1.00  0.00    -0.271 OA
BRANCH   3   6
HETATM    6  C   UNL     1      28.659  39.533  49.220  1.00  0.00     0.085 A 
HETATM    7  C   UNL     1      29.256  38.369  49.665  1.00  0.00     0.052 A 
HETATM    8  C   UNL     1      29.968  38.026  50.919  1.00  0.00     0.072 C 
HETATM    9  N   UNL     1      29.089  37.456  48.665  1.00  0.00    -0.280 N 
HETATM   10  H   UNL     1      29.399  36.491  48.638  1.00  0.00     0.189 HD
HETATM   11  N   UNL     1      28.434  37.932  47.603  1.00  0.00    -0.177 NA
HETATM   12  C   UNL     1      28.157  39.205  47.927  1.00  0.00     0.079 A 
HETATM   13  C   UNL     1      27.417  40.029  46.939  1.00  0.00     0.075 C 
ENDBRANCH   3   6
ENDBRANCH   1   2
BRANCH   1  14
HETATM   14  N   UNL     1      27.800  42.451  52.962  1.00  0.00     0.100 N 
HETATM   15  H   UNL     1      27.511  41.504  53.219  1.00  0.00     0.317 HD
BRANCH  14  16
HETATM   16  C   UNL     1      28.985  42.796  53.774  1.00  0.00     0.251 C 
HETATM   17  C   UNL     1      30.280  42.668  52.953  1.00  0.00     0.048 C 
BRANCH  16  18
HETATM   18  C   UNL     1      28.822  44.095  54.557  1.00  0.00    -0.002 A 
HETATM   19  C   UNL     1      29.653  44.410  55.660  1.00  0.00     0.064 A 
HETATM   20 CL   UNL     1      30.901  43.306  56.162  1.00  0.00    -0.082 Cl
HETATM   21  C   UNL     1      29.474  45.617  56.360  1.00  0.00     0.056 A 
HETATM   22 CL   UNL     1      30.461  46.072  57.707  1.00  0.00    -0.083 Cl
HETATM   23  C   UNL     1      28.472  46.513  55.982  1.00  0.00     0.026 A 
HETATM   24  C   UNL     1      27.639  46.210  54.911  1.00  0.00     0.002 A 
HETATM   25  C   UNL     1      27.810  45.016  54.209  1.00  0.00     0.011 A 
ENDBRANCH  16  18
ENDBRANCH  14  16
ENDBRANCH   1  14
TORSDOF 5
ENDMDL
MODEL 8
REMARK VINA RESULT:      -7.8      3.408      4.538
REMARK  5 active torsions:
REMARK  status: ('A' for Active; 'I' for Inactive)
REMARK    1  A    between atoms: C_8  and  N_9 
REMARK       I    between atoms: N_9  and  C_10 
REMARK    2  A    between atoms: C_10  and  C_11 
REMARK    3  A    between atoms: C_11  and  N_12 
REMARK    4  A    between atoms: N_12  and  C_13 
REMARK    5  A    between atoms: C_13  and  C_14 
ROOT
HETATM    1  C   UNL     1      27.890  41.781  52.076  1.00  0.00     0.372 C 
ENDROOT
BRANCH   1   2
HETATM    2  C   UNL     1      27.090  42.822  51.275  1.00  0.00     0.250 C 
HETATM    3  N   UNL     1      25.730  42.632  51.387  1.00  0.00    -0.322 N 
HETATM    4  H   UNL     1      25.464  41.848  51.980  1.00  0.00     0.169 HD
HETATM    5  O   UNL     1      27.668  43.709  50.657  1.00  0.00    -0.271 OA
BRANCH   3   6
HETATM    6  C   UNL     1      24.712  43.338  50.775  1.00  0.00     0.085 A 
HETATM    7  C   UNL     1      24.421  44.640  51.137  1.00  0.00     0.052 A 
HETATM    8  C   UNL     1      25.016  45.558  52.137  1.00  0.00     0.072 C 
HETATM    9  N   UNL     1      23.371  45.021  50.352  1.00  0.00    -0.280 N 
HETATM   10  H   UNL     1      22.888  45.912  50.339  1.00  0.00     0.189 HD
HETATM   11  N   UNL     1      22.952  44.071  49.512  1.00  0.00    -0.177 NA
HETATM   12  C   UNL     1      23.767  43.031  49.754  1.00  0.00     0.079 A 
HETATM   13  C   UNL     1      23.564  41.790  48.966  1.00  0.00     0.075 C 
ENDBRANCH   3   6
ENDBRANCH   1   2
BRANCH   1  14
HETATM   14  N   UNL     1      27.873  42.117  53.518  1.00  0.00     0.100 N 
HETATM   15  H   UNL     1      27.671  41.258  54.036  1.00  0.00     0.317 HD
BRANCH  14  16
HETATM   16  C   UNL     1      29.147  42.662  54.030  1.00  0.00     0.251 C 
HETATM   17  C   UNL     1      30.241  42.631  52.950  1.00  0.00     0.048 C 
BRANCH  16  18
HETATM   18  C   UNL     1      28.982  43.987  54.770  1.00  0.00    -0.002 A 
HETATM   19  C   UNL     1      29.824  44.346  55.850  1.00  0.00     0.064 A 
HETATM   20 CL   UNL     1      31.089  43.272  56.373  1.00  0.00    -0.082 Cl
HETATM   21  C   UNL     1      29.643  45.576  56.510  1.00  0.00     0.056 A 
HETATM   22 CL   UNL     1      30.643  46.087  57.827  1.00  0.00    -0.083 Cl
HETATM   23  C   UNL     1      28.627  46.449  56.114  1.00  0.00     0.026 A 
HETATM   24  C   UNL     1      27.783  46.102  55.065  1.00  0.00     0.002 A 
HETATM   25  C   UNL     1      27.957  44.885  54.403  1.00  0.00     0.011 A 
ENDBRANCH  16  18
ENDBRANCH  14  16
ENDBRANCH   1  14
TORSDOF 5
ENDMDL
MODEL 9
REMARK VINA RESULT:      -7.8      2.484      3.218
REMARK  5 active torsions:
REMARK  status: ('A' for Active; 'I' for Inactive)
REMARK    1  A    between atoms: C_8  and  N_9 
REMARK       I    between atoms: N_9  and  C_10 
REMARK    2  A    between atoms: C_10  and  C_11 
REMARK    3  A    between atoms: C_11  and  N_12 
REMARK    4  A    between atoms: N_12  and  C_13 
REMARK    5  A    between atoms: C_13  and  C_14 
ROOT
HETATM    1  C   UNL     1      26.901  42.661  51.062  1.00  0.00     0.372 C 
ENDROOT
BRANCH   1   2
HETATM    2  C   UNL     1      26.491  43.953  50.337  1.00  0.00     0.250 C 
HETATM    3  N   UNL     1      25.222  44.363  50.682  1.00  0.00    -0.322 N 
HETATM    4  H   UNL     1      24.758  43.763  51.361  1.00  0.00     0.169 HD
HETATM    5  O   UNL     1      27.272  44.513  49.576  1.00  0.00    -0.271 OA
BRANCH   3   6
HETATM    6  C   UNL     1      24.509  45.445  50.201  1.00  0.00     0.085 A 
HETATM    7  C   UNL     1      24.684  46.712  50.723  1.00  0.00     0.052 A 
HETATM    8  C   UNL     1      25.559  47.240  51.798  1.00  0.00     0.072 C 
HETATM    9  N   UNL     1      23.829  47.523  50.034  1.00  0.00    -0.280 N 
HETATM   10  H   UNL     1      23.683  48.520  50.146  1.00  0.00     0.189 HD
HETATM   11  N   UNL     1      23.110  46.885  49.107  1.00  0.00    -0.177 NA
HETATM   12  C   UNL     1      23.517  45.608  49.191  1.00  0.00     0.079 A 
HETATM   13  C   UNL     1      22.899  44.620  48.273  1.00  0.00     0.075 C 
ENDBRANCH   3   6
ENDBRANCH   1   2
BRANCH   1  14
HETATM   14  N   UNL     1      28.151  42.874  51.827  1.00  0.00     0.100 N 
HETATM   15  H   UNL     1      28.332  43.880  51.854  1.00  0.00     0.317 HD
BRANCH  14  16
HETATM   16  C   UNL     1      28.102  42.387  53.220  1.00  0.00     0.251 C 
HETATM   17  C   UNL     1      28.477  40.898  53.306  1.00  0.00     0.048 C 
BRANCH  16  18
HETATM   18  C   UNL     1      28.815  43.309  54.206  1.00  0.00    -0.002 A 
HETATM   19  C   UNL     1      28.199  44.480  54.711  1.00  0.00     0.064 A 
HETATM   20 CL   UNL     1      26.588  44.909  54.214  1.00  0.00    -0.082 Cl
HETATM   21  C   UNL     1      28.888  45.307  55.618  1.00  0.00     0.056 A 
HETATM   22 CL   UNL     1      28.191  46.744  56.286  1.00  0.00    -0.083 Cl
HETATM   23  C   UNL     1      30.185  44.988  56.023  1.00  0.00     0.026 A 
HETATM   24  C   UNL     1      30.808  43.850  55.523  1.00  0.00     0.002 A 
HETATM   25  C   UNL     1      30.132  43.022  54.625  1.00  0.00     0.011 A 
ENDBRANCH  16  18
ENDBRANCH  14  16
ENDBRANCH   1  14
TORSDOF 5
ENDMDL
MODEL 10
REMARK VINA RESULT:      -7.7      6.334      9.846
REMARK  5 active torsions:
REMARK  status: ('A' for Active; 'I' for Inactive)
REMARK    1  A    between atoms: C_8  and  N_9 
REMARK       I    between atoms: N_9  and  C_10 
REMARK    2  A    between atoms: C_10  and  C_11 
REMARK    3  A    between atoms: C_11  and  N_12 
REMARK    4  A    between atoms: N_12  and  C_13 
REMARK    5  A    between atoms: C_13  and  C_14 
ROOT
HETATM    1  C   UNL     1      19.829  47.403  48.385  1.00  0.00     0.372 C 
ENDROOT
BRANCH   1   2
HETATM    2  C   UNL     1      21.329  47.549  48.082  1.00  0.00     0.250 C 
HETATM    3  N   UNL     1      22.037  48.014  49.168  1.00  0.00    -0.322 N 
HETATM    4  H   UNL     1      21.470  48.182  49.997  1.00  0.00     0.169 HD
HETATM    5  O   UNL     1      21.775  47.235  46.983  1.00  0.00    -0.271 OA
BRANCH   3   6
HETATM    6  C   UNL     1      23.384  48.309  49.252  1.00  0.00     0.085 A 
HETATM    7  C   UNL     1      23.909  49.451  48.675  1.00  0.00     0.052 A 
HETATM    8  C   UNL     1      23.292  50.556  47.905  1.00  0.00     0.072 C 
HETATM    9  N   UNL     1      25.248  49.421  48.937  1.00  0.00    -0.280 N 
HETATM   10  H   UNL     1      25.955  50.096  48.668  1.00  0.00     0.189 HD
HETATM   11  N   UNL     1      25.639  48.351  49.635  1.00  0.00    -0.177 NA
HETATM   12  C   UNL     1      24.507  47.658  49.842  1.00  0.00     0.079 A 
HETATM   13  C   UNL     1      24.598  46.390  50.606  1.00  0.00     0.075 C 
ENDBRANCH   3   6
ENDBRANCH   1   2
BRANCH   1  14
HETATM   14  N   UNL     1      19.592  47.441  49.846  1.00  0.00     0.100 N 
HETATM   15  H   UNL     1      20.475  47.691  50.298  1.00  0.00     0.317 HD
BRANCH  14  16
HETATM   16  C   UNL     1      18.575  48.424  50.272  1.00  0.00     0.251 C 
HETATM   17  C   UNL     1      18.518  48.539  51.805  1.00  0.00     0.048 C 
BRANCH  16  18
HETATM   18  C   UNL     1      18.657  49.744  49.510  1.00  0.00    -0.002 A 
HETATM   19  C   UNL     1      17.694  50.102  48.535  1.00  0.00     0.064 A 
HETATM   20 CL   UNL     1      16.372  49.030  48.171  1.00  0.00    -0.082 Cl
HETATM   21  C   UNL     1      17.801  51.327  47.851  1.00  0.00     0.056 A 
HETATM   22 CL   UNL     1      16.653  51.835  46.658  1.00  0.00    -0.083 Cl
HETATM   23  C   UNL     1      18.859  52.197  48.118  1.00  0.00     0.026 A 
HETATM   24  C   UNL     1      19.820  51.852  49.062  1.00  0.00     0.002 A 
HETATM   25  C   UNL     1      19.721  50.640  49.747  1.00  0.00     0.011 A 
ENDBRANCH  16  18
ENDBRANCH  14  16
ENDBRANCH   1  14
TORSDOF 5
ENDMDL
