MODEL 1
REMARK VINA RESULT:      -9.1      0.000      0.000
REMARK  5 active torsions:
REMARK  status: ('A' for Active; 'I' for Inactive)
REMARK    1  A    between atoms: N_3  and  C_4 
REMARK    2  A    between atoms: C_12  and  C_13 
REMARK    3  A    between atoms: C_13  and  N_14 
REMARK       I    between atoms: N_14  and  C_15 
REMARK       I    between atoms: C_15  and  N_16 
REMARK    4  A    between atoms: N_16  and  C_17 
REMARK    5  A    between atoms: C_17  and  C_18 
ROOT
HETATM    1  C   UNL     1      26.702  42.657  51.877  1.00  0.00     0.165 C 
ENDROOT
BRANCH   1   2
HETATM    2  C   UNL     1      26.344  44.111  51.848  1.00  0.00    -0.016 A 
HETATM    3  C   UNL     1      26.067  44.893  50.731  1.00  0.00     0.021 A 
HETATM    4  N   UNL     1      25.807  46.198  51.150  1.00  0.00    -0.319 N 
HETATM    5  C   UNL     1      25.964  44.437  49.309  1.00  0.00     0.069 C 
HETATM    6  C   UNL     1      25.862  46.217  52.541  1.00  0.00     0.014 A 
HETATM    7  C   UNL     1      25.699  47.437  53.385  1.00  0.00     0.068 C 
HETATM    8  C   UNL     1      26.192  44.949  52.977  1.00  0.00     0.035 A 
BRANCH   4   9
HETATM    9  C   UNL     1      25.553  47.316  50.302  1.00  0.00     0.039 A 
HETATM   10  C   UNL     1      24.235  47.668  49.982  1.00  0.00     0.030 A 
HETATM   11  C   UNL     1      23.985  48.757  49.145  1.00  0.00     0.002 A 
HETATM   12  C   UNL     1      25.045  49.500  48.628  1.00  0.00     0.000 A 
HETATM   13  C   UNL     1      26.358  49.155  48.946  1.00  0.00     0.002 A 
HETATM   14  C   UNL     1      26.615  48.064  49.781  1.00  0.00     0.030 A 
ENDBRANCH   4   9
ENDBRANCH   1   2
BRANCH   1  15
HETATM   15  N   UNL     1      27.460  42.406  53.082  1.00  0.00    -0.339 N 
HETATM   16  C   UNL     1      28.764  42.799  53.192  1.00  0.00     0.316 C 
HETATM   17  N   UNL     1      29.221  42.664  54.475  1.00  0.00    -0.339 N 
HETATM   18  O   UNL     1      29.431  43.248  52.271  1.00  0.00    -0.247 OA
HETATM   19  H   UNL     1      28.805  41.926  55.022  1.00  0.00     0.164 HD
HETATM   20  H   UNL     1      26.934  42.309  53.936  1.00  0.00     0.164 HD
BRANCH  17  21
HETATM   21  C   UNL     1      30.578  43.034  54.805  1.00  0.00     0.162 C 
BRANCH  21  22
HETATM   22  C   UNL     1      30.630  43.970  55.986  1.00  0.00    -0.040 A 
HETATM   23  C   UNL     1      29.803  45.101  56.032  1.00  0.00     0.009 A 
HETATM   24  C   UNL     1      29.811  45.942  57.147  1.00  0.00     0.001 A 
HETATM   25  C   UNL     1      30.642  45.661  58.230  1.00  0.00     0.000 A 
HETATM   26  C   UNL     1      31.461  44.535  58.203  1.00  0.00     0.001 A 
HETATM   27  C   UNL     1      31.449  43.689  57.092  1.00  0.00     0.009 A 
ENDBRANCH  21  22
ENDBRANCH  17  21
ENDBRANCH   1  15
TORSDOF 5
ENDMDL
MODEL 2
REMARK VINA RESULT:      -8.8      3.734      9.644
REMARK  5 active torsions:
REMARK  status: ('A' for Active; 'I' for Inactive)
REMARK    1  A    between atoms: N_3  and  C_4 
REMARK    2  A    between atoms: C_12  and  C_13 
REMARK    3  A    between atoms: C_13  and  N_14 
REMARK       I    between atoms: N_14  and  C_15 
REMARK       I    between atoms: C_15  and  N_16 
REMARK    4  A    between atoms: N_16  and  C_17 
REMARK    5  A    between atoms: C_17  and  C_18 
ROOT
HETATM    1  C   UNL     1      24.274  46.662  49.679  1.00  0.00     0.165 C 
ENDROOT
BRANCH   1   2
HETATM    2  C   UNL     1      25.180  46.278  50.808  1.00  0.00    -0.016 A 
HETATM    3  C   UNL     1      25.930  45.112  50.933  1.00  0.00     0.021 A 
HETATM    4  N   UNL     1      26.613  45.146  52.149  1.00  0.00    -0.319 N 
HETATM    5  C   UNL     1      26.084  44.021  49.920  1.00  0.00     0.069 C 
HETATM    6  C   UNL     1      26.334  46.366  52.760  1.00  0.00     0.014 A 
HETATM    7  C   UNL     1      26.824  46.776  54.108  1.00  0.00     0.068 C 
HETATM    8  C   UNL     1      25.458  47.062  51.951  1.00  0.00     0.035 A 
BRANCH   4   9
HETATM    9  C   UNL     1      27.430  44.106  52.681  1.00  0.00     0.039 A 
HETATM   10  C   UNL     1      26.924  43.254  53.673  1.00  0.00     0.030 A 
HETATM   11  C   UNL     1      27.725  42.242  54.202  1.00  0.00     0.002 A 
HETATM   12  C   UNL     1      29.030  42.070  53.743  1.00  0.00     0.000 A 
HETATM   13  C   UNL     1      29.537  42.913  52.755  1.00  0.00     0.002 A 
HETATM   14  C   UNL     1      28.741  43.931  52.224  1.00  0.00     0.030 A 
ENDBRANCH   4   9
ENDBRANCH   1   2
BRANCH   1  15
HETATM   15  N   UNL     1      23.534  47.838  50.079  1.00  0.00    -0.339 N 
HETATM   16  C   UNL     1      23.233  48.822  49.181  1.00  0.00     0.316 C 
HETATM   17  N   UNL     1      22.350  49.726  49.708  1.00  0.00    -0.339 N 
HETATM   18  O   UNL     1      23.667  48.874  48.040  1.00  0.00    -0.247 OA
HETATM   19  H   UNL     1      22.395  49.866  50.706  1.00  0.00     0.164 HD
HETATM   20  H   UNL     1      22.928  47.741  50.879  1.00  0.00     0.164 HD
BRANCH  17  21
HETATM   21  C   UNL     1      21.897  50.846  48.914  1.00  0.00     0.162 C 
BRANCH  21  22
HETATM   22  C   UNL     1      20.442  51.154  49.162  1.00  0.00    -0.040 A 
HETATM   23  C   UNL     1      19.810  52.197  48.471  1.00  0.00     0.009 A 
HETATM   24  C   UNL     1      18.450  52.453  48.660  1.00  0.00     0.001 A 
HETATM   25  C   UNL     1      17.705  51.666  49.536  1.00  0.00     0.000 A 
HETATM   26  C   UNL     1      18.317  50.618  50.221  1.00  0.00     0.001 A 
HETATM   27  C   UNL     1      19.675  50.358  50.028  1.00  0.00     0.009 A 
ENDBRANCH  21  22
ENDBRANCH  17  21
ENDBRANCH   1  15
TORSDOF 5
ENDMDL
MODEL 3
REMARK VINA RESULT:      -8.6      3.763      9.819
REMARK  5 active torsions:
REMARK  status: ('A' for Active; 'I' for Inactive)
REMARK    1  A    between atoms: N_3  and  C_4 
REMARK    2  A    between atoms: C_12  and  C_13 
REMARK    3  A    between atoms: C_13  and  N_14 
REMARK       I    between atoms: N_14  and  C_15 
REMARK       I    between atoms: C_15  and  N_16 
REMARK    4  A    between atoms: N_16  and  C_17 
REMARK    5  A    between atoms: C_17  and  C_18 
ROOT
HETATM    1  C   UNL     1      24.937  47.894  49.753  1.00  0.00     0.165 C 
ENDROOT
BRANCH   1   2
HETATM    2  C   UNL     1      25.429  46.544  50.178  1.00  0.00    -0.016 A 
HETATM    3  C   UNL     1      26.092  46.217  51.358  1.00  0.00     0.021 A 
HETATM    4  N   UNL     1      26.393  44.855  51.340  1.00  0.00    -0.319 N 
HETATM    5  C   UNL     1      26.374  47.120  52.518  1.00  0.00     0.069 C 
HETATM    6  C   UNL     1      25.863  44.317  50.170  1.00  0.00     0.014 A 
HETATM    7  C   UNL     1      26.015  42.897  49.739  1.00  0.00     0.068 C 
HETATM    8  C   UNL     1      25.275  45.340  49.453  1.00  0.00     0.035 A 
BRANCH   4   9
HETATM    9  C   UNL     1      27.133  44.147  52.332  1.00  0.00     0.039 A 
HETATM   10  C   UNL     1      28.495  43.883  52.134  1.00  0.00     0.030 A 
HETATM   11  C   UNL     1      29.219  43.182  53.100  1.00  0.00     0.002 A 
HETATM   12  C   UNL     1      28.592  42.746  54.265  1.00  0.00     0.000 A 
HETATM   13  C   UNL     1      27.238  43.009  54.468  1.00  0.00     0.002 A 
HETATM   14  C   UNL     1      26.506  43.707  53.503  1.00  0.00     0.030 A 
ENDBRANCH   4   9
ENDBRANCH   1   2
BRANCH   1  15
HETATM   15  N   UNL     1      23.507  47.935  49.959  1.00  0.00    -0.339 N 
HETATM   16  C   UNL     1      22.664  48.371  48.976  1.00  0.00     0.316 C 
HETATM   17  N   UNL     1      21.355  48.124  49.294  1.00  0.00    -0.339 N 
HETATM   18  O   UNL     1      23.029  48.884  47.929  1.00  0.00    -0.247 OA
HETATM   19  H   UNL     1      21.126  48.123  50.276  1.00  0.00     0.164 HD
HETATM   20  H   UNL     1      23.129  47.297  50.642  1.00  0.00     0.164 HD
BRANCH  17  21
HETATM   21  C   UNL     1      20.302  48.503  48.380  1.00  0.00     0.162 C 
BRANCH  21  22
HETATM   22  C   UNL     1      19.686  49.827  48.756  1.00  0.00    -0.040 A 
HETATM   23  C   UNL     1      20.116  51.009  48.138  1.00  0.00     0.009 A 
HETATM   24  C   UNL     1      19.513  52.231  48.446  1.00  0.00     0.001 A 
HETATM   25  C   UNL     1      18.471  52.284  49.370  1.00  0.00     0.000 A 
HETATM   26  C   UNL     1      18.025  51.115  49.983  1.00  0.00     0.001 A 
HETATM   27  C   UNL     1      18.623  49.892  49.671  1.00  0.00     0.009 A 
ENDBRANCH  21  22
ENDBRANCH  17  21
ENDBRANCH   1  15
TORSDOF 5
ENDMDL
MODEL 4
REMARK VINA RESULT:      -8.6      3.202      5.534
REMARK  5 active torsions:
REMARK  status: ('A' for Active; 'I' for Inactive)
REMARK    1  A    between atoms: N_3  and  C_4 
REMARK    2  A    between atoms: C_12  and  C_13 
REMARK    3  A    between atoms: C_13  and  N_14 
REMARK       I    between atoms: N_14  and  C_15 
REMARK       I    between atoms: C_15  and  N_16 
REMARK    4  A    between atoms: N_16  and  C_17 
REMARK    5  A    between atoms: C_17  and  C_18 
ROOT
HETATM    1  C   UNL     1      25.290  47.996  49.469  1.00  0.00     0.165 C 
ENDROOT
BRANCH   1   2
HETATM    2  C   UNL     1      23.827  48.202  49.222  1.00  0.00    -0.016 A 
HETATM    3  C   UNL     1      23.150  49.413  49.104  1.00  0.00     0.021 A 
HETATM    4  N   UNL     1      21.794  49.150  48.903  1.00  0.00    -0.319 N 
HETATM    5  C   UNL     1      23.745  50.786  49.095  1.00  0.00     0.069 C 
HETATM    6  C   UNL     1      21.633  47.769  48.835  1.00  0.00     0.014 A 
HETATM    7  C   UNL     1      20.325  47.069  48.686  1.00  0.00     0.068 C 
HETATM    8  C   UNL     1      22.867  47.181  49.032  1.00  0.00     0.035 A 
BRANCH   4   9
HETATM    9  C   UNL     1      20.757  50.124  48.808  1.00  0.00     0.039 A 
HETATM   10  C   UNL     1      20.281  50.521  47.552  1.00  0.00     0.030 A 
HETATM   11  C   UNL     1      19.272  51.481  47.457  1.00  0.00     0.002 A 
HETATM   12  C   UNL     1      18.732  52.044  48.611  1.00  0.00     0.000 A 
HETATM   13  C   UNL     1      19.200  51.650  49.864  1.00  0.00     0.002 A 
HETATM   14  C   UNL     1      20.212  50.692  49.965  1.00  0.00     0.030 A 
ENDBRANCH   4   9
ENDBRANCH   1   2
BRANCH   1  15
HETATM   15  N   UNL     1      25.440  46.861  50.352  1.00  0.00    -0.339 N 
HETATM   16  C   UNL     1      26.406  45.920  50.134  1.00  0.00     0.316 C 
HETATM   17  N   UNL     1      26.516  45.062  51.195  1.00  0.00    -0.339 N 
HETATM   18  O   UNL     1      27.110  45.869  49.136  1.00  0.00    -0.247 OA
HETATM   19  H   UNL     1      25.674  44.896  51.725  1.00  0.00     0.164 HD
HETATM   20  H   UNL     1      25.112  46.977  51.298  1.00  0.00     0.164 HD
BRANCH  17  21
HETATM   21  C   UNL     1      27.489  43.994  51.167  1.00  0.00     0.162 C 
BRANCH  21  22
HETATM   22  C   UNL     1      28.282  43.927  52.448  1.00  0.00    -0.040 A 
HETATM   23  C   UNL     1      27.828  44.588  53.598  1.00  0.00     0.009 A 
HETATM   24  C   UNL     1      28.533  44.487  54.799  1.00  0.00     0.001 A 
HETATM   25  C   UNL     1      29.695  43.721  54.867  1.00  0.00     0.000 A 
HETATM   26  C   UNL     1      30.151  43.049  53.735  1.00  0.00     0.001 A 
HETATM   27  C   UNL     1      29.444  43.144  52.535  1.00  0.00     0.009 A 
ENDBRANCH  21  22
ENDBRANCH  17  21
ENDBRANCH   1  15
TORSDOF 5
ENDMDL
MODEL 5
REMARK VINA RESULT:      -8.4      3.648      6.188
REMARK  5 active torsions:
REMARK  status: ('A' for Active; 'I' for Inactive)
REMARK    1  A    between atoms: N_3  and  C_4 
REMARK    2  A    between atoms: C_12  and  C_13 
REMARK    3  A    between atoms: C_13  and  N_14 
REMARK       I    between atoms: N_14  and  C_15 
REMARK       I    between atoms: C_15  and  N_16 
REMARK    4  A    between atoms: N_16  and  C_17 
REMARK    5  A    between atoms: C_17  and  C_18 
ROOT
HETATM    1  C   UNL     1      22.763  46.042  48.532  1.00  0.00     0.165 C 
ENDROOT
BRANCH   1   2
HETATM    2  C   UNL     1      22.451  47.505  48.593  1.00  0.00    -0.016 A 
HETATM    3  C   UNL     1      21.197  48.100  48.703  1.00  0.00     0.021 A 
HETATM    4  N   UNL     1      21.356  49.486  48.699  1.00  0.00    -0.319 N 
HETATM    5  C   UNL     1      19.881  47.411  48.889  1.00  0.00     0.069 C 
HETATM    6  C   UNL     1      22.721  49.758  48.647  1.00  0.00     0.014 A 
HETATM    7  C   UNL     1      23.316  51.123  48.567  1.00  0.00     0.068 C 
HETATM    8  C   UNL     1      23.397  48.556  48.578  1.00  0.00     0.035 A 
BRANCH   4   9
HETATM    9  C   UNL     1      20.306  50.451  48.720  1.00  0.00     0.039 A 
HETATM   10  C   UNL     1      19.880  50.996  49.938  1.00  0.00     0.030 A 
HETATM   11  C   UNL     1      18.846  51.933  49.962  1.00  0.00     0.002 A 
HETATM   12  C   UNL     1      18.237  52.333  48.774  1.00  0.00     0.000 A 
HETATM   13  C   UNL     1      18.660  51.796  47.559  1.00  0.00     0.002 A 
HETATM   14  C   UNL     1      19.692  50.854  47.529  1.00  0.00     0.030 A 
ENDBRANCH   4   9
ENDBRANCH   1   2
BRANCH   1  15
HETATM   15  N   UNL     1      23.155  45.612  49.856  1.00  0.00    -0.339 N 
HETATM   16  C   UNL     1      24.443  45.245  50.127  1.00  0.00     0.316 C 
HETATM   17  N   UNL     1      24.645  45.087  51.472  1.00  0.00    -0.339 N 
HETATM   18  O   UNL     1      25.316  45.109  49.283  1.00  0.00    -0.247 OA
HETATM   19  H   UNL     1      23.846  44.790  52.012  1.00  0.00     0.164 HD
HETATM   20  H   UNL     1      22.600  45.952  50.625  1.00  0.00     0.164 HD
BRANCH  17  21
HETATM   21  C   UNL     1      25.947  44.707  51.971  1.00  0.00     0.162 C 
BRANCH  21  22
HETATM   22  C   UNL     1      26.400  45.607  53.092  1.00  0.00    -0.040 A 
HETATM   23  C   UNL     1      27.505  45.255  53.880  1.00  0.00     0.009 A 
HETATM   24  C   UNL     1      27.960  46.111  54.886  1.00  0.00     0.001 A 
HETATM   25  C   UNL     1      27.320  47.328  55.113  1.00  0.00     0.000 A 
HETATM   26  C   UNL     1      26.228  47.696  54.329  1.00  0.00     0.001 A 
HETATM   27  C   UNL     1      25.777  46.844  53.318  1.00  0.00     0.009 A 
ENDBRANCH  21  22
ENDBRANCH  17  21
ENDBRANCH   1  15
TORSDOF 5
ENDMDL
MODEL 6
REMARK VINA RESULT:      -8.1      3.789      9.628
REMARK  5 active torsions:
REMARK  status: ('A' for Active; 'I' for Inactive)
REMARK    1  A    between atoms: N_3  and  C_4 
REMARK    2  A    between atoms: C_12  and  C_13 
REMARK    3  A    between atoms: C_13  and  N_14 
REMARK       I    between atoms: N_14  and  C_15 
REMARK       I    between atoms: C_15  and  N_16 
REMARK    4  A    between atoms: N_16  and  C_17 
REMARK    5  A    between atoms: C_17  and  C_18 
ROOT
HETATM    1  C   UNL     1      24.125  45.796  49.067  1.00  0.00     0.165 C 
ENDROOT
BRANCH   1   2
HETATM    2  C   UNL     1      25.006  45.681  50.273  1.00  0.00    -0.016 A 
HETATM    3  C   UNL     1      25.858  44.631  50.602  1.00  0.00     0.021 A 
HETATM    4  N   UNL     1      26.472  44.918  51.822  1.00  0.00    -0.319 N 
HETATM    5  C   UNL     1      26.167  43.422  49.775  1.00  0.00     0.069 C 
HETATM    6  C   UNL     1      26.047  46.180  52.227  1.00  0.00     0.014 A 
HETATM    7  C   UNL     1      26.425  46.836  53.512  1.00  0.00     0.068 C 
HETATM    8  C   UNL     1      25.149  46.653  51.290  1.00  0.00     0.035 A 
BRANCH   4   9
HETATM    9  C   UNL     1      27.359  44.059  52.536  1.00  0.00     0.039 A 
HETATM   10  C   UNL     1      26.891  43.330  53.639  1.00  0.00     0.030 A 
HETATM   11  C   UNL     1      27.759  42.496  54.345  1.00  0.00     0.002 A 
HETATM   12  C   UNL     1      29.092  42.382  53.954  1.00  0.00     0.000 A 
HETATM   13  C   UNL     1      29.561  43.102  52.857  1.00  0.00     0.002 A 
HETATM   14  C   UNL     1      28.698  43.942  52.148  1.00  0.00     0.030 A 
ENDBRANCH   4   9
ENDBRANCH   1   2
BRANCH   1  15
HETATM   15  N   UNL     1      23.051  46.711  49.383  1.00  0.00    -0.339 N 
HETATM   16  C   UNL     1      22.141  47.087  48.435  1.00  0.00     0.316 C 
HETATM   17  N   UNL     1      21.095  47.773  48.991  1.00  0.00    -0.339 N 
HETATM   18  O   UNL     1      22.229  46.816  47.246  1.00  0.00    -0.247 OA
HETATM   19  H   UNL     1      21.302  48.309  49.820  1.00  0.00     0.164 HD
HETATM   20  H   UNL     1      22.756  46.748  50.346  1.00  0.00     0.164 HD
BRANCH  17  21
HETATM   21  C   UNL     1      20.018  48.254  48.156  1.00  0.00     0.162 C 
BRANCH  21  22
HETATM   22  C   UNL     1      19.538  49.615  48.592  1.00  0.00    -0.040 A 
HETATM   23  C   UNL     1      18.484  49.736  49.508  1.00  0.00     0.009 A 
HETATM   24  C   UNL     1      18.071  50.993  49.953  1.00  0.00     0.001 A 
HETATM   25  C   UNL     1      18.709  52.144  49.494  1.00  0.00     0.000 A 
HETATM   26  C   UNL     1      19.767  52.039  48.593  1.00  0.00     0.001 A 
HETATM   27  C   UNL     1      20.185  50.781  48.151  1.00  0.00     0.009 A 
ENDBRANCH  21  22
ENDBRANCH  17  21
ENDBRANCH   1  15
TORSDOF 5
ENDMDL
MODEL 7
REMARK VINA RESULT:      -7.9      4.084      5.884
REMARK  5 active torsions:
REMARK  status: ('A' for Active; 'I' for Inactive)
REMARK    1  A    between atoms: N_3  and  C_4 
REMARK    2  A    between atoms: C_12  and  C_13 
REMARK    3  A    between atoms: C_13  and  N_14 
REMARK       I    between atoms: N_14  and  C_15 
REMARK       I    between atoms: C_15  and  N_16 
REMARK    4  A    between atoms: N_16  and  C_17 
REMARK    5  A    between atoms: C_17  and  C_18 
ROOT
HETATM    1  C   UNL     1      28.769  40.437  52.092  1.00  0.00     0.165 C 
ENDROOT
BRANCH   1   2
HETATM    2  C   UNL     1      28.020  40.523  50.798  1.00  0.00    -0.016 A 
HETATM    3  C   UNL     1      28.395  39.996  49.566  1.00  0.00     0.021 A 
HETATM    4  N   UNL     1      27.423  40.329  48.621  1.00  0.00    -0.319 N 
HETATM    5  C   UNL     1      29.583  39.134  49.273  1.00  0.00     0.069 C 
HETATM    6  C   UNL     1      26.407  41.016  49.279  1.00  0.00     0.014 A 
HETATM    7  C   UNL     1      25.205  41.600  48.618  1.00  0.00     0.068 C 
HETATM    8  C   UNL     1      26.763  41.142  50.608  1.00  0.00     0.035 A 
BRANCH   4   9
HETATM    9  C   UNL     1      27.476  40.038  47.226  1.00  0.00     0.039 A 
HETATM   10  C   UNL     1      28.078  40.944  46.343  1.00  0.00     0.030 A 
HETATM   11  C   UNL     1      28.122  40.665  44.976  1.00  0.00     0.002 A 
HETATM   12  C   UNL     1      27.571  39.483  44.485  1.00  0.00     0.000 A 
HETATM   13  C   UNL     1      26.973  38.577  45.360  1.00  0.00     0.002 A 
HETATM   14  C   UNL     1      26.923  38.852  46.729  1.00  0.00     0.030 A 
ENDBRANCH   4   9
ENDBRANCH   1   2
BRANCH   1  15
HETATM   15  N   UNL     1      29.311  41.744  52.385  1.00  0.00    -0.339 N 
HETATM   16  C   UNL     1      28.720  42.566  53.303  1.00  0.00     0.316 C 
HETATM   17  N   UNL     1      29.508  43.649  53.584  1.00  0.00    -0.339 N 
HETATM   18  O   UNL     1      27.642  42.346  53.834  1.00  0.00    -0.247 OA
HETATM   19  H   UNL     1      30.107  43.972  52.840  1.00  0.00     0.164 HD
HETATM   20  H   UNL     1      30.296  41.874  52.216  1.00  0.00     0.164 HD
BRANCH  17  21
HETATM   21  C   UNL     1      29.066  44.639  54.540  1.00  0.00     0.162 C 
BRANCH  21  22
HETATM   22  C   UNL     1      29.933  44.650  55.774  1.00  0.00    -0.040 A 
HETATM   23  C   UNL     1      29.757  45.636  56.755  1.00  0.00     0.009 A 
HETATM   24  C   UNL     1      30.523  45.619  57.923  1.00  0.00     0.001 A 
HETATM   25  C   UNL     1      31.468  44.616  58.126  1.00  0.00     0.000 A 
HETATM   26  C   UNL     1      31.646  43.623  57.165  1.00  0.00     0.001 A 
HETATM   27  C   UNL     1      30.876  43.635  56.000  1.00  0.00     0.009 A 
ENDBRANCH  21  22
ENDBRANCH  17  21
ENDBRANCH   1  15
TORSDOF 5
ENDMDL
MODEL 8
REMARK VINA RESULT:      -7.8      5.458      8.370
REMARK  5 active torsions:
REMARK  status: ('A' for Active; 'I' for Inactive)
REMARK    1  A    between atoms: N_3  and  C_4 
REMARK    2  A    between atoms: C_12  and  C_13 
REMARK    3  A    between atoms: C_13  and  N_14 
REMARK       I    between atoms: N_14  and  C_15 
REMARK       I    between atoms: C_15  and  N_16 
REMARK    4  A    between atoms: N_16  and  C_17 
REMARK    5  A    between atoms: C_17  and  C_18 
ROOT
HETATM    1  C   UNL     1      22.130  49.357  49.165  1.00  0.00     0.165 C 
ENDROOT
BRANCH   1   2
HETATM    2  C   UNL     1      20.636  49.397  49.051  1.00  0.00    -0.016 A 
HETATM    3  C   UNL     1      19.833  50.513  48.835  1.00  0.00     0.021 A 
HETATM    4  N   UNL     1      18.498  50.108  48.823  1.00  0.00    -0.319 N 
HETATM    5  C   UNL     1      20.284  51.915  48.564  1.00  0.00     0.069 C 
HETATM    6  C   UNL     1      18.470  48.725  48.973  1.00  0.00     0.014 A 
HETATM    7  C   UNL     1      17.230  47.901  49.070  1.00  0.00     0.068 C 
HETATM    8  C   UNL     1      19.770  48.281  49.116  1.00  0.00     0.035 A 
BRANCH   4   9
HETATM    9  C   UNL     1      17.364  50.965  48.703  1.00  0.00     0.039 A 
HETATM   10  C   UNL     1      16.886  51.656  49.825  1.00  0.00     0.030 A 
HETATM   11  C   UNL     1      15.771  52.488  49.712  1.00  0.00     0.002 A 
HETATM   12  C   UNL     1      15.130  52.636  48.483  1.00  0.00     0.000 A 
HETATM   13  C   UNL     1      15.603  51.952  47.364  1.00  0.00     0.002 A 
HETATM   14  C   UNL     1      16.717  51.115  47.471  1.00  0.00     0.030 A 
ENDBRANCH   4   9
ENDBRANCH   1   2
BRANCH   1  15
HETATM   15  N   UNL     1      22.524  47.986  49.399  1.00  0.00    -0.339 N 
HETATM   16  C   UNL     1      23.828  47.658  49.643  1.00  0.00     0.316 C 
HETATM   17  N   UNL     1      23.948  46.357  50.051  1.00  0.00    -0.339 N 
HETATM   18  O   UNL     1      24.767  48.435  49.545  1.00  0.00    -0.247 OA
HETATM   19  H   UNL     1      23.260  45.712  49.695  1.00  0.00     0.164 HD
HETATM   20  H   UNL     1      21.817  47.367  49.762  1.00  0.00     0.164 HD
BRANCH  17  21
HETATM   21  C   UNL     1      25.249  45.813  50.368  1.00  0.00     0.162 C 
BRANCH  21  22
HETATM   22  C   UNL     1      25.481  45.749  51.857  1.00  0.00    -0.040 A 
HETATM   23  C   UNL     1      25.479  44.515  52.522  1.00  0.00     0.009 A 
HETATM   24  C   UNL     1      25.743  44.447  53.892  1.00  0.00     0.001 A 
HETATM   25  C   UNL     1      26.017  45.609  54.611  1.00  0.00     0.000 A 
HETATM   26  C   UNL     1      26.034  46.841  53.960  1.00  0.00     0.001 A 
HETATM   27  C   UNL     1      25.776  46.910  52.589  1.00  0.00     0.009 A 
ENDBRANCH  21  22
ENDBRANCH  17  21
ENDBRANCH   1  15
TORSDOF 5
ENDMDL
MODEL 9
REMARK VINA RESULT:      -7.8     15.442     18.412
REMARK  5 active torsions:
REMARK  status: ('A' for Active; 'I' for Inactive)
REMARK    1  A    between atoms: N_3  and  C_4 
REMARK    2  A    between atoms: C_12  and  C_13 
REMARK    3  A    between atoms: C_13  and  N_14 
REMARK       I    between atoms: N_14  and  C_15 
REMARK       I    between atoms: C_15  and  N_16 
REMARK    4  A    between atoms: N_16  and  C_17 
REMARK    5  A    between atoms: C_17  and  C_18 
ROOT
HETATM    1  C   UNL     1      39.084  43.606  62.538  1.00  0.00     0.165 C 
ENDROOT
BRANCH   1   2
HETATM    2  C   UNL     1      39.793  42.677  63.475  1.00  0.00    -0.016 A 
HETATM    3  C   UNL     1      39.816  41.286  63.432  1.00  0.00     0.021 A 
HETATM    4  N   UNL     1      40.572  40.817  64.507  1.00  0.00    -0.319 N 
HETATM    5  C   UNL     1      39.223  40.402  62.380  1.00  0.00     0.069 C 
HETATM    6  C   UNL     1      41.073  41.922  65.190  1.00  0.00     0.014 A 
HETATM    7  C   UNL     1      41.887  41.857  66.438  1.00  0.00     0.068 C 
HETATM    8  C   UNL     1      40.601  43.062  64.570  1.00  0.00     0.035 A 
BRANCH   4   9
HETATM    9  C   UNL     1      40.774  39.449  64.857  1.00  0.00     0.039 A 
HETATM   10  C   UNL     1      39.870  38.803  65.711  1.00  0.00     0.030 A 
HETATM   11  C   UNL     1      40.071  37.467  66.061  1.00  0.00     0.002 A 
HETATM   12  C   UNL     1      41.169  36.770  65.560  1.00  0.00     0.000 A 
HETATM   13  C   UNL     1      42.069  37.408  64.708  1.00  0.00     0.002 A 
HETATM   14  C   UNL     1      41.876  38.746  64.356  1.00  0.00     0.030 A 
ENDBRANCH   4   9
ENDBRANCH   1   2
BRANCH   1  15
HETATM   15  N   UNL     1      38.946  44.886  63.195  1.00  0.00    -0.339 N 
HETATM   16  C   UNL     1      37.730  45.327  63.633  1.00  0.00     0.316 C 
HETATM   17  N   UNL     1      37.854  46.446  64.412  1.00  0.00    -0.339 N 
HETATM   18  O   UNL     1      36.666  44.776  63.392  1.00  0.00    -0.247 OA
HETATM   19  H   UNL     1      38.634  47.051  64.204  1.00  0.00     0.164 HD
HETATM   20  H   UNL     1      39.763  45.246  63.662  1.00  0.00     0.164 HD
BRANCH  17  21
HETATM   21  C   UNL     1      36.682  47.068  64.983  1.00  0.00     0.162 C 
BRANCH  21  22
HETATM   22  C   UNL     1      37.034  48.298  65.781  1.00  0.00    -0.040 A 
HETATM   23  C   UNL     1      37.707  49.368  65.174  1.00  0.00     0.009 A 
HETATM   24  C   UNL     1      37.989  50.529  65.896  1.00  0.00     0.001 A 
HETATM   25  C   UNL     1      37.599  50.638  67.230  1.00  0.00     0.000 A 
HETATM   26  C   UNL     1      36.919  49.587  67.842  1.00  0.00     0.001 A 
HETATM   27  C   UNL     1      36.630  48.427  67.120  1.00  0.00     0.009 A 
ENDBRANCH  21  22
ENDBRANCH  17  21
ENDBRANCH   1  15
TORSDOF 5
ENDMDL
MODEL 10
REMARK VINA RESULT:      -7.7      1.842      2.804
REMARK  5 active torsions:
REMARK  status: ('A' for Active; 'I' for Inactive)
REMARK    1  A    between atoms: N_3  and  C_4 
REMARK    2  A    between atoms: C_12  and  C_13 
REMARK    3  A    between atoms: C_13  and  N_14 
REMARK       I    between atoms: N_14  and  C_15 
REMARK       I    between atoms: C_15  and  N_16 
REMARK    4  A    between atoms: N_16  and  C_17 
REMARK    5  A    between atoms: C_17  and  C_18 
ROOT
HETATM    1  C   UNL     1      26.172  43.826  50.934  1.00  0.00     0.165 C 
ENDROOT
BRANCH   1   2
HETATM    2  C   UNL     1      25.594  45.087  50.367  1.00  0.00    -0.016 A 
HETATM    3  C   UNL     1      24.296  45.292  49.909  1.00  0.00     0.021 A 
HETATM    4  N   UNL     1      24.188  46.602  49.440  1.00  0.00    -0.319 N 
HETATM    5  C   UNL     1      23.150  44.331  49.972  1.00  0.00     0.069 C 
HETATM    6  C   UNL     1      25.408  47.236  49.662  1.00  0.00     0.014 A 
HETATM    7  C   UNL     1      25.731  48.633  49.251  1.00  0.00     0.068 C 
HETATM    8  C   UNL     1      26.274  46.318  50.224  1.00  0.00     0.035 A 
BRANCH   4   9
HETATM    9  C   UNL     1      23.040  47.180  48.822  1.00  0.00     0.039 A 
HETATM   10  C   UNL     1      22.521  48.390  49.301  1.00  0.00     0.030 A 
HETATM   11  C   UNL     1      21.392  48.952  48.703  1.00  0.00     0.002 A 
HETATM   12  C   UNL     1      20.779  48.314  47.626  1.00  0.00     0.000 A 
HETATM   13  C   UNL     1      21.294  47.111  47.145  1.00  0.00     0.002 A 
HETATM   14  C   UNL     1      22.422  46.541  47.741  1.00  0.00     0.030 A 
ENDBRANCH   4   9
ENDBRANCH   1   2
BRANCH   1  15
HETATM   15  N   UNL     1      26.952  44.176  52.100  1.00  0.00    -0.339 N 
HETATM   16  C   UNL     1      28.001  43.400  52.507  1.00  0.00     0.316 C 
HETATM   17  N   UNL     1      28.731  44.019  53.485  1.00  0.00    -0.339 N 
HETATM   18  O   UNL     1      28.276  42.307  52.035  1.00  0.00    -0.247 OA
HETATM   19  H   UNL     1      28.225  44.649  54.090  1.00  0.00     0.164 HD
HETATM   20  H   UNL     1      26.973  45.150  52.355  1.00  0.00     0.164 HD
BRANCH  17  21
HETATM   21  C   UNL     1      29.891  43.367  54.049  1.00  0.00     0.162 C 
BRANCH  21  22
HETATM   22  C   UNL     1      30.227  43.907  55.415  1.00  0.00    -0.040 A 
HETATM   23  C   UNL     1      31.151  43.242  56.233  1.00  0.00     0.009 A 
HETATM   24  C   UNL     1      31.503  43.767  57.478  1.00  0.00     0.001 A 
HETATM   25  C   UNL     1      30.941  44.963  57.919  1.00  0.00     0.000 A 
HETATM   26  C   UNL     1      30.030  45.641  57.112  1.00  0.00     0.001 A 
HETATM   27  C   UNL     1      29.681  45.121  55.864  1.00  0.00     0.009 A 
ENDBRANCH  21  22
ENDBRANCH  17  21
ENDBRANCH   1  15
TORSDOF 5
ENDMDL
