MODEL 1
REMARK VINA RESULT:      -8.9      0.000      0.000
REMARK  7 active torsions:
REMARK  status: ('A' for Active; 'I' for Inactive)
REMARK    1  A    between atoms: O_2  and  C_3 
REMARK    2  A    between atoms: C_4  and  N_5 
REMARK       I    between atoms: N_5  and  C_6 
REMARK    3  A    between atoms: C_6  and  C_7 
REMARK    4  A    between atoms: C_14  and  N_15 
REMARK       I    between atoms: N_15  and  C_16 
REMARK    5  A    between atoms: C_16  and  C_17 
REMARK    6  A    between atoms: C_17  and  C_18 
REMARK    7  A    between atoms: C_18  and  C_19 
ROOT
HETATM    1  C   UNL     1      24.440  46.605  49.541  1.00  0.00     0.095 A 
HETATM    2  C   UNL     1      25.538  47.467  49.658  1.00  0.00     0.070 A 
HETATM    3  C   UNL     1      26.266  47.461  50.863  1.00  0.00     0.062 A 
HETATM    4  C   UNL     1      25.951  46.581  51.904  1.00  0.00     0.037 A 
HETATM    5  C   UNL     1      24.897  45.679  51.731  1.00  0.00     0.032 A 
HETATM    6  C   UNL     1      24.151  45.686  50.553  1.00  0.00     0.041 A 
ENDROOT
BRANCH   4   7
HETATM    7  N   UNL     1      26.612  46.560  53.149  1.00  0.00    -0.327 N 
HETATM    8  C   UNL     1      26.318  47.307  54.278  1.00  0.00     0.222 C 
HETATM    9  O   UNL     1      25.464  48.183  54.370  1.00  0.00    -0.273 OA
HETATM   10  H   UNL     1      27.402  45.930  53.214  1.00  0.00     0.169 HD
BRANCH   8  11
HETATM   11  C   UNL     1      27.153  46.904  55.481  1.00  0.00     0.108 C 
BRANCH  11  12
HETATM   12  C   UNL     1      28.654  46.905  55.174  1.00  0.00     0.047 C 
BRANCH  12  13
HETATM   13  C   UNL     1      29.346  45.581  55.408  1.00  0.00    -0.058 A 
HETATM   14  C   UNL     1      30.376  45.492  56.355  1.00  0.00     0.007 A 
HETATM   15  C   UNL     1      31.067  44.293  56.547  1.00  0.00     0.001 A 
HETATM   16  C   UNL     1      30.742  43.169  55.791  1.00  0.00     0.000 A 
HETATM   17  C   UNL     1      29.731  43.245  54.837  1.00  0.00     0.001 A 
HETATM   18  C   UNL     1      29.044  44.446  54.638  1.00  0.00     0.007 A 
ENDBRANCH  12  13
ENDBRANCH  11  12
ENDBRANCH   8  11
ENDBRANCH   4   7
BRANCH   2  19
HETATM   19  N   UNL     1      25.935  48.430  48.709  1.00  0.00    -0.319 N 
HETATM   20  C   UNL     1      25.471  49.693  48.409  1.00  0.00     0.280 C 
HETATM   21  O   UNL     1      26.298  50.475  47.930  1.00  0.00    -0.265 OA
HETATM   22  H   UNL     1      26.803  48.240  48.221  1.00  0.00     0.169 HD
BRANCH  20  23
HETATM   23  C   UNL     1      24.064  50.021  48.523  1.00  0.00     0.142 A 
HETATM   24  O   UNL     1      23.514  50.032  49.781  1.00  0.00    -0.317 OA
HETATM   25  C   UNL     1      22.216  50.398  49.660  1.00  0.00     0.143 A 
HETATM   26  C   UNL     1      21.906  50.646  48.345  1.00  0.00     0.027 A 
HETATM   27  C   UNL     1      23.097  50.418  47.613  1.00  0.00     0.045 A 
ENDBRANCH  20  23
ENDBRANCH   2  19
BRANCH   1  28
HETATM   28  O   UNL     1      23.577  46.623  48.481  1.00  0.00    -0.354 OA
HETATM   29  C   UNL     1      22.489  45.722  48.702  1.00  0.00     0.210 C 
ENDBRANCH   1  28
TORSDOF 7
ENDMDL
MODEL 2
REMARK VINA RESULT:      -8.7      2.103      3.019
REMARK  7 active torsions:
REMARK  status: ('A' for Active; 'I' for Inactive)
REMARK    1  A    between atoms: O_2  and  C_3 
REMARK    2  A    between atoms: C_4  and  N_5 
REMARK       I    between atoms: N_5  and  C_6 
REMARK    3  A    between atoms: C_6  and  C_7 
REMARK    4  A    between atoms: C_14  and  N_15 
REMARK       I    between atoms: N_15  and  C_16 
REMARK    5  A    between atoms: C_16  and  C_17 
REMARK    6  A    between atoms: C_17  and  C_18 
REMARK    7  A    between atoms: C_18  and  C_19 
ROOT
HETATM    1  C   UNL     1      24.186  44.786  49.114  1.00  0.00     0.095 A 
HETATM    2  C   UNL     1      24.438  45.766  50.082  1.00  0.00     0.070 A 
HETATM    3  C   UNL     1      25.372  45.479  51.095  1.00  0.00     0.062 A 
HETATM    4  C   UNL     1      26.082  44.274  51.115  1.00  0.00     0.037 A 
HETATM    5  C   UNL     1      25.866  43.345  50.093  1.00  0.00     0.032 A 
HETATM    6  C   UNL     1      24.928  43.603  49.094  1.00  0.00     0.041 A 
ENDROOT
BRANCH   4   7
HETATM    7  N   UNL     1      26.994  43.910  52.127  1.00  0.00    -0.327 N 
HETATM    8  C   UNL     1      26.738  43.736  53.477  1.00  0.00     0.222 C 
HETATM    9  O   UNL     1      25.673  43.942  54.049  1.00  0.00    -0.273 OA
HETATM   10  H   UNL     1      27.951  43.772  51.824  1.00  0.00     0.169 HD
BRANCH   8  11
HETATM   11  C   UNL     1      27.937  43.194  54.236  1.00  0.00     0.108 C 
BRANCH  11  12
HETATM   12  C   UNL     1      29.122  44.165  54.222  1.00  0.00     0.047 C 
BRANCH  12  13
HETATM   13  C   UNL     1      29.896  44.233  55.520  1.00  0.00    -0.058 A 
HETATM   14  C   UNL     1      29.721  45.329  56.376  1.00  0.00     0.007 A 
HETATM   15  C   UNL     1      30.468  45.442  57.552  1.00  0.00     0.001 A 
HETATM   16  C   UNL     1      31.401  44.465  57.884  1.00  0.00     0.000 A 
HETATM   17  C   UNL     1      31.596  43.377  57.038  1.00  0.00     0.001 A 
HETATM   18  C   UNL     1      30.857  43.267  55.857  1.00  0.00     0.007 A 
ENDBRANCH  12  13
ENDBRANCH  11  12
ENDBRANCH   8  11
ENDBRANCH   4   7
BRANCH   2  19
HETATM   19  N   UNL     1      23.764  46.998  50.204  1.00  0.00    -0.319 N 
HETATM   20  C   UNL     1      23.938  48.223  49.596  1.00  0.00     0.280 C 
HETATM   21  O   UNL     1      22.929  48.927  49.496  1.00  0.00    -0.265 OA
HETATM   22  H   UNL     1      22.904  46.981  50.739  1.00  0.00     0.169 HD
BRANCH  20  23
HETATM   23  C   UNL     1      25.258  48.697  49.231  1.00  0.00     0.142 A 
HETATM   24  O   UNL     1      25.333  49.734  48.334  1.00  0.00    -0.317 OA
HETATM   25  C   UNL     1      26.643  50.040  48.167  1.00  0.00     0.143 A 
HETATM   26  C   UNL     1      27.429  49.235  48.954  1.00  0.00     0.027 A 
HETATM   27  C   UNL     1      26.540  48.379  49.650  1.00  0.00     0.045 A 
ENDBRANCH  20  23
ENDBRANCH   2  19
BRANCH   1  28
HETATM   28  O   UNL     1      23.203  44.895  48.170  1.00  0.00    -0.354 OA
HETATM   29  C   UNL     1      21.965  44.381  48.668  1.00  0.00     0.210 C 
ENDBRANCH   1  28
TORSDOF 7
ENDMDL
MODEL 3
REMARK VINA RESULT:      -8.5      2.677      8.851
REMARK  7 active torsions:
REMARK  status: ('A' for Active; 'I' for Inactive)
REMARK    1  A    between atoms: O_2  and  C_3 
REMARK    2  A    between atoms: C_4  and  N_5 
REMARK       I    between atoms: N_5  and  C_6 
REMARK    3  A    between atoms: C_6  and  C_7 
REMARK    4  A    between atoms: C_14  and  N_15 
REMARK       I    between atoms: N_15  and  C_16 
REMARK    5  A    between atoms: C_16  and  C_17 
REMARK    6  A    between atoms: C_17  and  C_18 
REMARK    7  A    between atoms: C_18  and  C_19 
ROOT
HETATM    1  C   UNL     1      26.429  43.905  50.893  1.00  0.00     0.095 A 
HETATM    2  C   UNL     1      25.401  44.203  51.795  1.00  0.00     0.070 A 
HETATM    3  C   UNL     1      24.403  45.110  51.395  1.00  0.00     0.062 A 
HETATM    4  C   UNL     1      24.390  45.662  50.109  1.00  0.00     0.037 A 
HETATM    5  C   UNL     1      25.386  45.289  49.202  1.00  0.00     0.032 A 
HETATM    6  C   UNL     1      26.396  44.408  49.590  1.00  0.00     0.041 A 
ENDROOT
BRANCH   4   7
HETATM    7  N   UNL     1      23.445  46.611  49.665  1.00  0.00    -0.327 N 
HETATM    8  C   UNL     1      23.609  47.981  49.547  1.00  0.00     0.222 C 
HETATM    9  O   UNL     1      24.596  48.627  49.882  1.00  0.00    -0.273 OA
HETATM   10  H   UNL     1      22.537  46.238  49.415  1.00  0.00     0.169 HD
BRANCH   8  11
HETATM   11  C   UNL     1      22.420  48.660  48.890  1.00  0.00     0.108 C 
BRANCH  11  12
HETATM   12  C   UNL     1      22.284  50.127  49.307  1.00  0.00     0.047 C 
BRANCH  12  13
HETATM   13  C   UNL     1      20.866  50.653  49.307  1.00  0.00    -0.058 A 
HETATM   14  C   UNL     1      20.525  51.734  48.481  1.00  0.00     0.007 A 
HETATM   15  C   UNL     1      19.236  52.273  48.506  1.00  0.00     0.001 A 
HETATM   16  C   UNL     1      18.273  51.743  49.361  1.00  0.00     0.000 A 
HETATM   17  C   UNL     1      18.599  50.679  50.197  1.00  0.00     0.001 A 
HETATM   18  C   UNL     1      19.891  50.144  50.179  1.00  0.00     0.007 A 
ENDBRANCH  12  13
ENDBRANCH  11  12
ENDBRANCH   8  11
ENDBRANCH   4   7
BRANCH   2  19
HETATM   19  N   UNL     1      25.319  43.754  53.129  1.00  0.00    -0.319 N 
HETATM   20  C   UNL     1      25.400  44.406  54.341  1.00  0.00     0.280 C 
HETATM   21  O   UNL     1      24.791  43.883  55.280  1.00  0.00    -0.265 OA
HETATM   22  H   UNL     1      25.020  42.795  53.255  1.00  0.00     0.169 HD
BRANCH  20  23
HETATM   23  C   UNL     1      26.266  45.553  54.519  1.00  0.00     0.142 A 
HETATM   24  O   UNL     1      25.670  46.776  54.705  1.00  0.00    -0.317 OA
HETATM   25  C   UNL     1      26.652  47.691  54.888  1.00  0.00     0.143 A 
HETATM   26  C   UNL     1      27.886  47.088  54.842  1.00  0.00     0.027 A 
HETATM   27  C   UNL     1      27.639  45.711  54.619  1.00  0.00     0.045 A 
ENDBRANCH  20  23
ENDBRANCH   2  19
BRANCH   1  28
HETATM   28  O   UNL     1      27.524  43.153  51.218  1.00  0.00    -0.354 OA
HETATM   29  C   UNL     1      27.328  41.787  50.841  1.00  0.00     0.210 C 
ENDBRANCH   1  28
TORSDOF 7
ENDMDL
MODEL 4
REMARK VINA RESULT:      -8.4      1.806      3.862
REMARK  7 active torsions:
REMARK  status: ('A' for Active; 'I' for Inactive)
REMARK    1  A    between atoms: O_2  and  C_3 
REMARK    2  A    between atoms: C_4  and  N_5 
REMARK       I    between atoms: N_5  and  C_6 
REMARK    3  A    between atoms: C_6  and  C_7 
REMARK    4  A    between atoms: C_14  and  N_15 
REMARK       I    between atoms: N_15  and  C_16 
REMARK    5  A    between atoms: C_16  and  C_17 
REMARK    6  A    between atoms: C_17  and  C_18 
REMARK    7  A    between atoms: C_18  and  C_19 
ROOT
HETATM    1  C   UNL     1      24.307  49.240  48.347  1.00  0.00     0.095 A 
HETATM    2  C   UNL     1      23.470  48.358  49.043  1.00  0.00     0.070 A 
HETATM    3  C   UNL     1      24.053  47.481  49.977  1.00  0.00     0.062 A 
HETATM    4  C   UNL     1      25.423  47.519  50.259  1.00  0.00     0.037 A 
HETATM    5  C   UNL     1      26.222  48.461  49.606  1.00  0.00     0.032 A 
HETATM    6  C   UNL     1      25.666  49.322  48.661  1.00  0.00     0.041 A 
ENDROOT
BRANCH   4   7
HETATM    7  N   UNL     1      26.072  46.637  51.148  1.00  0.00    -0.327 N 
HETATM    8  C   UNL     1      26.096  46.692  52.532  1.00  0.00     0.222 C 
HETATM    9  O   UNL     1      25.609  47.572  53.234  1.00  0.00    -0.273 OA
HETATM   10  H   UNL     1      26.590  45.883  50.713  1.00  0.00     0.169 HD
BRANCH   8  11
HETATM   11  C   UNL     1      26.772  45.483  53.155  1.00  0.00     0.108 C 
BRANCH  11  12
HETATM   12  C   UNL     1      27.299  45.773  54.564  1.00  0.00     0.047 C 
BRANCH  12  13
HETATM   13  C   UNL     1      28.577  45.047  54.921  1.00  0.00    -0.058 A 
HETATM   14  C   UNL     1      28.839  43.788  54.364  1.00  0.00     0.007 A 
HETATM   15  C   UNL     1      29.986  43.073  54.722  1.00  0.00     0.001 A 
HETATM   16  C   UNL     1      30.880  43.605  55.646  1.00  0.00     0.000 A 
HETATM   17  C   UNL     1      30.627  44.849  56.219  1.00  0.00     0.001 A 
HETATM   18  C   UNL     1      29.477  45.561  55.867  1.00  0.00     0.007 A 
ENDBRANCH  12  13
ENDBRANCH  11  12
ENDBRANCH   8  11
ENDBRANCH   4   7
BRANCH   2  19
HETATM   19  N   UNL     1      22.088  48.187  48.824  1.00  0.00    -0.319 N 
HETATM   20  C   UNL     1      21.329  47.098  48.452  1.00  0.00     0.280 C 
HETATM   21  O   UNL     1      20.156  47.098  48.838  1.00  0.00    -0.265 OA
HETATM   22  H   UNL     1      21.497  48.960  49.105  1.00  0.00     0.169 HD
BRANCH  20  23
HETATM   23  C   UNL     1      21.849  46.095  47.546  1.00  0.00     0.142 A 
HETATM   24  O   UNL     1      21.707  46.322  46.199  1.00  0.00    -0.317 OA
HETATM   25  C   UNL     1      22.292  45.291  45.543  1.00  0.00     0.143 A 
HETATM   26  C   UNL     1      22.833  44.398  46.435  1.00  0.00     0.027 A 
HETATM   27  C   UNL     1      22.562  44.920  47.724  1.00  0.00     0.045 A 
ENDBRANCH  20  23
ENDBRANCH   2  19
BRANCH   1  28
HETATM   28  O   UNL     1      23.878  50.035  47.321  1.00  0.00    -0.354 OA
HETATM   29  C   UNL     1      23.161  51.165  47.823  1.00  0.00     0.210 C 
ENDBRANCH   1  28
TORSDOF 7
ENDMDL
MODEL 5
REMARK VINA RESULT:      -8.3      2.372      4.685
REMARK  7 active torsions:
REMARK  status: ('A' for Active; 'I' for Inactive)
REMARK    1  A    between atoms: O_2  and  C_3 
REMARK    2  A    between atoms: C_4  and  N_5 
REMARK       I    between atoms: N_5  and  C_6 
REMARK    3  A    between atoms: C_6  and  C_7 
REMARK    4  A    between atoms: C_14  and  N_15 
REMARK       I    between atoms: N_15  and  C_16 
REMARK    5  A    between atoms: C_16  and  C_17 
REMARK    6  A    between atoms: C_17  and  C_18 
REMARK    7  A    between atoms: C_18  and  C_19 
ROOT
HETATM    1  C   UNL     1      24.036  47.917  48.955  1.00  0.00     0.095 A 
HETATM    2  C   UNL     1      23.472  46.704  49.368  1.00  0.00     0.070 A 
HETATM    3  C   UNL     1      24.250  45.841  50.162  1.00  0.00     0.062 A 
HETATM    4  C   UNL     1      25.534  46.198  50.587  1.00  0.00     0.037 A 
HETATM    5  C   UNL     1      26.044  47.448  50.223  1.00  0.00     0.032 A 
HETATM    6  C   UNL     1      25.295  48.306  49.418  1.00  0.00     0.041 A 
ENDROOT
BRANCH   4   7
HETATM    7  N   UNL     1      26.380  45.359  51.342  1.00  0.00    -0.327 N 
HETATM    8  C   UNL     1      27.198  44.341  50.880  1.00  0.00     0.222 C 
HETATM    9  O   UNL     1      27.276  43.937  49.725  1.00  0.00    -0.273 OA
HETATM   10  H   UNL     1      26.373  45.519  52.342  1.00  0.00     0.169 HD
BRANCH   8  11
HETATM   11  C   UNL     1      28.077  43.755  51.971  1.00  0.00     0.108 C 
BRANCH  11  12
HETATM   12  C   UNL     1      27.638  44.195  53.372  1.00  0.00     0.047 C 
BRANCH  12  13
HETATM   13  C   UNL     1      28.749  44.232  54.397  1.00  0.00    -0.058 A 
HETATM   14  C   UNL     1      28.944  45.385  55.170  1.00  0.00     0.007 A 
HETATM   15  C   UNL     1      29.999  45.464  56.083  1.00  0.00     0.001 A 
HETATM   16  C   UNL     1      30.875  44.392  56.232  1.00  0.00     0.000 A 
HETATM   17  C   UNL     1      30.704  43.245  55.462  1.00  0.00     0.001 A 
HETATM   18  C   UNL     1      29.654  43.169  54.543  1.00  0.00     0.007 A 
ENDBRANCH  12  13
ENDBRANCH  11  12
ENDBRANCH   8  11
ENDBRANCH   4   7
BRANCH   2  19
HETATM   19  N   UNL     1      22.213  46.205  48.977  1.00  0.00    -0.319 N 
HETATM   20  C   UNL     1      21.716  44.926  48.842  1.00  0.00     0.280 C 
HETATM   21  O   UNL     1      20.497  44.799  48.998  1.00  0.00    -0.265 OA
HETATM   22  H   UNL     1      21.472  46.890  48.891  1.00  0.00     0.169 HD
BRANCH  20  23
HETATM   23  C   UNL     1      22.562  43.835  48.405  1.00  0.00     0.142 A 
HETATM   24  O   UNL     1      22.536  42.677  49.143  1.00  0.00    -0.317 OA
HETATM   25  C   UNL     1      23.361  41.786  48.541  1.00  0.00     0.143 A 
HETATM   26  C   UNL     1      23.915  42.332  47.409  1.00  0.00     0.027 A 
HETATM   27  C   UNL     1      23.392  43.645  47.311  1.00  0.00     0.045 A 
ENDBRANCH  20  23
ENDBRANCH   2  19
BRANCH   1  28
HETATM   28  O   UNL     1      23.433  48.768  48.071  1.00  0.00    -0.354 OA
HETATM   29  C   UNL     1      24.138  50.010  48.005  1.00  0.00     0.210 C 
ENDBRANCH   1  28
TORSDOF 7
ENDMDL
MODEL 6
REMARK VINA RESULT:      -8.3      2.220      3.434
REMARK  7 active torsions:
REMARK  status: ('A' for Active; 'I' for Inactive)
REMARK    1  A    between atoms: O_2  and  C_3 
REMARK    2  A    between atoms: C_4  and  N_5 
REMARK       I    between atoms: N_5  and  C_6 
REMARK    3  A    between atoms: C_6  and  C_7 
REMARK    4  A    between atoms: C_14  and  N_15 
REMARK       I    between atoms: N_15  and  C_16 
REMARK    5  A    between atoms: C_16  and  C_17 
REMARK    6  A    between atoms: C_17  and  C_18 
REMARK    7  A    between atoms: C_18  and  C_19 
ROOT
HETATM    1  C   UNL     1      23.622  48.879  48.275  1.00  0.00     0.095 A 
HETATM    2  C   UNL     1      22.991  47.667  48.580  1.00  0.00     0.070 A 
HETATM    3  C   UNL     1      23.652  46.766  49.436  1.00  0.00     0.062 A 
HETATM    4  C   UNL     1      24.882  47.083  50.022  1.00  0.00     0.037 A 
HETATM    5  C   UNL     1      25.454  48.332  49.760  1.00  0.00     0.032 A 
HETATM    6  C   UNL     1      24.824  49.228  48.898  1.00  0.00     0.041 A 
ENDROOT
BRANCH   4   7
HETATM    7  N   UNL     1      25.615  46.206  50.848  1.00  0.00    -0.327 N 
HETATM    8  C   UNL     1      25.920  46.360  52.190  1.00  0.00     0.222 C 
HETATM    9  O   UNL     1      25.664  47.336  52.887  1.00  0.00    -0.273 OA
HETATM   10  H   UNL     1      25.967  45.371  50.394  1.00  0.00     0.169 HD
BRANCH   8  11
HETATM   11  C   UNL     1      26.597  45.136  52.782  1.00  0.00     0.108 C 
BRANCH  11  12
HETATM   12  C   UNL     1      26.851  45.281  54.285  1.00  0.00     0.047 C 
BRANCH  12  13
HETATM   13  C   UNL     1      28.186  44.744  54.754  1.00  0.00    -0.058 A 
HETATM   14  C   UNL     1      28.966  45.499  55.640  1.00  0.00     0.007 A 
HETATM   15  C   UNL     1      30.228  45.049  56.041  1.00  0.00     0.001 A 
HETATM   16  C   UNL     1      30.726  43.843  55.558  1.00  0.00     0.000 A 
HETATM   17  C   UNL     1      29.968  43.088  54.666  1.00  0.00     0.001 A 
HETATM   18  C   UNL     1      28.711  43.540  54.258  1.00  0.00     0.007 A 
ENDBRANCH  12  13
ENDBRANCH  11  12
ENDBRANCH   8  11
ENDBRANCH   4   7
BRANCH   2  19
HETATM   19  N   UNL     1      21.780  47.206  48.026  1.00  0.00    -0.319 N 
HETATM   20  C   UNL     1      20.505  47.730  48.002  1.00  0.00     0.280 C 
HETATM   21  O   UNL     1      19.801  47.399  47.042  1.00  0.00    -0.265 OA
HETATM   22  H   UNL     1      21.850  46.401  47.415  1.00  0.00     0.169 HD
BRANCH  20  23
HETATM   23  C   UNL     1      19.990  48.503  49.114  1.00  0.00     0.142 A 
HETATM   24  O   UNL     1      20.387  49.814  49.212  1.00  0.00    -0.317 OA
HETATM   25  C   UNL     1      19.764  50.353  50.288  1.00  0.00     0.143 A 
HETATM   26  C   UNL     1      18.950  49.424  50.889  1.00  0.00     0.027 A 
HETATM   27  C   UNL     1      19.083  48.237  50.127  1.00  0.00     0.045 A 
ENDBRANCH  20  23
ENDBRANCH   2  19
BRANCH   1  28
HETATM   28  O   UNL     1      23.146  49.766  47.351  1.00  0.00    -0.354 OA
HETATM   29  C   UNL     1      23.221  51.104  47.850  1.00  0.00     0.210 C 
ENDBRANCH   1  28
TORSDOF 7
ENDMDL
MODEL 7
REMARK VINA RESULT:      -8.0      4.056      5.654
REMARK  7 active torsions:
REMARK  status: ('A' for Active; 'I' for Inactive)
REMARK    1  A    between atoms: O_2  and  C_3 
REMARK    2  A    between atoms: C_4  and  N_5 
REMARK       I    between atoms: N_5  and  C_6 
REMARK    3  A    between atoms: C_6  and  C_7 
REMARK    4  A    between atoms: C_14  and  N_15 
REMARK       I    between atoms: N_15  and  C_16 
REMARK    5  A    between atoms: C_16  and  C_17 
REMARK    6  A    between atoms: C_17  and  C_18 
REMARK    7  A    between atoms: C_18  and  C_19 
ROOT
HETATM    1  C   UNL     1      26.258  40.502  48.799  1.00  0.00     0.095 A 
HETATM    2  C   UNL     1      25.533  41.229  49.752  1.00  0.00     0.070 A 
HETATM    3  C   UNL     1      26.154  41.528  50.978  1.00  0.00     0.062 A 
HETATM    4  C   UNL     1      27.482  41.168  51.233  1.00  0.00     0.037 A 
HETATM    5  C   UNL     1      28.207  40.509  50.236  1.00  0.00     0.032 A 
HETATM    6  C   UNL     1      27.601  40.185  49.023  1.00  0.00     0.041 A 
ENDROOT
BRANCH   4   7
HETATM    7  N   UNL     1      28.143  41.398  52.457  1.00  0.00    -0.327 N 
HETATM    8  C   UNL     1      28.842  42.529  52.845  1.00  0.00     0.222 C 
HETATM    9  O   UNL     1      29.072  43.515  52.154  1.00  0.00    -0.273 OA
HETATM   10  H   UNL     1      28.108  40.634  53.122  1.00  0.00     0.169 HD
BRANCH   8  11
HETATM   11  C   UNL     1      29.291  42.472  54.295  1.00  0.00     0.108 C 
BRANCH  11  12
HETATM   12  C   UNL     1      30.573  43.273  54.539  1.00  0.00     0.047 C 
BRANCH  12  13
HETATM   13  C   UNL     1      30.563  44.112  55.798  1.00  0.00    -0.058 A 
HETATM   14  C   UNL     1      31.390  43.762  56.874  1.00  0.00     0.007 A 
HETATM   15  C   UNL     1      31.355  44.488  58.068  1.00  0.00     0.001 A 
HETATM   16  C   UNL     1      30.489  45.570  58.202  1.00  0.00     0.000 A 
HETATM   17  C   UNL     1      29.651  45.922  57.148  1.00  0.00     0.001 A 
HETATM   18  C   UNL     1      29.679  45.191  55.957  1.00  0.00     0.007 A 
ENDBRANCH  12  13
ENDBRANCH  11  12
ENDBRANCH   8  11
ENDBRANCH   4   7
BRANCH   2  19
HETATM   19  N   UNL     1      24.182  41.612  49.641  1.00  0.00    -0.319 N 
HETATM   20  C   UNL     1      23.571  42.827  49.414  1.00  0.00     0.280 C 
HETATM   21  O   UNL     1      22.467  42.784  48.861  1.00  0.00    -0.265 OA
HETATM   22  H   UNL     1      23.509  40.856  49.590  1.00  0.00     0.169 HD
BRANCH  20  23
HETATM   23  C   UNL     1      24.137  44.058  49.926  1.00  0.00     0.142 A 
HETATM   24  O   UNL     1      24.058  44.279  51.279  1.00  0.00    -0.317 OA
HETATM   25  C   UNL     1      24.676  45.456  51.542  1.00  0.00     0.143 A 
HETATM   26  C   UNL     1      25.177  46.004  50.387  1.00  0.00     0.027 A 
HETATM   27  C   UNL     1      24.844  45.100  49.348  1.00  0.00     0.045 A 
ENDBRANCH  20  23
ENDBRANCH   2  19
BRANCH   1  28
HETATM   28  O   UNL     1      25.716  40.032  47.635  1.00  0.00    -0.354 OA
HETATM   29  C   UNL     1      26.422  40.551  46.505  1.00  0.00     0.210 C 
ENDBRANCH   1  28
TORSDOF 7
ENDMDL
MODEL 8
REMARK VINA RESULT:      -7.9      1.529      2.038
REMARK  7 active torsions:
REMARK  status: ('A' for Active; 'I' for Inactive)
REMARK    1  A    between atoms: O_2  and  C_3 
REMARK    2  A    between atoms: C_4  and  N_5 
REMARK       I    between atoms: N_5  and  C_6 
REMARK    3  A    between atoms: C_6  and  C_7 
REMARK    4  A    between atoms: C_14  and  N_15 
REMARK       I    between atoms: N_15  and  C_16 
REMARK    5  A    between atoms: C_16  and  C_17 
REMARK    6  A    between atoms: C_17  and  C_18 
REMARK    7  A    between atoms: C_18  and  C_19 
ROOT
HETATM    1  C   UNL     1      23.171  46.613  48.706  1.00  0.00     0.095 A 
HETATM    2  C   UNL     1      23.889  47.678  49.263  1.00  0.00     0.070 A 
HETATM    3  C   UNL     1      24.678  47.430  50.401  1.00  0.00     0.062 A 
HETATM    4  C   UNL     1      24.799  46.145  50.941  1.00  0.00     0.037 A 
HETATM    5  C   UNL     1      24.132  45.085  50.320  1.00  0.00     0.032 A 
HETATM    6  C   UNL     1      23.328  45.317  49.204  1.00  0.00     0.041 A 
ENDROOT
BRANCH   4   7
HETATM    7  N   UNL     1      25.535  45.842  52.105  1.00  0.00    -0.327 N 
HETATM    8  C   UNL     1      25.744  46.650  53.211  1.00  0.00     0.222 C 
HETATM    9  O   UNL     1      25.382  47.814  53.341  1.00  0.00    -0.273 OA
HETATM   10  H   UNL     1      25.968  44.927  52.122  1.00  0.00     0.169 HD
BRANCH   8  11
HETATM   11  C   UNL     1      26.462  45.927  54.338  1.00  0.00     0.108 C 
BRANCH  11  12
HETATM   12  C   UNL     1      27.424  44.853  53.820  1.00  0.00     0.047 C 
BRANCH  12  13
HETATM   13  C   UNL     1      28.659  44.652  54.670  1.00  0.00    -0.058 A 
HETATM   14  C   UNL     1      29.104  45.686  55.505  1.00  0.00     0.007 A 
HETATM   15  C   UNL     1      30.274  45.543  56.256  1.00  0.00     0.001 A 
HETATM   16  C   UNL     1      31.018  44.369  56.176  1.00  0.00     0.000 A 
HETATM   17  C   UNL     1      30.597  43.338  55.340  1.00  0.00     0.001 A 
HETATM   18  C   UNL     1      29.431  43.483  54.583  1.00  0.00     0.007 A 
ENDBRANCH  12  13
ENDBRANCH  11  12
ENDBRANCH   8  11
ENDBRANCH   4   7
BRANCH   2  19
HETATM   19  N   UNL     1      23.821  49.024  48.847  1.00  0.00    -0.319 N 
HETATM   20  C   UNL     1      22.820  49.970  48.904  1.00  0.00     0.280 C 
HETATM   21  O   UNL     1      23.189  51.147  48.958  1.00  0.00    -0.265 OA
HETATM   22  H   UNL     1      24.698  49.444  48.562  1.00  0.00     0.169 HD
BRANCH  20  23
HETATM   23  C   UNL     1      21.427  49.597  48.765  1.00  0.00     0.142 A 
HETATM   24  O   UNL     1      20.786  49.111  49.878  1.00  0.00    -0.317 OA
HETATM   25  C   UNL     1      19.498  48.865  49.537  1.00  0.00     0.143 A 
HETATM   26  C   UNL     1      19.276  49.198  48.223  1.00  0.00     0.027 A 
HETATM   27  C   UNL     1      20.512  49.682  47.728  1.00  0.00     0.045 A 
ENDBRANCH  20  23
ENDBRANCH   2  19
BRANCH   1  28
HETATM   28  O   UNL     1      22.266  46.760  47.692  1.00  0.00    -0.354 OA
HETATM   29  C   UNL     1      21.137  45.907  47.895  1.00  0.00     0.210 C 
ENDBRANCH   1  28
TORSDOF 7
ENDMDL
MODEL 9
REMARK VINA RESULT:      -7.9      4.943      6.822
REMARK  7 active torsions:
REMARK  status: ('A' for Active; 'I' for Inactive)
REMARK    1  A    between atoms: O_2  and  C_3 
REMARK    2  A    between atoms: C_4  and  N_5 
REMARK       I    between atoms: N_5  and  C_6 
REMARK    3  A    between atoms: C_6  and  C_7 
REMARK    4  A    between atoms: C_14  and  N_15 
REMARK       I    between atoms: N_15  and  C_16 
REMARK    5  A    between atoms: C_16  and  C_17 
REMARK    6  A    between atoms: C_17  and  C_18 
REMARK    7  A    between atoms: C_18  and  C_19 
ROOT
HETATM    1  C   UNL     1      25.093  41.671  49.832  1.00  0.00     0.095 A 
HETATM    2  C   UNL     1      26.093  41.066  50.604  1.00  0.00     0.070 A 
HETATM    3  C   UNL     1      26.747  41.843  51.578  1.00  0.00     0.062 A 
HETATM    4  C   UNL     1      26.378  43.170  51.823  1.00  0.00     0.037 A 
HETATM    5  C   UNL     1      25.325  43.726  51.090  1.00  0.00     0.032 A 
HETATM    6  C   UNL     1      24.681  42.978  50.106  1.00  0.00     0.041 A 
ENDROOT
BRANCH   4   7
HETATM    7  N   UNL     1      27.025  44.013  52.751  1.00  0.00    -0.327 N 
HETATM    8  C   UNL     1      26.584  44.385  54.010  1.00  0.00     0.222 C 
HETATM    9  O   UNL     1      25.504  44.100  54.517  1.00  0.00    -0.273 OA
HETATM   10  H   UNL     1      27.911  44.397  52.447  1.00  0.00     0.169 HD
BRANCH   8  11
HETATM   11  C   UNL     1      27.620  45.184  54.782  1.00  0.00     0.108 C 
BRANCH  11  12
HETATM   12  C   UNL     1      29.048  44.701  54.509  1.00  0.00     0.047 C 
BRANCH  12  13
HETATM   13  C   UNL     1      29.932  44.625  55.734  1.00  0.00    -0.058 A 
HETATM   14  C   UNL     1      30.839  43.565  55.872  1.00  0.00     0.007 A 
HETATM   15  C   UNL     1      31.625  43.443  57.022  1.00  0.00     0.001 A 
HETATM   16  C   UNL     1      31.511  44.376  58.049  1.00  0.00     0.000 A 
HETATM   17  C   UNL     1      30.605  45.427  57.932  1.00  0.00     0.001 A 
HETATM   18  C   UNL     1      29.813  45.545  56.788  1.00  0.00     0.007 A 
ENDBRANCH  12  13
ENDBRANCH  11  12
ENDBRANCH   8  11
ENDBRANCH   4   7
BRANCH   2  19
HETATM   19  N   UNL     1      26.590  39.759  50.431  1.00  0.00    -0.319 N 
HETATM   20  C   UNL     1      27.471  39.206  49.525  1.00  0.00     0.280 C 
HETATM   21  O   UNL     1      28.102  38.219  49.916  1.00  0.00    -0.265 OA
HETATM   22  H   UNL     1      26.376  39.102  51.171  1.00  0.00     0.169 HD
BRANCH  20  23
HETATM   23  C   UNL     1      27.535  39.679  48.157  1.00  0.00     0.142 A 
HETATM   24  O   UNL     1      28.325  40.773  47.900  1.00  0.00    -0.317 OA
HETATM   25  C   UNL     1      28.270  41.016  46.568  1.00  0.00     0.143 A 
HETATM   26  C   UNL     1      27.473  40.090  45.942  1.00  0.00     0.027 A 
HETATM   27  C   UNL     1      27.010  39.220  46.960  1.00  0.00     0.045 A 
ENDBRANCH  20  23
ENDBRANCH   2  19
BRANCH   1  28
HETATM   28  O   UNL     1      24.490  41.062  48.767  1.00  0.00    -0.354 OA
HETATM   29  C   UNL     1      24.332  41.981  47.683  1.00  0.00     0.210 C 
ENDBRANCH   1  28
TORSDOF 7
ENDMDL
MODEL 10
REMARK VINA RESULT:      -7.9      1.671      2.407
REMARK  7 active torsions:
REMARK  status: ('A' for Active; 'I' for Inactive)
REMARK    1  A    between atoms: O_2  and  C_3 
REMARK    2  A    between atoms: C_4  and  N_5 
REMARK       I    between atoms: N_5  and  C_6 
REMARK    3  A    between atoms: C_6  and  C_7 
REMARK    4  A    between atoms: C_14  and  N_15 
REMARK       I    between atoms: N_15  and  C_16 
REMARK    5  A    between atoms: C_16  and  C_17 
REMARK    6  A    between atoms: C_17  and  C_18 
REMARK    7  A    between atoms: C_18  and  C_19 
ROOT
HETATM    1  C   UNL     1      24.460  44.991  48.969  1.00  0.00     0.095 A 
HETATM    2  C   UNL     1      23.809  46.059  49.599  1.00  0.00     0.070 A 
HETATM    3  C   UNL     1      24.472  46.719  50.651  1.00  0.00     0.062 A 
HETATM    4  C   UNL     1      25.772  46.367  51.030  1.00  0.00     0.037 A 
HETATM    5  C   UNL     1      26.427  45.347  50.334  1.00  0.00     0.032 A 
HETATM    6  C   UNL     1      25.777  44.668  49.304  1.00  0.00     0.041 A 
ENDROOT
BRANCH   4   7
HETATM    7  N   UNL     1      26.469  46.957  52.105  1.00  0.00    -0.327 N 
HETATM    8  C   UNL     1      26.308  46.711  53.458  1.00  0.00     0.222 C 
HETATM    9  O   UNL     1      25.466  45.981  53.970  1.00  0.00    -0.273 OA
HETATM   10  H   UNL     1      27.162  47.650  51.848  1.00  0.00     0.169 HD
BRANCH   8  11
HETATM   11  C   UNL     1      27.342  47.424  54.311  1.00  0.00     0.108 C 
BRANCH  11  12
HETATM   12  C   UNL     1      27.647  46.669  55.609  1.00  0.00     0.047 C 
BRANCH  12  13
HETATM   13  C   UNL     1      28.721  45.612  55.485  1.00  0.00    -0.058 A 
HETATM   14  C   UNL     1      28.504  44.493  54.669  1.00  0.00     0.007 A 
HETATM   15  C   UNL     1      29.459  43.476  54.584  1.00  0.00     0.001 A 
HETATM   16  C   UNL     1      30.639  43.561  55.318  1.00  0.00     0.000 A 
HETATM   17  C   UNL     1      30.863  44.660  56.144  1.00  0.00     0.001 A 
HETATM   18  C   UNL     1      29.906  45.673  56.236  1.00  0.00     0.007 A 
ENDBRANCH  12  13
ENDBRANCH  11  12
ENDBRANCH   8  11
ENDBRANCH   4   7
BRANCH   2  19
HETATM   19  N   UNL     1      22.490  46.485  49.346  1.00  0.00    -0.319 N 
HETATM   20  C   UNL     1      21.970  47.565  48.665  1.00  0.00     0.280 C 
HETATM   21  O   UNL     1      20.850  47.407  48.171  1.00  0.00    -0.265 OA
HETATM   22  H   UNL     1      21.758  45.829  49.592  1.00  0.00     0.169 HD
BRANCH  20  23
HETATM   23  C   UNL     1      22.649  48.845  48.660  1.00  0.00     0.142 A 
HETATM   24  O   UNL     1      22.132  49.840  49.454  1.00  0.00    -0.317 OA
HETATM   25  C   UNL     1      22.935  50.925  49.329  1.00  0.00     0.143 A 
HETATM   26  C   UNL     1      23.981  50.655  48.481  1.00  0.00     0.027 A 
HETATM   27  C   UNL     1      23.807  49.313  48.060  1.00  0.00     0.045 A 
ENDBRANCH  20  23
ENDBRANCH   2  19
BRANCH   1  28
HETATM   28  O   UNL     1      23.864  44.189  48.035  1.00  0.00    -0.354 OA
HETATM   29  C   UNL     1      23.337  43.009  48.647  1.00  0.00     0.210 C 
ENDBRANCH   1  28
TORSDOF 7
ENDMDL
