MODEL 1
REMARK VINA RESULT:      -9.9      0.000      0.000
REMARK  4 active torsions:
REMARK  status: ('A' for Active; 'I' for Inactive)
REMARK    1  A    between atoms: C_8  and  C_9 
REMARK    2  A    between atoms: C_9  and  C_10 
REMARK       I    between atoms: C_10  and  N_11 
REMARK    3  A    between atoms: N_11  and  C_12 
REMARK    4  A    between atoms: C_14  and  C_15 
ROOT
HETATM    1  C   UNL     1      27.368  43.763  53.448  1.00  0.00     0.226 C 
HETATM    2  N   UNL     1      27.320  43.576  52.068  1.00  0.00    -0.327 N 
HETATM    3  O   UNL     1      26.979  42.966  54.295  1.00  0.00    -0.273 OA
HETATM    4  H   UNL     1      27.521  44.383  51.494  1.00  0.00     0.169 HD
ENDROOT
BRANCH   1   5
HETATM    5  C   UNL     1      27.917  45.134  53.796  1.00  0.00     0.144 C 
BRANCH   5   6
HETATM    6  C   UNL     1      28.514  45.340  55.160  1.00  0.00    -0.021 A 
HETATM    7  C   UNL     1      29.636  44.723  55.846  1.00  0.00     0.005 A 
HETATM    8  C   UNL     1      30.562  43.666  55.589  1.00  0.00    -0.049 A 
HETATM    9  C   UNL     1      29.789  45.424  57.054  1.00  0.00     0.043 A 
HETATM   10  C   UNL     1      30.566  42.790  54.367  1.00  0.00     0.049 C 
HETATM   11  C   UNL     1      31.539  43.370  56.570  1.00  0.00     0.007 A 
HETATM   12  C   UNL     1      31.653  44.099  57.746  1.00  0.00     0.003 A 
HETATM   13  C   UNL     1      30.780  45.146  58.003  1.00  0.00     0.030 A 
HETATM   14  N   UNL     1      28.820  46.394  57.108  1.00  0.00    -0.365 N 
HETATM   15  H   UNL     1      28.710  47.048  57.870  1.00  0.00     0.165 HD
HETATM   16  C   UNL     1      28.056  46.358  55.985  1.00  0.00     0.097 A 
ENDBRANCH   5   6
ENDBRANCH   1   5
BRANCH   2  17
HETATM   17  C   UNL     1      27.068  42.386  51.357  1.00  0.00     0.035 A 
HETATM   18  C   UNL     1      28.007  41.369  51.169  1.00  0.00     0.042 A 
HETATM   19  C   UNL     1      27.709  40.244  50.378  1.00  0.00    -0.021 A 
HETATM   20  C   UNL     1      26.439  40.151  49.791  1.00  0.00     0.012 A 
HETATM   21  C   UNL     1      25.493  41.156  49.981  1.00  0.00     0.003 A 
HETATM   22  C   UNL     1      25.809  42.270  50.756  1.00  0.00     0.029 A 
BRANCH  19  23
HETATM   23  C   UNL     1      28.698  39.202  50.137  1.00  0.00     0.010 A 
HETATM   24  C   UNL     1      29.597  38.555  51.025  1.00  0.00     0.152 A 
HETATM   25  N   UNL     1      30.354  37.634  50.423  1.00  0.00    -0.187 NA
HETATM   26  N   UNL     1      29.942  37.680  49.147  1.00  0.00    -0.289 N 
HETATM   27  H   UNL     1      30.377  37.054  48.477  1.00  0.00     0.188 HD
HETATM   28  C   UNL     1      28.959  38.599  48.925  1.00  0.00     0.123 A 
ENDBRANCH  19  23
ENDBRANCH   2  17
TORSDOF 4
ENDMDL
MODEL 2
REMARK VINA RESULT:      -9.9      5.329      7.557
REMARK  4 active torsions:
REMARK  status: ('A' for Active; 'I' for Inactive)
REMARK    1  A    between atoms: C_8  and  C_9 
REMARK    2  A    between atoms: C_9  and  C_10 
REMARK       I    between atoms: C_10  and  N_11 
REMARK    3  A    between atoms: N_11  and  C_12 
REMARK    4  A    between atoms: C_14  and  C_15 
ROOT
HETATM    1  C   UNL     1      26.040  46.798  52.444  1.00  0.00     0.226 C 
HETATM    2  N   UNL     1      26.464  46.955  51.126  1.00  0.00    -0.327 N 
HETATM    3  O   UNL     1      25.380  47.606  53.089  1.00  0.00    -0.273 OA
HETATM    4  H   UNL     1      27.138  46.283  50.784  1.00  0.00     0.169 HD
ENDROOT
BRANCH   1   5
HETATM    5  C   UNL     1      26.554  45.497  53.034  1.00  0.00     0.144 C 
BRANCH   5   6
HETATM    6  C   UNL     1      27.506  45.565  54.196  1.00  0.00    -0.021 A 
HETATM    7  C   UNL     1      28.669  44.776  54.561  1.00  0.00     0.005 A 
HETATM    8  C   UNL     1      29.341  43.616  54.065  1.00  0.00    -0.049 A 
HETATM    9  C   UNL     1      29.225  45.399  55.691  1.00  0.00     0.043 A 
HETATM   10  C   UNL     1      28.908  42.800  52.879  1.00  0.00     0.049 C 
HETATM   11  C   UNL     1      30.488  43.152  54.755  1.00  0.00     0.007 A 
HETATM   12  C   UNL     1      31.001  43.810  55.864  1.00  0.00     0.003 A 
HETATM   13  C   UNL     1      30.378  44.951  56.347  1.00  0.00     0.030 A 
HETATM   14  N   UNL     1      28.448  46.486  56.002  1.00  0.00    -0.365 N 
HETATM   15  H   UNL     1      28.630  47.116  56.771  1.00  0.00     0.165 HD
HETATM   16  C   UNL     1      27.423  46.599  55.117  1.00  0.00     0.097 A 
ENDBRANCH   5   6
ENDBRANCH   1   5
BRANCH   2  17
HETATM   17  C   UNL     1      26.041  47.912  50.182  1.00  0.00     0.035 A 
HETATM   18  C   UNL     1      24.705  48.154  49.854  1.00  0.00     0.042 A 
HETATM   19  C   UNL     1      24.362  49.068  48.841  1.00  0.00    -0.021 A 
HETATM   20  C   UNL     1      25.390  49.752  48.174  1.00  0.00     0.012 A 
HETATM   21  C   UNL     1      26.725  49.523  48.502  1.00  0.00     0.003 A 
HETATM   22  C   UNL     1      27.048  48.604  49.499  1.00  0.00     0.029 A 
BRANCH  19  23
HETATM   23  C   UNL     1      22.975  49.293  48.458  1.00  0.00     0.010 A 
HETATM   24  C   UNL     1      21.797  48.567  48.775  1.00  0.00     0.152 A 
HETATM   25  N   UNL     1      20.696  49.095  48.234  1.00  0.00    -0.187 NA
HETATM   26  N   UNL     1      21.159  50.165  47.570  1.00  0.00    -0.289 N 
HETATM   27  H   UNL     1      20.495  50.745  47.068  1.00  0.00     0.188 HD
HETATM   28  C   UNL     1      22.510  50.326  47.671  1.00  0.00     0.123 A 
ENDBRANCH  19  23
ENDBRANCH   2  17
TORSDOF 4
ENDMDL
MODEL 3
REMARK VINA RESULT:      -9.7      5.371      7.926
REMARK  4 active torsions:
REMARK  status: ('A' for Active; 'I' for Inactive)
REMARK    1  A    between atoms: C_8  and  C_9 
REMARK    2  A    between atoms: C_9  and  C_10 
REMARK       I    between atoms: C_10  and  N_11 
REMARK    3  A    between atoms: N_11  and  C_12 
REMARK    4  A    between atoms: C_14  and  C_15 
ROOT
HETATM    1  C   UNL     1      25.829  46.633  52.618  1.00  0.00     0.226 C 
HETATM    2  N   UNL     1      25.868  46.583  51.226  1.00  0.00    -0.327 N 
HETATM    3  O   UNL     1      25.838  47.651  53.302  1.00  0.00    -0.273 OA
HETATM    4  H   UNL     1      26.022  45.675  50.810  1.00  0.00     0.169 HD
ENDROOT
BRANCH   1   5
HETATM    5  C   UNL     1      25.835  45.239  53.217  1.00  0.00     0.144 C 
BRANCH   5   6
HETATM    6  C   UNL     1      27.128  44.473  53.236  1.00  0.00    -0.021 A 
HETATM    7  C   UNL     1      28.273  44.501  54.130  1.00  0.00     0.005 A 
HETATM    8  C   UNL     1      28.696  45.264  55.261  1.00  0.00    -0.049 A 
HETATM    9  C   UNL     1      29.122  43.463  53.709  1.00  0.00     0.043 A 
HETATM   10  C   UNL     1      27.944  46.417  55.864  1.00  0.00     0.049 C 
HETATM   11  C   UNL     1      29.943  44.954  55.858  1.00  0.00     0.007 A 
HETATM   12  C   UNL     1      30.741  43.913  55.407  1.00  0.00     0.003 A 
HETATM   13  C   UNL     1      30.338  43.144  54.325  1.00  0.00     0.030 A 
HETATM   14  N   UNL     1      28.541  42.852  52.626  1.00  0.00    -0.365 N 
HETATM   15  H   UNL     1      28.941  42.066  52.133  1.00  0.00     0.165 HD
HETATM   16  C   UNL     1      27.351  43.441  52.337  1.00  0.00     0.097 A 
ENDBRANCH   5   6
ENDBRANCH   1   5
BRANCH   2  17
HETATM   17  C   UNL     1      25.677  47.636  50.309  1.00  0.00     0.035 A 
HETATM   18  C   UNL     1      24.425  48.097  49.893  1.00  0.00     0.042 A 
HETATM   19  C   UNL     1      24.311  49.099  48.912  1.00  0.00    -0.021 A 
HETATM   20  C   UNL     1      25.483  49.644  48.368  1.00  0.00     0.012 A 
HETATM   21  C   UNL     1      26.736  49.197  48.784  1.00  0.00     0.003 A 
HETATM   22  C   UNL     1      26.830  48.194  49.747  1.00  0.00     0.029 A 
BRANCH  19  23
HETATM   23  C   UNL     1      23.012  49.553  48.437  1.00  0.00     0.010 A 
HETATM   24  C   UNL     1      21.926  48.830  47.877  1.00  0.00     0.152 A 
HETATM   25  N   UNL     1      20.886  49.608  47.565  1.00  0.00    -0.187 NA
HETATM   26  N   UNL     1      21.295  50.834  47.927  1.00  0.00    -0.289 N 
HETATM   27  H   UNL     1      20.662  51.614  47.788  1.00  0.00     0.188 HD
HETATM   28  C   UNL     1      22.556  50.854  48.450  1.00  0.00     0.123 A 
ENDBRANCH  19  23
ENDBRANCH   2  17
TORSDOF 4
ENDMDL
MODEL 4
REMARK VINA RESULT:      -9.5      5.217      7.884
REMARK  4 active torsions:
REMARK  status: ('A' for Active; 'I' for Inactive)
REMARK    1  A    between atoms: C_8  and  C_9 
REMARK    2  A    between atoms: C_9  and  C_10 
REMARK       I    between atoms: C_10  and  N_11 
REMARK    3  A    between atoms: N_11  and  C_12 
REMARK    4  A    between atoms: C_14  and  C_15 
ROOT
HETATM    1  C   UNL     1      26.720  44.727  50.450  1.00  0.00     0.226 C 
HETATM    2  N   UNL     1      25.864  45.791  50.728  1.00  0.00    -0.327 N 
HETATM    3  O   UNL     1      27.425  44.612  49.454  1.00  0.00    -0.273 OA
HETATM    4  H   UNL     1      25.226  45.669  51.502  1.00  0.00     0.169 HD
ENDROOT
BRANCH   1   5
HETATM    5  C   UNL     1      26.634  43.659  51.526  1.00  0.00     0.144 C 
BRANCH   5   6
HETATM    6  C   UNL     1      27.884  43.299  52.278  1.00  0.00    -0.021 A 
HETATM    7  C   UNL     1      28.518  43.860  53.459  1.00  0.00     0.005 A 
HETATM    8  C   UNL     1      28.303  44.973  54.329  1.00  0.00    -0.049 A 
HETATM    9  C   UNL     1      29.598  43.014  53.762  1.00  0.00     0.043 A 
HETATM   10  C   UNL     1      27.215  45.999  54.178  1.00  0.00     0.049 C 
HETATM   11  C   UNL     1      29.201  45.172  55.406  1.00  0.00     0.007 A 
HETATM   12  C   UNL     1      30.250  44.301  55.666  1.00  0.00     0.003 A 
HETATM   13  C   UNL     1      30.461  43.201  54.848  1.00  0.00     0.030 A 
HETATM   14  N   UNL     1      29.630  42.013  52.824  1.00  0.00    -0.365 N 
HETATM   15  H   UNL     1      30.306  41.262  52.814  1.00  0.00     0.165 HD
HETATM   16  C   UNL     1      28.612  42.168  51.937  1.00  0.00     0.097 A 
ENDBRANCH   5   6
ENDBRANCH   1   5
BRANCH   2  17
HETATM   17  C   UNL     1      25.800  47.047  50.093  1.00  0.00     0.035 A 
HETATM   18  C   UNL     1      24.610  47.711  49.785  1.00  0.00     0.042 A 
HETATM   19  C   UNL     1      24.621  48.927  49.076  1.00  0.00    -0.021 A 
HETATM   20  C   UNL     1      25.856  49.474  48.698  1.00  0.00     0.012 A 
HETATM   21  C   UNL     1      27.048  48.823  49.010  1.00  0.00     0.003 A 
HETATM   22  C   UNL     1      27.018  47.614  49.700  1.00  0.00     0.029 A 
BRANCH  19  23
HETATM   23  C   UNL     1      23.385  49.603  48.708  1.00  0.00     0.010 A 
HETATM   24  C   UNL     1      22.904  50.897  49.036  1.00  0.00     0.152 A 
HETATM   25  N   UNL     1      21.711  51.164  48.498  1.00  0.00    -0.187 NA
HETATM   26  N   UNL     1      21.421  50.044  47.817  1.00  0.00    -0.289 N 
HETATM   27  H   UNL     1      20.544  50.003  47.307  1.00  0.00     0.188 HD
HETATM   28  C   UNL     1      22.385  49.084  47.912  1.00  0.00     0.123 A 
ENDBRANCH  19  23
ENDBRANCH   2  17
TORSDOF 4
ENDMDL
MODEL 5
REMARK VINA RESULT:      -9.3      1.644      8.067
REMARK  4 active torsions:
REMARK  status: ('A' for Active; 'I' for Inactive)
REMARK    1  A    between atoms: C_8  and  C_9 
REMARK    2  A    between atoms: C_9  and  C_10 
REMARK       I    between atoms: C_10  and  N_11 
REMARK    3  A    between atoms: N_11  and  C_12 
REMARK    4  A    between atoms: C_14  and  C_15 
ROOT
HETATM    1  C   UNL     1      27.126  43.579  51.626  1.00  0.00     0.226 C 
HETATM    2  N   UNL     1      26.956  43.720  53.001  1.00  0.00    -0.327 N 
HETATM    3  O   UNL     1      27.641  44.403  50.877  1.00  0.00    -0.273 OA
HETATM    4  H   UNL     1      26.369  43.035  53.457  1.00  0.00     0.169 HD
ENDROOT
BRANCH   1   5
HETATM    5  C   UNL     1      26.528  42.276  51.130  1.00  0.00     0.144 C 
BRANCH   5   6
HETATM    6  C   UNL     1      27.428  41.078  51.002  1.00  0.00    -0.021 A 
HETATM    7  C   UNL     1      27.590  40.077  49.962  1.00  0.00     0.005 A 
HETATM    8  C   UNL     1      26.963  39.752  48.720  1.00  0.00    -0.049 A 
HETATM    9  C   UNL     1      28.679  39.280  50.353  1.00  0.00     0.043 A 
HETATM   10  C   UNL     1      25.782  40.468  48.127  1.00  0.00     0.049 C 
HETATM   11  C   UNL     1      27.448  38.639  47.989  1.00  0.00     0.007 A 
HETATM   12  C   UNL     1      28.533  37.888  48.417  1.00  0.00     0.003 A 
HETATM   13  C   UNL     1      29.172  38.202  49.607  1.00  0.00     0.030 A 
HETATM   14  N   UNL     1      29.142  39.754  51.554  1.00  0.00    -0.365 N 
HETATM   15  H   UNL     1      29.928  39.365  52.057  1.00  0.00     0.165 HD
HETATM   16  C   UNL     1      28.408  40.827  51.950  1.00  0.00     0.097 A 
ENDBRANCH   5   6
ENDBRANCH   1   5
BRANCH   2  17
HETATM   17  C   UNL     1      27.536  44.676  53.859  1.00  0.00     0.035 A 
HETATM   18  C   UNL     1      28.531  44.389  54.796  1.00  0.00     0.042 A 
HETATM   19  C   UNL     1      29.005  45.379  55.676  1.00  0.00    -0.021 A 
HETATM   20  C   UNL     1      28.472  46.673  55.584  1.00  0.00     0.012 A 
HETATM   21  C   UNL     1      27.486  46.970  54.645  1.00  0.00     0.003 A 
HETATM   22  C   UNL     1      27.018  45.974  53.791  1.00  0.00     0.029 A 
BRANCH  19  23
HETATM   23  C   UNL     1      30.009  45.079  56.688  1.00  0.00     0.010 A 
HETATM   24  C   UNL     1      31.048  44.112  56.704  1.00  0.00     0.152 A 
HETATM   25  N   UNL     1      31.777  44.147  57.823  1.00  0.00    -0.187 NA
HETATM   26  N   UNL     1      31.213  45.138  58.531  1.00  0.00    -0.289 N 
HETATM   27  H   UNL     1      31.602  45.363  59.440  1.00  0.00     0.188 HD
HETATM   28  C   UNL     1      30.154  45.723  57.899  1.00  0.00     0.123 A 
ENDBRANCH  19  23
ENDBRANCH   2  17
TORSDOF 4
ENDMDL
MODEL 6
REMARK VINA RESULT:      -9.2      4.855      7.186
REMARK  4 active torsions:
REMARK  status: ('A' for Active; 'I' for Inactive)
REMARK    1  A    between atoms: C_8  and  C_9 
REMARK    2  A    between atoms: C_9  and  C_10 
REMARK       I    between atoms: C_10  and  N_11 
REMARK    3  A    between atoms: N_11  and  C_12 
REMARK    4  A    between atoms: C_14  and  C_15 
ROOT
HETATM    1  C   UNL     1      25.576  44.679  51.969  1.00  0.00     0.226 C 
HETATM    2  N   UNL     1      25.680  45.456  50.817  1.00  0.00    -0.327 N 
HETATM    3  O   UNL     1      24.548  44.465  52.602  1.00  0.00    -0.273 OA
HETATM    4  H   UNL     1      26.615  45.677  50.503  1.00  0.00     0.169 HD
ENDROOT
BRANCH   1   5
HETATM    5  C   UNL     1      26.934  44.160  52.404  1.00  0.00     0.144 C 
BRANCH   5   6
HETATM    6  C   UNL     1      27.555  44.731  53.648  1.00  0.00    -0.021 A 
HETATM    7  C   UNL     1      28.755  44.393  54.393  1.00  0.00     0.005 A 
HETATM    8  C   UNL     1      29.771  43.390  54.334  1.00  0.00    -0.049 A 
HETATM    9  C   UNL     1      28.880  45.367  55.397  1.00  0.00     0.043 A 
HETATM   10  C   UNL     1      29.820  42.257  53.348  1.00  0.00     0.049 C 
HETATM   11  C   UNL     1      30.807  43.419  55.301  1.00  0.00     0.007 A 
HETATM   12  C   UNL     1      30.888  44.410  56.269  1.00  0.00     0.003 A 
HETATM   13  C   UNL     1      29.925  45.407  56.328  1.00  0.00     0.030 A 
HETATM   14  N   UNL     1      27.823  46.234  55.281  1.00  0.00    -0.365 N 
HETATM   15  H   UNL     1      27.675  47.036  55.878  1.00  0.00     0.165 HD
HETATM   16  C   UNL     1      27.028  45.869  54.241  1.00  0.00     0.097 A 
ENDBRANCH   5   6
ENDBRANCH   1   5
BRANCH   2  17
HETATM   17  C   UNL     1      24.643  45.943  49.997  1.00  0.00     0.035 A 
HETATM   18  C   UNL     1      24.324  47.295  49.854  1.00  0.00     0.042 A 
HETATM   19  C   UNL     1      23.222  47.703  49.080  1.00  0.00    -0.021 A 
HETATM   20  C   UNL     1      22.454  46.723  48.435  1.00  0.00     0.012 A 
HETATM   21  C   UNL     1      22.771  45.372  48.564  1.00  0.00     0.003 A 
HETATM   22  C   UNL     1      23.857  44.985  49.345  1.00  0.00     0.029 A 
BRANCH  19  23
HETATM   23  C   UNL     1      22.853  49.107  48.964  1.00  0.00     0.010 A 
HETATM   24  C   UNL     1      23.576  50.215  48.451  1.00  0.00     0.152 A 
HETATM   25  N   UNL     1      22.889  51.360  48.509  1.00  0.00    -0.187 NA
HETATM   26  N   UNL     1      21.720  50.993  49.055  1.00  0.00    -0.289 N 
HETATM   27  H   UNL     1      21.012  51.704  49.202  1.00  0.00     0.188 HD
HETATM   28  C   UNL     1      21.650  49.661  49.346  1.00  0.00     0.123 A 
ENDBRANCH  19  23
ENDBRANCH   2  17
TORSDOF 4
ENDMDL
MODEL 7
REMARK VINA RESULT:      -9.0      1.636      1.966
REMARK  4 active torsions:
REMARK  status: ('A' for Active; 'I' for Inactive)
REMARK    1  A    between atoms: C_8  and  C_9 
REMARK    2  A    between atoms: C_9  and  C_10 
REMARK       I    between atoms: C_10  and  N_11 
REMARK    3  A    between atoms: N_11  and  C_12 
REMARK    4  A    between atoms: C_14  and  C_15 
ROOT
HETATM    1  C   UNL     1      26.481  43.970  52.074  1.00  0.00     0.226 C 
HETATM    2  N   UNL     1      25.738  42.802  51.914  1.00  0.00    -0.327 N 
HETATM    3  O   UNL     1      27.363  44.371  51.322  1.00  0.00    -0.273 OA
HETATM    4  H   UNL     1      25.165  42.519  52.698  1.00  0.00     0.169 HD
ENDROOT
BRANCH   1   5
HETATM    5  C   UNL     1      26.108  44.686  53.360  1.00  0.00     0.144 C 
BRANCH   5   6
HETATM    6  C   UNL     1      27.213  45.187  54.247  1.00  0.00    -0.021 A 
HETATM    7  C   UNL     1      28.454  44.587  54.705  1.00  0.00     0.005 A 
HETATM    8  C   UNL     1      29.102  43.319  54.596  1.00  0.00    -0.049 A 
HETATM    9  C   UNL     1      29.136  45.592  55.411  1.00  0.00     0.043 A 
HETATM   10  C   UNL     1      28.543  42.112  53.895  1.00  0.00     0.049 C 
HETATM   11  C   UNL     1      30.358  43.145  55.229  1.00  0.00     0.007 A 
HETATM   12  C   UNL     1      30.994  44.174  55.908  1.00  0.00     0.003 A 
HETATM   13  C   UNL     1      30.393  45.421  56.005  1.00  0.00     0.030 A 
HETATM   14  N   UNL     1      28.360  46.724  55.395  1.00  0.00    -0.365 N 
HETATM   15  H   UNL     1      28.621  47.600  55.826  1.00  0.00     0.165 HD
HETATM   16  C   UNL     1      27.214  46.497  54.702  1.00  0.00     0.097 A 
ENDBRANCH   5   6
ENDBRANCH   1   5
BRANCH   2  17
HETATM   17  C   UNL     1      25.644  41.977  50.776  1.00  0.00     0.035 A 
HETATM   18  C   UNL     1      26.500  40.907  50.509  1.00  0.00     0.042 A 
HETATM   19  C   UNL     1      26.396  40.177  49.310  1.00  0.00    -0.021 A 
HETATM   20  C   UNL     1      25.399  40.532  48.390  1.00  0.00     0.012 A 
HETATM   21  C   UNL     1      24.534  41.593  48.653  1.00  0.00     0.003 A 
HETATM   22  C   UNL     1      24.660  42.314  49.839  1.00  0.00     0.029 A 
BRANCH  19  23
HETATM   23  C   UNL     1      27.314  39.089  49.001  1.00  0.00     0.010 A 
HETATM   24  C   UNL     1      28.514  39.078  48.242  1.00  0.00     0.152 A 
HETATM   25  N   UNL     1      29.087  37.872  48.189  1.00  0.00    -0.187 NA
HETATM   26  N   UNL     1      28.261  37.104  48.916  1.00  0.00    -0.289 N 
HETATM   27  H   UNL     1      28.490  36.122  49.028  1.00  0.00     0.188 HD
HETATM   28  C   UNL     1      27.189  37.782  49.419  1.00  0.00     0.123 A 
ENDBRANCH  19  23
ENDBRANCH   2  17
TORSDOF 4
ENDMDL
MODEL 8
REMARK VINA RESULT:      -8.9      4.310      6.014
REMARK  4 active torsions:
REMARK  status: ('A' for Active; 'I' for Inactive)
REMARK    1  A    between atoms: C_8  and  C_9 
REMARK    2  A    between atoms: C_9  and  C_10 
REMARK       I    between atoms: C_10  and  N_11 
REMARK    3  A    between atoms: N_11  and  C_12 
REMARK    4  A    between atoms: C_14  and  C_15 
ROOT
HETATM    1  C   UNL     1      25.692  44.804  52.015  1.00  0.00     0.226 C 
HETATM    2  N   UNL     1      25.700  45.687  50.938  1.00  0.00    -0.327 N 
HETATM    3  O   UNL     1      24.702  44.445  52.643  1.00  0.00    -0.273 OA
HETATM    4  H   UNL     1      26.605  46.016  50.628  1.00  0.00     0.169 HD
ENDROOT
BRANCH   1   5
HETATM    5  C   UNL     1      27.100  44.367  52.376  1.00  0.00     0.144 C 
BRANCH   5   6
HETATM    6  C   UNL     1      27.694  44.859  53.665  1.00  0.00    -0.021 A 
HETATM    7  C   UNL     1      28.862  44.454  54.428  1.00  0.00     0.005 A 
HETATM    8  C   UNL     1      29.856  43.431  54.349  1.00  0.00    -0.049 A 
HETATM    9  C   UNL     1      28.977  45.374  55.484  1.00  0.00     0.043 A 
HETATM   10  C   UNL     1      29.910  42.348  53.308  1.00  0.00     0.049 C 
HETATM   11  C   UNL     1      30.861  43.386  55.347  1.00  0.00     0.007 A 
HETATM   12  C   UNL     1      30.935  44.325  56.366  1.00  0.00     0.003 A 
HETATM   13  C   UNL     1      29.994  45.341  56.447  1.00  0.00     0.030 A 
HETATM   14  N   UNL     1      27.945  46.271  55.381  1.00  0.00    -0.365 N 
HETATM   15  H   UNL     1      27.796  47.045  56.013  1.00  0.00     0.165 HD
HETATM   16  C   UNL     1      27.175  45.978  54.300  1.00  0.00     0.097 A 
ENDBRANCH   5   6
ENDBRANCH   1   5
BRANCH   2  17
HETATM   17  C   UNL     1      24.605  46.155  50.184  1.00  0.00     0.035 A 
HETATM   18  C   UNL     1      23.743  45.332  49.457  1.00  0.00     0.042 A 
HETATM   19  C   UNL     1      22.718  45.877  48.662  1.00  0.00    -0.021 A 
HETATM   20  C   UNL     1      22.564  47.271  48.625  1.00  0.00     0.012 A 
HETATM   21  C   UNL     1      23.414  48.099  49.356  1.00  0.00     0.003 A 
HETATM   22  C   UNL     1      24.431  47.543  50.127  1.00  0.00     0.029 A 
BRANCH  19  23
HETATM   23  C   UNL     1      21.844  45.030  47.863  1.00  0.00     0.010 A 
HETATM   24  C   UNL     1      21.939  43.653  47.531  1.00  0.00     0.152 A 
HETATM   25  N   UNL     1      20.926  43.228  46.770  1.00  0.00    -0.187 NA
HETATM   26  N   UNL     1      20.173  44.327  46.614  1.00  0.00    -0.289 N 
HETATM   27  H   UNL     1      19.324  44.255  46.063  1.00  0.00     0.188 HD
HETATM   28  C   UNL     1      20.678  45.427  47.243  1.00  0.00     0.123 A 
ENDBRANCH  19  23
ENDBRANCH   2  17
TORSDOF 4
ENDMDL
MODEL 9
REMARK VINA RESULT:      -8.8      4.402      8.024
REMARK  4 active torsions:
REMARK  status: ('A' for Active; 'I' for Inactive)
REMARK    1  A    between atoms: C_8  and  C_9 
REMARK    2  A    between atoms: C_9  and  C_10 
REMARK       I    between atoms: C_10  and  N_11 
REMARK    3  A    between atoms: N_11  and  C_12 
REMARK    4  A    between atoms: C_14  and  C_15 
ROOT
HETATM    1  C   UNL     1      24.982  44.494  51.484  1.00  0.00     0.226 C 
HETATM    2  N   UNL     1      26.068  43.682  51.162  1.00  0.00    -0.327 N 
HETATM    3  O   UNL     1      24.528  44.676  52.608  1.00  0.00    -0.273 OA
HETATM    4  H   UNL     1      26.222  43.500  50.179  1.00  0.00     0.169 HD
ENDROOT
BRANCH   1   5
HETATM    5  C   UNL     1      24.363  45.101  50.238  1.00  0.00     0.144 C 
BRANCH   5   6
HETATM    6  C   UNL     1      24.790  46.481  49.826  1.00  0.00    -0.021 A 
HETATM    7  C   UNL     1      24.097  47.566  49.153  1.00  0.00     0.005 A 
HETATM    8  C   UNL     1      22.818  47.771  48.550  1.00  0.00    -0.049 A 
HETATM    9  C   UNL     1      24.980  48.659  49.160  1.00  0.00     0.043 A 
HETATM   10  C   UNL     1      21.736  46.735  48.430  1.00  0.00     0.049 C 
HETATM   11  C   UNL     1      22.537  49.035  47.974  1.00  0.00     0.007 A 
HETATM   12  C   UNL     1      23.443  50.085  48.015  1.00  0.00     0.003 A 
HETATM   13  C   UNL     1      24.681  49.914  48.616  1.00  0.00     0.030 A 
HETATM   14  N   UNL     1      26.137  48.266  49.784  1.00  0.00    -0.365 N 
HETATM   15  H   UNL     1      26.937  48.865  49.931  1.00  0.00     0.165 HD
HETATM   16  C   UNL     1      26.036  46.972  50.189  1.00  0.00     0.097 A 
ENDBRANCH   5   6
ENDBRANCH   1   5
BRANCH   2  17
HETATM   17  C   UNL     1      27.018  43.111  52.031  1.00  0.00     0.035 A 
HETATM   18  C   UNL     1      27.708  43.820  53.016  1.00  0.00     0.042 A 
HETATM   19  C   UNL     1      28.703  43.199  53.794  1.00  0.00    -0.021 A 
HETATM   20  C   UNL     1      28.979  41.842  53.575  1.00  0.00     0.012 A 
HETATM   21  C   UNL     1      28.288  41.124  52.601  1.00  0.00     0.003 A 
HETATM   22  C   UNL     1      27.315  41.758  51.831  1.00  0.00     0.029 A 
BRANCH  19  23
HETATM   23  C   UNL     1      29.462  43.942  54.791  1.00  0.00     0.010 A 
HETATM   24  C   UNL     1      29.231  45.218  55.369  1.00  0.00     0.152 A 
HETATM   25  N   UNL     1      30.161  45.561  56.265  1.00  0.00    -0.187 NA
HETATM   26  N   UNL     1      30.990  44.506  56.272  1.00  0.00    -0.289 N 
HETATM   27  H   UNL     1      31.793  44.528  56.892  1.00  0.00     0.188 HD
HETATM   28  C   UNL     1      30.618  43.516  55.409  1.00  0.00     0.123 A 
ENDBRANCH  19  23
ENDBRANCH   2  17
TORSDOF 4
ENDMDL
MODEL 10
REMARK VINA RESULT:      -8.7      5.112      8.800
REMARK  4 active torsions:
REMARK  status: ('A' for Active; 'I' for Inactive)
REMARK    1  A    between atoms: C_8  and  C_9 
REMARK    2  A    between atoms: C_9  and  C_10 
REMARK       I    between atoms: C_10  and  N_11 
REMARK    3  A    between atoms: N_11  and  C_12 
REMARK    4  A    between atoms: C_14  and  C_15 
ROOT
HETATM    1  C   UNL     1      24.534  45.212  50.763  1.00  0.00     0.226 C 
HETATM    2  N   UNL     1      25.733  45.847  51.079  1.00  0.00    -0.327 N 
HETATM    3  O   UNL     1      23.856  44.533  51.527  1.00  0.00    -0.273 OA
HETATM    4  H   UNL     1      26.260  46.230  50.305  1.00  0.00     0.169 HD
ENDROOT
BRANCH   1   5
HETATM    5  C   UNL     1      24.177  45.409  49.301  1.00  0.00     0.144 C 
BRANCH   5   6
HETATM    6  C   UNL     1      23.234  46.522  48.939  1.00  0.00    -0.021 A 
HETATM    7  C   UNL     1      23.427  47.947  48.735  1.00  0.00     0.005 A 
HETATM    8  C   UNL     1      24.501  48.882  48.856  1.00  0.00    -0.049 A 
HETATM    9  C   UNL     1      22.194  48.449  48.286  1.00  0.00     0.043 A 
HETATM   10  C   UNL     1      25.891  48.556  49.326  1.00  0.00     0.049 C 
HETATM   11  C   UNL     1      24.249  50.244  48.555  1.00  0.00     0.007 A 
HETATM   12  C   UNL     1      23.013  50.686  48.107  1.00  0.00     0.003 A 
HETATM   13  C   UNL     1      21.964  49.791  47.959  1.00  0.00     0.030 A 
HETATM   14  N   UNL     1      21.306  47.405  48.230  1.00  0.00    -0.365 N 
HETATM   15  H   UNL     1      20.345  47.489  47.930  1.00  0.00     0.165 HD
HETATM   16  C   UNL     1      21.913  46.251  48.613  1.00  0.00     0.097 A 
ENDBRANCH   5   6
ENDBRANCH   1   5
BRANCH   2  17
HETATM   17  C   UNL     1      26.295  46.067  52.352  1.00  0.00     0.035 A 
HETATM   18  C   UNL     1      27.341  45.313  52.889  1.00  0.00     0.042 A 
HETATM   19  C   UNL     1      27.797  45.539  54.201  1.00  0.00    -0.021 A 
HETATM   20  C   UNL     1      27.193  46.553  54.959  1.00  0.00     0.012 A 
HETATM   21  C   UNL     1      26.156  47.316  54.426  1.00  0.00     0.003 A 
HETATM   22  C   UNL     1      25.707  47.070  53.131  1.00  0.00     0.029 A 
BRANCH  19  23
HETATM   23  C   UNL     1      28.854  44.727  54.788  1.00  0.00     0.010 A 
HETATM   24  C   UNL     1      29.255  43.392  54.519  1.00  0.00     0.152 A 
HETATM   25  N   UNL     1      30.285  42.994  55.271  1.00  0.00    -0.187 NA
HETATM   26  N   UNL     1      30.555  44.072  56.023  1.00  0.00    -0.289 N 
HETATM   27  H   UNL     1      31.320  44.016  56.688  1.00  0.00     0.188 HD
HETATM   28  C   UNL     1      29.730  45.129  55.775  1.00  0.00     0.123 A 
ENDBRANCH  19  23
ENDBRANCH   2  17
TORSDOF 4
ENDMDL
