MODEL 1
REMARK VINA RESULT:      -9.1      0.000      0.000
REMARK  9 active torsions:
REMARK  status: ('A' for Active; 'I' for Inactive)
REMARK    1  A    between atoms: C_2  and  O_3 
REMARK    2  A    between atoms: O_3  and  C_4 
REMARK    3  A    between atoms: C_5  and  C_6 
REMARK    4  A    between atoms: N_7  and  C_9 
REMARK    5  A    between atoms: C_9  and  C_10 
REMARK       I    between atoms: C_10  and  N_11 
REMARK    6  A    between atoms: N_11  and  C_12 
REMARK    7  A    between atoms: C_20  and  C_21 
REMARK    8  A    between atoms: C_21  and  O_22 
REMARK    9  A    between atoms: C_28  and  O_29 
ROOT
HETATM    1  C   UNL     1      23.640  46.432  48.448  1.00  0.00     0.231 C 
HETATM    2  N   UNL     1      24.707  45.846  49.393  1.00  0.00    -0.054 N 
HETATM    3  H   UNL     1      25.499  46.469  49.181  1.00  0.00     0.281 HD
HETATM    4  C   UNL     1      25.177  44.474  49.007  1.00  0.00     0.239 C 
HETATM    5  C   UNL     1      24.010  43.519  48.846  1.00  0.00     0.066 C 
HETATM    6  C   UNL     1      23.052  44.037  47.776  1.00  0.00     0.065 C 
HETATM    7  C   UNL     1      22.492  45.417  48.198  1.00  0.00     0.055 C 
HETATM    8  C   UNL     1      21.908  43.039  47.525  1.00  0.00     0.038 C 
HETATM    9  C   UNL     1      20.937  43.550  46.462  1.00  0.00     0.003 C 
HETATM   10  C   UNL     1      20.402  44.932  46.813  1.00  0.00     0.001 C 
HETATM   11  C   UNL     1      21.520  45.930  47.109  1.00  0.00     0.010 C 
ENDROOT
BRANCH   2  12
HETATM   12  C   UNL     1      24.497  46.042  50.913  1.00  0.00     0.338 C 
BRANCH  12  13
HETATM   13  C   UNL     1      25.202  44.910  51.688  1.00  0.00     0.248 C 
HETATM   14  N   UNL     1      26.591  45.015  51.575  1.00  0.00    -0.319 N 
HETATM   15  H   UNL     1      26.974  45.722  50.961  1.00  0.00     0.169 HD
HETATM   16  O   UNL     1      24.593  44.150  52.432  1.00  0.00    -0.271 OA
BRANCH  14  17
HETATM   17  C   UNL     1      27.358  44.814  52.704  1.00  0.00     0.094 C 
HETATM   18  S   UNL     1      28.397  43.481  52.500  1.00  0.00    -0.075 SA
HETATM   19  C   UNL     1      29.237  43.863  53.920  1.00  0.00    -0.008 C 
HETATM   20  C   UNL     1      28.667  44.921  54.606  1.00  0.00    -0.026 C 
HETATM   21  C   UNL     1      30.455  43.102  54.350  1.00  0.00     0.047 C 
HETATM   22  C   UNL     1      29.196  45.354  55.950  1.00  0.00     0.041 C 
HETATM   23  C   UNL     1      27.508  45.462  53.915  1.00  0.00     0.080 C 
HETATM   24  C   UNL     1      30.599  44.792  56.233  1.00  0.00     0.005 C 
HETATM   25  C   UNL     1      30.718  43.313  55.845  1.00  0.00     0.005 C 
BRANCH  23  26
HETATM   26  C   UNL     1      26.610  46.490  54.450  1.00  0.00     0.296 C 
HETATM   27  O   UNL     1      25.435  46.277  54.722  1.00  0.00    -0.259 OA
BRANCH  26  28
HETATM   28  O   UNL     1      27.192  47.727  54.487  1.00  0.00    -0.322 OA
HETATM   29  C   UNL     1      26.702  48.569  55.531  1.00  0.00     0.213 C 
ENDBRANCH  26  28
ENDBRANCH  23  26
ENDBRANCH  14  17
ENDBRANCH  12  13
ENDBRANCH   2  12
BRANCH   1  30
HETATM   30  C   UNL     1      23.305  47.881  48.794  1.00  0.00     0.006 A 
HETATM   31  C   UNL     1      24.242  48.935  48.816  1.00  0.00     0.077 A 
HETATM   32  C   UNL     1      23.827  50.235  49.129  1.00  0.00     0.037 A 
HETATM   33  C   UNL     1      22.492  50.503  49.428  1.00  0.00     0.003 A 
HETATM   34  C   UNL     1      21.557  49.477  49.407  1.00  0.00     0.001 A 
HETATM   35  C   UNL     1      21.956  48.180  49.092  1.00  0.00     0.012 A 
BRANCH  31  36
HETATM   36  O   UNL     1      25.530  48.636  48.458  1.00  0.00    -0.351 OA
BRANCH  36  37
HETATM   37  C   UNL     1      26.456  49.728  48.410  1.00  0.00     0.171 C 
HETATM   38  C   UNL     1      27.748  49.271  49.064  1.00  0.00     0.034 C 
ENDBRANCH  36  37
ENDBRANCH  31  36
ENDBRANCH   1  30
BRANCH   6  39
HETATM   39  O   UNL     1      23.817  44.197  46.575  1.00  0.00    -0.389 OA
HETATM   40  H   UNL     1      23.358  44.821  45.978  1.00  0.00     0.210 HD
ENDBRANCH   6  39
TORSDOF 9
ENDMDL
MODEL 2
REMARK VINA RESULT:      -9.0      3.216      8.420
REMARK  9 active torsions:
REMARK  status: ('A' for Active; 'I' for Inactive)
REMARK    1  A    between atoms: C_2  and  O_3 
REMARK    2  A    between atoms: O_3  and  C_4 
REMARK    3  A    between atoms: C_5  and  C_6 
REMARK    4  A    between atoms: N_7  and  C_9 
REMARK    5  A    between atoms: C_9  and  C_10 
REMARK       I    between atoms: C_10  and  N_11 
REMARK    6  A    between atoms: N_11  and  C_12 
REMARK    7  A    between atoms: C_20  and  C_21 
REMARK    8  A    between atoms: C_21  and  O_22 
REMARK    9  A    between atoms: C_28  and  O_29 
ROOT
HETATM    1  C   UNL     1      27.533  41.517  51.717  1.00  0.00     0.231 C 
HETATM    2  N   UNL     1      26.626  42.487  50.936  1.00  0.00    -0.054 N 
HETATM    3  H   UNL     1      26.047  42.853  51.706  1.00  0.00     0.281 HD
HETATM    4  C   UNL     1      25.659  41.809  50.011  1.00  0.00     0.239 C 
HETATM    5  C   UNL     1      26.374  40.859  49.070  1.00  0.00     0.066 C 
HETATM    6  C   UNL     1      27.128  39.798  49.868  1.00  0.00     0.065 C 
HETATM    7  C   UNL     1      28.189  40.476  50.769  1.00  0.00     0.055 C 
HETATM    8  C   UNL     1      27.785  38.765  48.936  1.00  0.00     0.038 C 
HETATM    9  C   UNL     1      28.550  37.703  49.723  1.00  0.00     0.003 C 
HETATM   10  C   UNL     1      29.570  38.331  50.663  1.00  0.00     0.001 C 
HETATM   11  C   UNL     1      28.949  39.392  51.570  1.00  0.00     0.010 C 
ENDROOT
BRANCH   2  12
HETATM   12  C   UNL     1      27.282  43.759  50.350  1.00  0.00     0.338 C 
BRANCH  12  13
HETATM   13  C   UNL     1      26.473  45.005  50.768  1.00  0.00     0.248 C 
HETATM   14  N   UNL     1      26.303  45.877  49.689  1.00  0.00    -0.319 N 
HETATM   15  H   UNL     1      26.773  45.668  48.819  1.00  0.00     0.169 HD
HETATM   16  O   UNL     1      25.923  45.090  51.861  1.00  0.00    -0.271 OA
BRANCH  14  17
HETATM   17  C   UNL     1      25.064  46.455  49.503  1.00  0.00     0.094 C 
HETATM   18  S   UNL     1      25.146  48.143  49.712  1.00  0.00    -0.075 SA
HETATM   19  C   UNL     1      23.576  48.338  49.109  1.00  0.00    -0.008 C 
HETATM   20  C   UNL     1      22.949  47.129  48.859  1.00  0.00    -0.026 C 
HETATM   21  C   UNL     1      22.971  49.692  48.895  1.00  0.00     0.047 C 
HETATM   22  C   UNL     1      21.507  47.076  48.419  1.00  0.00     0.041 C 
HETATM   23  C   UNL     1      23.812  45.995  49.145  1.00  0.00     0.080 C 
HETATM   24  C   UNL     1      21.001  48.436  47.913  1.00  0.00     0.005 C 
HETATM   25  C   UNL     1      21.443  49.591  48.820  1.00  0.00     0.005 C 
BRANCH  23  26
HETATM   26  C   UNL     1      23.396  44.589  49.115  1.00  0.00     0.296 C 
HETATM   27  O   UNL     1      22.877  44.024  50.069  1.00  0.00    -0.259 OA
BRANCH  26  28
HETATM   28  O   UNL     1      23.767  43.957  47.960  1.00  0.00    -0.322 OA
HETATM   29  C   UNL     1      22.699  43.766  47.032  1.00  0.00     0.213 C 
ENDBRANCH  26  28
ENDBRANCH  23  26
ENDBRANCH  14  17
ENDBRANCH  12  13
ENDBRANCH   2  12
BRANCH   1  30
HETATM   30  C   UNL     1      28.391  42.242  52.750  1.00  0.00     0.006 A 
HETATM   31  C   UNL     1      27.882  42.930  53.871  1.00  0.00     0.077 A 
HETATM   32  C   UNL     1      28.757  43.549  54.771  1.00  0.00     0.037 A 
HETATM   33  C   UNL     1      30.136  43.501  54.570  1.00  0.00     0.003 A 
HETATM   34  C   UNL     1      30.653  42.824  53.473  1.00  0.00     0.001 A 
HETATM   35  C   UNL     1      29.793  42.200  52.573  1.00  0.00     0.012 A 
BRANCH  31  36
HETATM   36  O   UNL     1      26.525  42.901  54.060  1.00  0.00    -0.351 OA
BRANCH  36  37
HETATM   37  C   UNL     1      26.018  43.613  55.196  1.00  0.00     0.171 C 
HETATM   38  C   UNL     1      24.788  44.385  54.748  1.00  0.00     0.034 C 
ENDBRANCH  36  37
ENDBRANCH  31  36
ENDBRANCH   1  30
BRANCH   6  39
HETATM   39  O   UNL     1      26.165  39.143  50.702  1.00  0.00    -0.389 OA
HETATM   40  H   UNL     1      25.392  38.881  50.163  1.00  0.00     0.210 HD
ENDBRANCH   6  39
TORSDOF 9
ENDMDL
MODEL 3
REMARK VINA RESULT:      -8.8      3.548      5.975
REMARK  9 active torsions:
REMARK  status: ('A' for Active; 'I' for Inactive)
REMARK    1  A    between atoms: C_2  and  O_3 
REMARK    2  A    between atoms: O_3  and  C_4 
REMARK    3  A    between atoms: C_5  and  C_6 
REMARK    4  A    between atoms: N_7  and  C_9 
REMARK    5  A    between atoms: C_9  and  C_10 
REMARK       I    between atoms: C_10  and  N_11 
REMARK    6  A    between atoms: N_11  and  C_12 
REMARK    7  A    between atoms: C_20  and  C_21 
REMARK    8  A    between atoms: C_21  and  O_22 
REMARK    9  A    between atoms: C_28  and  O_29 
ROOT
HETATM    1  C   UNL     1      25.436  40.905  49.280  1.00  0.00     0.231 C 
HETATM    2  N   UNL     1      25.796  41.873  50.423  1.00  0.00    -0.054 N 
HETATM    3  H   UNL     1      25.862  41.210  51.209  1.00  0.00     0.281 HD
HETATM    4  C   UNL     1      24.689  42.813  50.800  1.00  0.00     0.239 C 
HETATM    5  C   UNL     1      24.176  43.569  49.590  1.00  0.00     0.066 C 
HETATM    6  C   UNL     1      23.662  42.590  48.537  1.00  0.00     0.065 C 
HETATM    7  C   UNL     1      24.814  41.665  48.076  1.00  0.00     0.055 C 
HETATM    8  C   UNL     1      23.048  43.334  47.339  1.00  0.00     0.038 C 
HETATM    9  C   UNL     1      22.539  42.364  46.274  1.00  0.00     0.003 C 
HETATM   10  C   UNL     1      23.629  41.399  45.830  1.00  0.00     0.001 C 
HETATM   11  C   UNL     1      24.284  40.679  47.008  1.00  0.00     0.010 C 
ENDROOT
BRANCH   2  12
HETATM   12  C   UNL     1      27.199  42.524  50.390  1.00  0.00     0.338 C 
BRANCH  12  13
HETATM   13  C   UNL     1      27.952  42.209  51.700  1.00  0.00     0.248 C 
HETATM   14  N   UNL     1      28.923  43.179  51.964  1.00  0.00    -0.319 N 
HETATM   15  H   UNL     1      29.092  43.896  51.272  1.00  0.00     0.169 HD
HETATM   16  O   UNL     1      27.593  41.318  52.461  1.00  0.00    -0.271 OA
BRANCH  14  17
HETATM   17  C   UNL     1      29.051  43.642  53.258  1.00  0.00     0.094 C 
HETATM   18  S   UNL     1      30.361  42.889  54.043  1.00  0.00    -0.075 SA
HETATM   19  C   UNL     1      30.254  43.965  55.347  1.00  0.00    -0.008 C 
HETATM   20  C   UNL     1      29.166  44.814  55.247  1.00  0.00    -0.026 C 
HETATM   21  C   UNL     1      31.248  43.953  56.468  1.00  0.00     0.047 C 
HETATM   22  C   UNL     1      28.825  45.777  56.356  1.00  0.00     0.041 C 
HETATM   23  C   UNL     1      28.407  44.591  54.027  1.00  0.00     0.080 C 
HETATM   24  C   UNL     1      29.993  45.977  57.334  1.00  0.00     0.005 C 
HETATM   25  C   UNL     1      30.670  44.651  57.704  1.00  0.00     0.005 C 
BRANCH  23  26
HETATM   26  C   UNL     1      27.129  45.231  53.699  1.00  0.00     0.296 C 
HETATM   27  O   UNL     1      26.958  46.443  53.738  1.00  0.00    -0.259 OA
BRANCH  26  28
HETATM   28  O   UNL     1      26.131  44.324  53.475  1.00  0.00    -0.322 OA
HETATM   29  C   UNL     1      25.162  44.253  54.521  1.00  0.00     0.213 C 
ENDBRANCH  26  28
ENDBRANCH  23  26
ENDBRANCH  14  17
ENDBRANCH  12  13
ENDBRANCH   2  12
BRANCH   1  30
HETATM   30  C   UNL     1      26.536  39.875  49.036  1.00  0.00     0.006 A 
HETATM   31  C   UNL     1      27.590  40.035  48.112  1.00  0.00     0.077 A 
HETATM   32  C   UNL     1      28.561  39.037  47.976  1.00  0.00     0.037 A 
HETATM   33  C   UNL     1      28.497  37.874  48.742  1.00  0.00     0.003 A 
HETATM   34  C   UNL     1      27.469  37.703  49.659  1.00  0.00     0.001 A 
HETATM   35  C   UNL     1      26.499  38.692  49.807  1.00  0.00     0.012 A 
BRANCH  31  36
HETATM   36  O   UNL     1      27.645  41.219  47.424  1.00  0.00    -0.351 OA
BRANCH  36  37
HETATM   37  C   UNL     1      28.257  41.183  46.128  1.00  0.00     0.171 C 
HETATM   38  C   UNL     1      27.228  40.657  45.143  1.00  0.00     0.034 C 
ENDBRANCH  36  37
ENDBRANCH  31  36
ENDBRANCH   1  30
BRANCH   6  39
HETATM   39  O   UNL     1      22.654  41.791  49.169  1.00  0.00    -0.389 OA
HETATM   40  H   UNL     1      22.624  40.910  48.746  1.00  0.00     0.210 HD
ENDBRANCH   6  39
TORSDOF 9
ENDMDL
MODEL 4
REMARK VINA RESULT:      -8.7      3.250      8.364
REMARK  9 active torsions:
REMARK  status: ('A' for Active; 'I' for Inactive)
REMARK    1  A    between atoms: C_2  and  O_3 
REMARK    2  A    between atoms: O_3  and  C_4 
REMARK    3  A    between atoms: C_5  and  C_6 
REMARK    4  A    between atoms: N_7  and  C_9 
REMARK    5  A    between atoms: C_9  and  C_10 
REMARK       I    between atoms: C_10  and  N_11 
REMARK    6  A    between atoms: N_11  and  C_12 
REMARK    7  A    between atoms: C_20  and  C_21 
REMARK    8  A    between atoms: C_21  and  O_22 
REMARK    9  A    between atoms: C_28  and  O_29 
ROOT
HETATM    1  C   UNL     1      24.266  44.519  50.237  1.00  0.00     0.231 C 
HETATM    2  N   UNL     1      23.045  45.153  49.543  1.00  0.00    -0.054 N 
HETATM    3  H   UNL     1      22.499  45.444  50.367  1.00  0.00     0.281 HD
HETATM    4  C   UNL     1      22.169  44.166  48.827  1.00  0.00     0.239 C 
HETATM    5  C   UNL     1      22.973  43.326  47.852  1.00  0.00     0.066 C 
HETATM    6  C   UNL     1      24.073  42.570  48.593  1.00  0.00     0.065 C 
HETATM    7  C   UNL     1      25.034  43.576  49.271  1.00  0.00     0.055 C 
HETATM    8  C   UNL     1      24.842  41.637  47.642  1.00  0.00     0.038 C 
HETATM    9  C   UNL     1      25.952  40.881  48.370  1.00  0.00     0.003 C 
HETATM   10  C   UNL     1      26.892  41.833  49.096  1.00  0.00     0.001 C 
HETATM   11  C   UNL     1      26.147  42.800  50.015  1.00  0.00     0.010 C 
ENDROOT
BRANCH   2  12
HETATM   12  C   UNL     1      23.268  46.478  48.778  1.00  0.00     0.338 C 
BRANCH  12  13
HETATM   13  C   UNL     1      21.931  46.972  48.188  1.00  0.00     0.248 C 
HETATM   14  N   UNL     1      21.063  47.394  49.200  1.00  0.00    -0.319 N 
HETATM   15  H   UNL     1      21.340  47.258  50.162  1.00  0.00     0.169 HD
HETATM   16  O   UNL     1      21.765  47.123  46.983  1.00  0.00    -0.271 OA
BRANCH  14  17
HETATM   17  C   UNL     1      20.350  48.559  49.007  1.00  0.00     0.094 C 
HETATM   18  S   UNL     1      18.726  48.218  48.624  1.00  0.00    -0.075 SA
HETATM   19  C   UNL     1      18.297  49.847  48.798  1.00  0.00    -0.008 C 
HETATM   20  C   UNL     1      19.391  50.662  49.030  1.00  0.00    -0.026 C 
HETATM   21  C   UNL     1      16.875  50.308  48.693  1.00  0.00     0.047 C 
HETATM   22  C   UNL     1      19.243  52.161  49.107  1.00  0.00     0.041 C 
HETATM   23  C   UNL     1      20.632  49.908  49.101  1.00  0.00     0.080 C 
HETATM   24  C   UNL     1      17.782  52.593  49.307  1.00  0.00     0.005 C 
HETATM   25  C   UNL     1      16.819  51.812  48.404  1.00  0.00     0.005 C 
BRANCH  23  26
HETATM   26  C   UNL     1      21.973  50.495  49.196  1.00  0.00     0.296 C 
HETATM   27  O   UNL     1      22.431  50.949  50.236  1.00  0.00    -0.259 OA
BRANCH  26  28
HETATM   28  O   UNL     1      22.590  50.591  47.980  1.00  0.00    -0.322 OA
HETATM   29  C   UNL     1      23.946  50.142  47.979  1.00  0.00     0.213 C 
ENDBRANCH  26  28
ENDBRANCH  23  26
ENDBRANCH  14  17
ENDBRANCH  12  13
ENDBRANCH   2  12
BRANCH   1  30
HETATM   30  C   UNL     1      25.039  45.536  51.073  1.00  0.00     0.006 A 
HETATM   31  C   UNL     1      25.208  45.458  52.471  1.00  0.00     0.077 A 
HETATM   32  C   UNL     1      25.953  46.435  53.143  1.00  0.00     0.037 A 
HETATM   33  C   UNL     1      26.529  47.494  52.444  1.00  0.00     0.003 A 
HETATM   34  C   UNL     1      26.377  47.583  51.068  1.00  0.00     0.001 A 
HETATM   35  C   UNL     1      25.642  46.614  50.387  1.00  0.00     0.012 A 
BRANCH  31  36
HETATM   36  O   UNL     1      24.674  44.368  53.107  1.00  0.00    -0.351 OA
BRANCH  36  37
HETATM   37  C   UNL     1      25.048  44.174  54.476  1.00  0.00     0.171 C 
HETATM   38  C   UNL     1      26.381  43.446  54.494  1.00  0.00     0.034 C 
ENDBRANCH  36  37
ENDBRANCH  31  36
ENDBRANCH   1  30
BRANCH   6  39
HETATM   39  O   UNL     1      23.430  41.791  49.609  1.00  0.00    -0.389 OA
HETATM   40  H   UNL     1      22.845  41.129  49.189  1.00  0.00     0.210 HD
ENDBRANCH   6  39
TORSDOF 9
ENDMDL
MODEL 5
REMARK VINA RESULT:      -8.7      1.863      2.892
REMARK  9 active torsions:
REMARK  status: ('A' for Active; 'I' for Inactive)
REMARK    1  A    between atoms: C_2  and  O_3 
REMARK    2  A    between atoms: O_3  and  C_4 
REMARK    3  A    between atoms: C_5  and  C_6 
REMARK    4  A    between atoms: N_7  and  C_9 
REMARK    5  A    between atoms: C_9  and  C_10 
REMARK       I    between atoms: C_10  and  N_11 
REMARK    6  A    between atoms: N_11  and  C_12 
REMARK    7  A    between atoms: C_20  and  C_21 
REMARK    8  A    between atoms: C_21  and  O_22 
REMARK    9  A    between atoms: C_28  and  O_29 
ROOT
HETATM    1  C   UNL     1      22.502  46.929  47.923  1.00  0.00     0.231 C 
HETATM    2  N   UNL     1      23.581  46.144  48.694  1.00  0.00    -0.054 N 
HETATM    3  H   UNL     1      24.396  46.755  48.537  1.00  0.00     0.281 HD
HETATM    4  C   UNL     1      23.951  44.833  48.063  1.00  0.00     0.239 C 
HETATM    5  C   UNL     1      22.724  43.975  47.822  1.00  0.00     0.066 C 
HETATM    6  C   UNL     1      21.741  44.707  46.911  1.00  0.00     0.065 C 
HETATM    7  C   UNL     1      21.285  46.025  47.584  1.00  0.00     0.055 C 
HETATM    8  C   UNL     1      20.531  43.820  46.574  1.00  0.00     0.038 C 
HETATM    9  C   UNL     1      19.535  44.545  45.670  1.00  0.00     0.003 C 
HETATM   10  C   UNL     1      19.100  45.874  46.272  1.00  0.00     0.001 C 
HETATM   11  C   UNL     1      20.287  46.756  46.655  1.00  0.00     0.010 C 
ENDROOT
BRANCH   2  12
HETATM   12  C   UNL     1      23.464  46.097  50.235  1.00  0.00     0.338 C 
BRANCH  12  13
HETATM   13  C   UNL     1      24.834  46.409  50.873  1.00  0.00     0.248 C 
HETATM   14  N   UNL     1      24.973  45.760  52.103  1.00  0.00    -0.319 N 
HETATM   15  H   UNL     1      24.180  45.257  52.476  1.00  0.00     0.169 HD
HETATM   16  O   UNL     1      25.716  47.005  50.266  1.00  0.00    -0.271 OA
BRANCH  14  17
HETATM   17  C   UNL     1      26.178  45.153  52.390  1.00  0.00     0.094 C 
HETATM   18  S   UNL     1      26.861  45.804  53.807  1.00  0.00    -0.075 SA
HETATM   19  C   UNL     1      28.039  44.588  53.851  1.00  0.00    -0.008 C 
HETATM   20  C   UNL     1      27.990  43.762  52.741  1.00  0.00    -0.026 C 
HETATM   21  C   UNL     1      29.012  44.467  54.984  1.00  0.00     0.047 C 
HETATM   22  C   UNL     1      29.020  42.681  52.529  1.00  0.00     0.041 C 
HETATM   23  C   UNL     1      26.915  44.127  51.833  1.00  0.00     0.080 C 
HETATM   24  C   UNL     1      29.806  42.365  53.812  1.00  0.00     0.005 C 
HETATM   25  C   UNL     1      30.228  43.636  54.559  1.00  0.00     0.005 C 
BRANCH  23  26
HETATM   26  C   UNL     1      26.691  43.535  50.510  1.00  0.00     0.296 C 
HETATM   27  O   UNL     1      27.228  43.951  49.491  1.00  0.00    -0.259 OA
BRANCH  26  28
HETATM   28  O   UNL     1      25.728  42.564  50.526  1.00  0.00    -0.322 OA
HETATM   29  C   UNL     1      26.244  41.233  50.512  1.00  0.00     0.213 C 
ENDBRANCH  26  28
ENDBRANCH  23  26
ENDBRANCH  14  17
ENDBRANCH  12  13
ENDBRANCH   2  12
BRANCH   1  30
HETATM   30  C   UNL     1      22.268  48.315  48.519  1.00  0.00     0.006 A 
HETATM   31  C   UNL     1      23.239  49.337  48.568  1.00  0.00     0.077 A 
HETATM   32  C   UNL     1      22.918  50.583  49.120  1.00  0.00     0.037 A 
HETATM   33  C   UNL     1      21.645  50.827  49.632  1.00  0.00     0.003 A 
HETATM   34  C   UNL     1      20.677  49.833  49.588  1.00  0.00     0.001 A 
HETATM   35  C   UNL     1      20.983  48.590  49.036  1.00  0.00     0.012 A 
BRANCH  31  36
HETATM   36  O   UNL     1      24.457  49.072  47.999  1.00  0.00    -0.351 OA
BRANCH  36  37
HETATM   37  C   UNL     1      25.371  50.171  47.892  1.00  0.00     0.171 C 
HETATM   38  C   UNL     1      26.709  49.717  48.450  1.00  0.00     0.034 C 
ENDBRANCH  36  37
ENDBRANCH  31  36
ENDBRANCH   1  30
BRANCH   6  39
HETATM   39  O   UNL     1      22.449  45.026  45.707  1.00  0.00    -0.389 OA
HETATM   40  H   UNL     1      23.041  45.788  45.869  1.00  0.00     0.210 HD
ENDBRANCH   6  39
TORSDOF 9
ENDMDL
MODEL 6
REMARK VINA RESULT:      -8.6     11.279     12.458
REMARK  9 active torsions:
REMARK  status: ('A' for Active; 'I' for Inactive)
REMARK    1  A    between atoms: C_2  and  O_3 
REMARK    2  A    between atoms: O_3  and  C_4 
REMARK    3  A    between atoms: C_5  and  C_6 
REMARK    4  A    between atoms: N_7  and  C_9 
REMARK    5  A    between atoms: C_9  and  C_10 
REMARK       I    between atoms: C_10  and  N_11 
REMARK    6  A    between atoms: N_11  and  C_12 
REMARK    7  A    between atoms: C_20  and  C_21 
REMARK    8  A    between atoms: C_21  and  O_22 
REMARK    9  A    between atoms: C_28  and  O_29 
ROOT
HETATM    1  C   UNL     1      28.570  48.372  39.135  1.00  0.00     0.231 C 
HETATM    2  N   UNL     1      29.960  47.798  39.468  1.00  0.00    -0.054 N 
HETATM    3  H   UNL     1      30.558  48.462  38.955  1.00  0.00     0.281 HD
HETATM    4  C   UNL     1      30.237  46.463  38.840  1.00  0.00     0.239 C 
HETATM    5  C   UNL     1      29.144  45.465  39.171  1.00  0.00     0.066 C 
HETATM    6  C   UNL     1      27.795  45.979  38.675  1.00  0.00     0.065 C 
HETATM    7  C   UNL     1      27.455  47.317  39.375  1.00  0.00     0.055 C 
HETATM    8  C   UNL     1      26.684  44.942  38.913  1.00  0.00     0.038 C 
HETATM    9  C   UNL     1      25.327  45.449  38.429  1.00  0.00     0.003 C 
HETATM   10  C   UNL     1      24.977  46.792  39.055  1.00  0.00     0.001 C 
HETATM   11  C   UNL     1      26.085  47.827  38.868  1.00  0.00     0.010 C 
ENDROOT
BRANCH   2  12
HETATM   12  C   UNL     1      30.455  47.929  40.927  1.00  0.00     0.338 C 
BRANCH  12  13
HETATM   13  C   UNL     1      31.982  48.144  40.945  1.00  0.00     0.248 C 
HETATM   14  N   UNL     1      32.300  49.494  40.764  1.00  0.00    -0.319 N 
HETATM   15  H   UNL     1      31.553  50.143  40.561  1.00  0.00     0.169 HD
HETATM   16  O   UNL     1      32.764  47.252  41.254  1.00  0.00    -0.271 OA
BRANCH  14  17
HETATM   17  C   UNL     1      33.290  50.044  41.552  1.00  0.00     0.094 C 
HETATM   18  S   UNL     1      34.831  49.567  41.009  1.00  0.00    -0.075 SA
HETATM   19  C   UNL     1      35.586  50.682  42.035  1.00  0.00    -0.008 C 
HETATM   20  C   UNL     1      34.690  51.330  42.866  1.00  0.00    -0.026 C 
HETATM   21  C   UNL     1      37.069  50.900  42.015  1.00  0.00     0.047 C 
HETATM   22  C   UNL     1      35.166  52.285  43.932  1.00  0.00     0.041 C 
HETATM   23  C   UNL     1      33.318  50.914  42.624  1.00  0.00     0.080 C 
HETATM   24  C   UNL     1      36.619  52.733  43.707  1.00  0.00     0.005 C 
HETATM   25  C   UNL     1      37.530  51.562  43.318  1.00  0.00     0.005 C 
BRANCH  23  26
HETATM   26  C   UNL     1      32.160  51.313  43.431  1.00  0.00     0.296 C 
HETATM   27  O   UNL     1      32.137  51.235  44.652  1.00  0.00    -0.259 OA
BRANCH  26  28
HETATM   28  O   UNL     1      31.079  51.653  42.665  1.00  0.00    -0.322 OA
HETATM   29  C   UNL     1      31.313  52.754  41.786  1.00  0.00     0.213 C 
ENDBRANCH  26  28
ENDBRANCH  23  26
ENDBRANCH  14  17
ENDBRANCH  12  13
ENDBRANCH   2  12
BRANCH   1  30
HETATM   30  C   UNL     1      28.394  49.790  39.670  1.00  0.00     0.006 A 
HETATM   31  C   UNL     1      28.877  50.951  39.031  1.00  0.00     0.077 A 
HETATM   32  C   UNL     1      28.646  52.211  39.597  1.00  0.00     0.037 A 
HETATM   33  C   UNL     1      27.946  52.334  40.796  1.00  0.00     0.003 A 
HETATM   34  C   UNL     1      27.461  51.202  41.436  1.00  0.00     0.001 A 
HETATM   35  C   UNL     1      27.679  49.943  40.880  1.00  0.00     0.012 A 
BRANCH  31  36
HETATM   36  O   UNL     1      29.507  50.787  37.826  1.00  0.00    -0.351 OA
BRANCH  36  37
HETATM   37  C   UNL     1      30.523  51.741  37.494  1.00  0.00     0.171 C 
HETATM   38  C   UNL     1      31.867  51.131  37.854  1.00  0.00     0.034 C 
ENDBRANCH  36  37
ENDBRANCH  31  36
ENDBRANCH   1  30
BRANCH   6  39
HETATM   39  O   UNL     1      27.932  46.216  37.269  1.00  0.00    -0.389 OA
HETATM   40  H   UNL     1      27.900  47.178  37.096  1.00  0.00     0.210 HD
ENDBRANCH   6  39
TORSDOF 9
ENDMDL
MODEL 7
REMARK VINA RESULT:      -8.5      3.023      4.348
REMARK  9 active torsions:
REMARK  status: ('A' for Active; 'I' for Inactive)
REMARK    1  A    between atoms: C_2  and  O_3 
REMARK    2  A    between atoms: O_3  and  C_4 
REMARK    3  A    between atoms: C_5  and  C_6 
REMARK    4  A    between atoms: N_7  and  C_9 
REMARK    5  A    between atoms: C_9  and  C_10 
REMARK       I    between atoms: C_10  and  N_11 
REMARK    6  A    between atoms: N_11  and  C_12 
REMARK    7  A    between atoms: C_20  and  C_21 
REMARK    8  A    between atoms: C_21  and  O_22 
REMARK    9  A    between atoms: C_28  and  O_29 
ROOT
HETATM    1  C   UNL     1      26.044  42.103  48.801  1.00  0.00     0.231 C 
HETATM    2  N   UNL     1      27.070  42.092  49.950  1.00  0.00    -0.054 N 
HETATM    3  H   UNL     1      27.477  43.032  49.839  1.00  0.00     0.281 HD
HETATM    4  C   UNL     1      28.215  41.145  49.739  1.00  0.00     0.239 C 
HETATM    5  C   UNL     1      27.719  39.744  49.440  1.00  0.00     0.066 C 
HETATM    6  C   UNL     1      26.841  39.752  48.191  1.00  0.00     0.065 C 
HETATM    7  C   UNL     1      25.610  40.661  48.422  1.00  0.00     0.055 C 
HETATM    8  C   UNL     1      26.403  38.327  47.811  1.00  0.00     0.038 C 
HETATM    9  C   UNL     1      25.516  38.323  46.567  1.00  0.00     0.003 C 
HETATM   10  C   UNL     1      24.318  39.248  46.733  1.00  0.00     0.001 C 
HETATM   11  C   UNL     1      24.725  40.659  47.152  1.00  0.00     0.010 C 
ENDROOT
BRANCH   2  12
HETATM   12  C   UNL     1      26.520  42.112  51.396  1.00  0.00     0.338 C 
BRANCH  12  13
HETATM   13  C   UNL     1      27.690  42.047  52.400  1.00  0.00     0.248 C 
HETATM   14  N   UNL     1      28.353  43.275  52.477  1.00  0.00    -0.319 N 
HETATM   15  H   UNL     1      28.080  44.013  51.842  1.00  0.00     0.169 HD
HETATM   16  O   UNL     1      27.865  41.084  53.137  1.00  0.00    -0.271 OA
BRANCH  14  17
HETATM   17  C   UNL     1      28.717  43.747  53.721  1.00  0.00     0.094 C 
HETATM   18  S   UNL     1      30.021  42.851  54.350  1.00  0.00    -0.075 SA
HETATM   19  C   UNL     1      30.231  43.961  55.613  1.00  0.00    -0.008 C 
HETATM   20  C   UNL     1      29.252  44.939  55.628  1.00  0.00    -0.026 C 
HETATM   21  C   UNL     1      31.363  43.848  56.588  1.00  0.00     0.047 C 
HETATM   22  C   UNL     1      29.190  45.962  56.734  1.00  0.00     0.041 C 
HETATM   23  C   UNL     1      28.308  44.787  54.533  1.00  0.00     0.080 C 
HETATM   24  C   UNL     1      30.500  46.034  57.536  1.00  0.00     0.005 C 
HETATM   25  C   UNL     1      31.054  44.641  57.862  1.00  0.00     0.005 C 
BRANCH  23  26
HETATM   26  C   UNL     1      27.085  45.577  54.356  1.00  0.00     0.296 C 
HETATM   27  O   UNL     1      26.930  46.689  54.846  1.00  0.00    -0.259 OA
BRANCH  26  28
HETATM   28  O   UNL     1      26.104  44.886  53.701  1.00  0.00    -0.322 OA
HETATM   29  C   UNL     1      25.197  44.201  54.566  1.00  0.00     0.213 C 
ENDBRANCH  26  28
ENDBRANCH  23  26
ENDBRANCH  14  17
ENDBRANCH  12  13
ENDBRANCH   2  12
BRANCH   1  30
HETATM   30  C   UNL     1      24.983  43.184  48.992  1.00  0.00     0.006 A 
HETATM   31  C   UNL     1      25.263  44.553  49.187  1.00  0.00     0.077 A 
HETATM   32  C   UNL     1      24.215  45.469  49.335  1.00  0.00     0.037 A 
HETATM   33  C   UNL     1      22.888  45.043  49.298  1.00  0.00     0.003 A 
HETATM   34  C   UNL     1      22.596  43.701  49.102  1.00  0.00     0.001 A 
HETATM   35  C   UNL     1      23.630  42.780  48.949  1.00  0.00     0.012 A 
BRANCH  31  36
HETATM   36  O   UNL     1      26.579  44.933  49.157  1.00  0.00    -0.351 OA
BRANCH  36  37
HETATM   37  C   UNL     1      26.982  45.937  50.098  1.00  0.00     0.171 C 
HETATM   38  C   UNL     1      27.481  47.137  49.311  1.00  0.00     0.034 C 
ENDBRANCH  36  37
ENDBRANCH  31  36
ENDBRANCH   1  30
BRANCH   6  39
HETATM   39  O   UNL     1      27.631  40.306  47.131  1.00  0.00    -0.389 OA
HETATM   40  H   UNL     1      28.286  39.644  46.834  1.00  0.00     0.210 HD
ENDBRANCH   6  39
TORSDOF 9
ENDMDL
MODEL 8
REMARK VINA RESULT:      -8.4      4.942      8.585
REMARK  9 active torsions:
REMARK  status: ('A' for Active; 'I' for Inactive)
REMARK    1  A    between atoms: C_2  and  O_3 
REMARK    2  A    between atoms: O_3  and  C_4 
REMARK    3  A    between atoms: C_5  and  C_6 
REMARK    4  A    between atoms: N_7  and  C_9 
REMARK    5  A    between atoms: C_9  and  C_10 
REMARK       I    between atoms: C_10  and  N_11 
REMARK    6  A    between atoms: N_11  and  C_12 
REMARK    7  A    between atoms: C_20  and  C_21 
REMARK    8  A    between atoms: C_21  and  O_22 
REMARK    9  A    between atoms: C_28  and  O_29 
ROOT
HETATM    1  C   UNL     1      26.389  43.597  51.811  1.00  0.00     0.231 C 
HETATM    2  N   UNL     1      26.442  42.404  50.838  1.00  0.00    -0.054 N 
HETATM    3  H   UNL     1      25.436  42.258  50.674  1.00  0.00     0.281 HD
HETATM    4  C   UNL     1      26.923  41.127  51.464  1.00  0.00     0.239 C 
HETATM    5  C   UNL     1      28.258  41.324  52.156  1.00  0.00     0.066 C 
HETATM    6  C   UNL     1      28.136  42.394  53.238  1.00  0.00     0.065 C 
HETATM    7  C   UNL     1      27.720  43.741  52.598  1.00  0.00     0.055 C 
HETATM    8  C   UNL     1      29.452  42.546  54.019  1.00  0.00     0.038 C 
HETATM    9  C   UNL     1      29.345  43.621  55.100  1.00  0.00     0.003 C 
HETATM   10  C   UNL     1      28.886  44.951  54.520  1.00  0.00     0.001 C 
HETATM   11  C   UNL     1      27.603  44.818  53.702  1.00  0.00     0.010 C 
ENDROOT
BRANCH   2  12
HETATM   12  C   UNL     1      26.999  42.666  49.419  1.00  0.00     0.338 C 
BRANCH  12  13
HETATM   13  C   UNL     1      26.369  41.673  48.420  1.00  0.00     0.248 C 
HETATM   14  N   UNL     1      27.182  41.514  47.293  1.00  0.00    -0.319 N 
HETATM   15  H   UNL     1      28.004  42.094  47.204  1.00  0.00     0.169 HD
HETATM   16  O   UNL     1      25.379  41.006  48.698  1.00  0.00    -0.271 OA
BRANCH  14  17
HETATM   17  C   UNL     1      27.368  40.240  46.795  1.00  0.00     0.094 C 
HETATM   18  S   UNL     1      26.958  40.171  45.144  1.00  0.00    -0.075 SA
HETATM   19  C   UNL     1      27.621  38.620  45.000  1.00  0.00    -0.008 C 
HETATM   20  C   UNL     1      28.046  38.109  46.214  1.00  0.00    -0.026 C 
HETATM   21  C   UNL     1      27.708  37.914  43.680  1.00  0.00     0.047 C 
HETATM   22  C   UNL     1      28.568  36.698  46.326  1.00  0.00     0.041 C 
HETATM   23  C   UNL     1      27.847  39.049  47.304  1.00  0.00     0.080 C 
HETATM   24  C   UNL     1      28.939  36.104  44.958  1.00  0.00     0.005 C 
HETATM   25  C   UNL     1      27.879  36.405  43.891  1.00  0.00     0.005 C 
BRANCH  23  26
HETATM   26  C   UNL     1      28.065  38.754  48.724  1.00  0.00     0.296 C 
HETATM   27  O   UNL     1      27.199  38.283  49.450  1.00  0.00    -0.259 OA
BRANCH  26  28
HETATM   28  O   UNL     1      29.286  39.180  49.166  1.00  0.00    -0.322 OA
HETATM   29  C   UNL     1      30.230  38.129  49.374  1.00  0.00     0.213 C 
ENDBRANCH  26  28
ENDBRANCH  23  26
ENDBRANCH  14  17
ENDBRANCH  12  13
ENDBRANCH   2  12
BRANCH   1  30
HETATM   30  C   UNL     1      25.755  44.829  51.169  1.00  0.00     0.006 A 
HETATM   31  C   UNL     1      24.447  44.873  50.644  1.00  0.00     0.077 A 
HETATM   32  C   UNL     1      23.952  46.061  50.092  1.00  0.00     0.037 A 
HETATM   33  C   UNL     1      24.744  47.208  50.048  1.00  0.00     0.003 A 
HETATM   34  C   UNL     1      26.032  47.182  50.564  1.00  0.00     0.001 A 
HETATM   35  C   UNL     1      26.534  46.008  51.121  1.00  0.00     0.012 A 
BRANCH  31  36
HETATM   36  O   UNL     1      23.685  43.740  50.763  1.00  0.00    -0.351 OA
BRANCH  36  37
HETATM   37  C   UNL     1      22.471  43.697  50.004  1.00  0.00     0.171 C 
HETATM   38  C   UNL     1      22.777  43.024  48.677  1.00  0.00     0.034 C 
ENDBRANCH  36  37
ENDBRANCH  31  36
ENDBRANCH   1  30
BRANCH   6  39
HETATM   39  O   UNL     1      27.098  41.967  54.129  1.00  0.00    -0.389 OA
HETATM   40  H   UNL     1      26.276  42.456  53.929  1.00  0.00     0.210 HD
ENDBRANCH   6  39
TORSDOF 9
ENDMDL
MODEL 9
REMARK VINA RESULT:      -8.4      3.841      8.609
REMARK  9 active torsions:
REMARK  status: ('A' for Active; 'I' for Inactive)
REMARK    1  A    between atoms: C_2  and  O_3 
REMARK    2  A    between atoms: O_3  and  C_4 
REMARK    3  A    between atoms: C_5  and  C_6 
REMARK    4  A    between atoms: N_7  and  C_9 
REMARK    5  A    between atoms: C_9  and  C_10 
REMARK       I    between atoms: C_10  and  N_11 
REMARK    6  A    between atoms: N_11  and  C_12 
REMARK    7  A    between atoms: C_20  and  C_21 
REMARK    8  A    between atoms: C_21  and  O_22 
REMARK    9  A    between atoms: C_28  and  O_29 
ROOT
HETATM    1  C   UNL     1      24.331  43.090  48.305  1.00  0.00     0.231 C 
HETATM    2  N   UNL     1      23.756  44.487  48.606  1.00  0.00    -0.054 N 
HETATM    3  H   UNL     1      23.673  44.859  47.649  1.00  0.00     0.281 HD
HETATM    4  C   UNL     1      24.719  45.408  49.298  1.00  0.00     0.239 C 
HETATM    5  C   UNL     1      25.281  44.769  50.553  1.00  0.00     0.066 C 
HETATM    6  C   UNL     1      25.999  43.468  50.205  1.00  0.00     0.065 C 
HETATM    7  C   UNL     1      25.000  42.474  49.564  1.00  0.00     0.055 C 
HETATM    8  C   UNL     1      26.661  42.849  51.449  1.00  0.00     0.038 C 
HETATM    9  C   UNL     1      27.375  41.541  51.114  1.00  0.00     0.003 C 
HETATM   10  C   UNL     1      26.439  40.552  50.433  1.00  0.00     0.001 C 
HETATM   11  C   UNL     1      25.736  41.158  49.219  1.00  0.00     0.010 C 
ENDROOT
BRANCH   2  12
HETATM   12  C   UNL     1      22.308  44.561  49.143  1.00  0.00     0.338 C 
BRANCH  12  13
HETATM   13  C   UNL     1      21.460  45.475  48.234  1.00  0.00     0.248 C 
HETATM   14  N   UNL     1      20.541  46.215  48.984  1.00  0.00    -0.319 N 
HETATM   15  H   UNL     1      20.462  46.027  49.974  1.00  0.00     0.169 HD
HETATM   16  O   UNL     1      21.712  45.629  47.044  1.00  0.00    -0.271 OA
BRANCH  14  17
HETATM   17  C   UNL     1      20.368  47.549  48.677  1.00  0.00     0.094 C 
HETATM   18  S   UNL     1      18.769  47.852  48.177  1.00  0.00    -0.075 SA
HETATM   19  C   UNL     1      19.022  49.526  48.237  1.00  0.00    -0.008 C 
HETATM   20  C   UNL     1      20.336  49.855  48.520  1.00  0.00    -0.026 C 
HETATM   21  C   UNL     1      17.914  50.505  47.992  1.00  0.00     0.047 C 
HETATM   22  C   UNL     1      20.799  51.290  48.512  1.00  0.00     0.041 C 
HETATM   23  C   UNL     1      21.163  48.677  48.730  1.00  0.00     0.080 C 
HETATM   24  C   UNL     1      19.626  52.281  48.570  1.00  0.00     0.005 C 
HETATM   25  C   UNL     1      18.484  51.880  47.628  1.00  0.00     0.005 C 
BRANCH  23  26
HETATM   26  C   UNL     1      22.619  48.689  48.908  1.00  0.00     0.296 C 
HETATM   27  O   UNL     1      23.160  48.574  50.001  1.00  0.00    -0.259 OA
BRANCH  26  28
HETATM   28  O   UNL     1      23.287  48.968  47.748  1.00  0.00    -0.322 OA
HETATM   29  C   UNL     1      24.240  50.024  47.865  1.00  0.00     0.213 C 
ENDBRANCH  26  28
ENDBRANCH  23  26
ENDBRANCH  14  17
ENDBRANCH  12  13
ENDBRANCH   2  12
BRANCH   1  30
HETATM   30  C   UNL     1      23.371  42.245  47.472  1.00  0.00     0.006 A 
HETATM   31  C   UNL     1      23.007  42.528  46.138  1.00  0.00     0.077 A 
HETATM   32  C   UNL     1      22.131  41.677  45.454  1.00  0.00     0.037 A 
HETATM   33  C   UNL     1      21.603  40.549  46.080  1.00  0.00     0.003 A 
HETATM   34  C   UNL     1      21.953  40.253  47.390  1.00  0.00     0.001 A 
HETATM   35  C   UNL     1      22.829  41.090  48.080  1.00  0.00     0.012 A 
BRANCH  31  36
HETATM   36  O   UNL     1      23.597  43.613  45.546  1.00  0.00    -0.351 OA
BRANCH  36  37
HETATM   37  C   UNL     1      23.707  43.587  44.117  1.00  0.00     0.171 C 
HETATM   38  C   UNL     1      23.038  44.840  43.577  1.00  0.00     0.034 C 
ENDBRANCH  36  37
ENDBRANCH  31  36
ENDBRANCH   1  30
BRANCH   6  39
HETATM   39  O   UNL     1      27.007  43.794  49.241  1.00  0.00    -0.389 OA
HETATM   40  H   UNL     1      27.879  43.498  49.570  1.00  0.00     0.210 HD
ENDBRANCH   6  39
TORSDOF 9
ENDMDL
MODEL 10
REMARK VINA RESULT:      -8.4      3.653      9.307
REMARK  9 active torsions:
REMARK  status: ('A' for Active; 'I' for Inactive)
REMARK    1  A    between atoms: C_2  and  O_3 
REMARK    2  A    between atoms: O_3  and  C_4 
REMARK    3  A    between atoms: C_5  and  C_6 
REMARK    4  A    between atoms: N_7  and  C_9 
REMARK    5  A    between atoms: C_9  and  C_10 
REMARK       I    between atoms: C_10  and  N_11 
REMARK    6  A    between atoms: N_11  and  C_12 
REMARK    7  A    between atoms: C_20  and  C_21 
REMARK    8  A    between atoms: C_21  and  O_22 
REMARK    9  A    between atoms: C_28  and  O_29 
ROOT
HETATM    1  C   UNL     1      24.166  44.349  48.438  1.00  0.00     0.231 C 
HETATM    2  N   UNL     1      23.161  45.493  48.668  1.00  0.00    -0.054 N 
HETATM    3  H   UNL     1      22.958  45.755  47.693  1.00  0.00     0.281 HD
HETATM    4  C   UNL     1      23.764  46.722  49.284  1.00  0.00     0.239 C 
HETATM    5  C   UNL     1      24.507  46.387  50.562  1.00  0.00     0.066 C 
HETATM    6  C   UNL     1      25.616  45.377  50.276  1.00  0.00     0.065 C 
HETATM    7  C   UNL     1      25.003  44.071  49.717  1.00  0.00     0.055 C 
HETATM    8  C   UNL     1      26.447  45.092  51.539  1.00  0.00     0.038 C 
HETATM    9  C   UNL     1      27.554  44.076  51.267  1.00  0.00     0.003 C 
HETATM   10  C   UNL     1      26.999  42.792  50.666  1.00  0.00     0.001 C 
HETATM   11  C   UNL     1      26.134  43.053  49.434  1.00  0.00     0.010 C 
ENDROOT
BRANCH   2  12
HETATM   12  C   UNL     1      21.770  45.117  49.231  1.00  0.00     0.338 C 
BRANCH  12  13
HETATM   13  C   UNL     1      20.669  45.850  48.437  1.00  0.00     0.248 C 
HETATM   14  N   UNL     1      19.723  46.416  49.297  1.00  0.00    -0.319 N 
HETATM   15  H   UNL     1      19.795  46.226  50.287  1.00  0.00     0.169 HD
HETATM   16  O   UNL     1      20.750  46.036  47.228  1.00  0.00    -0.271 OA
BRANCH  14  17
HETATM   17  C   UNL     1      19.274  47.692  49.027  1.00  0.00     0.094 C 
HETATM   18  S   UNL     1      20.440  48.850  49.471  1.00  0.00    -0.075 SA
HETATM   19  C   UNL     1      19.575  50.082  48.696  1.00  0.00    -0.008 C 
HETATM   20  C   UNL     1      18.356  49.647  48.204  1.00  0.00    -0.026 C 
HETATM   21  C   UNL     1      20.107  51.479  48.589  1.00  0.00     0.047 C 
HETATM   22  C   UNL     1      17.382  50.610  47.574  1.00  0.00     0.041 C 
HETATM   23  C   UNL     1      18.142  48.230  48.447  1.00  0.00     0.080 C 
HETATM   24  C   UNL     1      18.044  51.944  47.193  1.00  0.00     0.005 C 
HETATM   25  C   UNL     1      18.970  52.465  48.299  1.00  0.00     0.005 C 
BRANCH  23  26
HETATM   26  C   UNL     1      16.897  47.505  48.172  1.00  0.00     0.296 C 
HETATM   27  O   UNL     1      15.793  47.924  48.497  1.00  0.00    -0.259 OA
BRANCH  26  28
HETATM   28  O   UNL     1      17.119  46.267  47.636  1.00  0.00    -0.322 OA
HETATM   29  C   UNL     1      17.265  46.266  46.215  1.00  0.00     0.213 C 
ENDBRANCH  26  28
ENDBRANCH  23  26
ENDBRANCH  14  17
ENDBRANCH  12  13
ENDBRANCH   2  12
BRANCH   1  30
HETATM   30  C   UNL     1      23.541  43.183  47.677  1.00  0.00     0.006 A 
HETATM   31  C   UNL     1      23.108  43.244  46.336  1.00  0.00     0.077 A 
HETATM   32  C   UNL     1      22.563  42.110  45.722  1.00  0.00     0.037 A 
HETATM   33  C   UNL     1      22.434  40.913  46.427  1.00  0.00     0.003 A 
HETATM   34  C   UNL     1      22.859  40.835  47.746  1.00  0.00     0.001 A 
HETATM   35  C   UNL     1      23.408  41.956  48.366  1.00  0.00     0.012 A 
BRANCH  31  36
HETATM   36  O   UNL     1      23.308  44.422  45.666  1.00  0.00    -0.351 OA
BRANCH  36  37
HETATM   37  C   UNL     1      23.160  44.387  44.241  1.00  0.00     0.171 C 
HETATM   38  C   UNL     1      21.995  45.289  43.873  1.00  0.00     0.034 C 
ENDBRANCH  36  37
ENDBRANCH  31  36
ENDBRANCH   1  30
BRANCH   6  39
HETATM   39  O   UNL     1      26.458  45.958  49.272  1.00  0.00    -0.389 OA
HETATM   40  H   UNL     1      25.979  45.982  48.420  1.00  0.00     0.210 HD
ENDBRANCH   6  39
TORSDOF 9
ENDMDL
