MODEL 1
REMARK VINA RESULT:      -9.8      0.000      0.000
REMARK  3 active torsions:
REMARK  status: ('A' for Active; 'I' for Inactive)
REMARK    1  A    between atoms: C_9  and  C_10 
REMARK       I    between atoms: C_10  and  N_11 
REMARK    2  A    between atoms: N_11  and  C_12 
REMARK    3  A    between atoms: C_14  and  C_15 
ROOT
HETATM    1  C   UNL     1      26.697  45.198  52.195  1.00  0.00     0.252 C 
HETATM    2  N   UNL     1      26.200  46.493  52.197  1.00  0.00    -0.325 N 
HETATM    3  O   UNL     1      26.770  44.454  51.221  1.00  0.00    -0.270 OA
HETATM    4  H   UNL     1      26.053  46.902  53.116  1.00  0.00     0.169 HD
ENDROOT
BRANCH   2   5
HETATM    5  C   UNL     1      25.812  47.260  51.079  1.00  0.00     0.035 A 
HETATM    6  C   UNL     1      24.493  47.338  50.618  1.00  0.00     0.042 A 
HETATM    7  C   UNL     1      24.154  48.085  49.477  1.00  0.00    -0.021 A 
HETATM    8  C   UNL     1      25.173  48.767  48.801  1.00  0.00     0.012 A 
HETATM    9  C   UNL     1      26.494  48.693  49.249  1.00  0.00     0.003 A 
HETATM   10  C   UNL     1      26.812  47.939  50.380  1.00  0.00     0.029 A 
BRANCH   7  11
HETATM   11  C   UNL     1      22.768  48.130  49.025  1.00  0.00     0.010 A 
HETATM   12  C   UNL     1      21.984  47.159  48.353  1.00  0.00     0.152 A 
HETATM   13  N   UNL     1      20.746  47.582  48.084  1.00  0.00    -0.187 NA
HETATM   14  N   UNL     1      20.729  48.829  48.578  1.00  0.00    -0.289 N 
HETATM   15  H   UNL     1      19.876  49.368  48.486  1.00  0.00     0.188 HD
HETATM   16  C   UNL     1      21.911  49.205  49.148  1.00  0.00     0.123 A 
ENDBRANCH   7  11
ENDBRANCH   2   5
BRANCH   1  17
HETATM   17  C   UNL     1      27.281  44.794  53.552  1.00  0.00     0.225 C 
HETATM   18  C   UNL     1      27.482  46.010  54.462  1.00  0.00     0.083 C 
HETATM   19  C   UNL     1      28.584  45.473  55.288  1.00  0.00    -0.021 A 
HETATM   20  C   UNL     1      29.153  44.390  54.642  1.00  0.00     0.076 A 
HETATM   21  C   UNL     1      29.081  45.928  56.495  1.00  0.00     0.017 A 
HETATM   22  C   UNL     1      30.233  43.717  55.170  1.00  0.00     0.044 A 
HETATM   23  O   UNL     1      28.534  44.077  53.455  1.00  0.00    -0.336 OA
HETATM   24  C   UNL     1      30.744  44.136  56.413  1.00  0.00    -0.053 A 
HETATM   25  C   UNL     1      30.172  45.257  57.073  1.00  0.00    -0.055 A 
HETATM   26  C   UNL     1      31.907  43.393  57.014  1.00  0.00     0.049 C 
HETATM   27  C   UNL     1      30.686  45.728  58.408  1.00  0.00     0.049 C 
ENDBRANCH   1  17
TORSDOF 3
ENDMDL
MODEL 2
REMARK VINA RESULT:      -9.7      1.587      2.215
REMARK  3 active torsions:
REMARK  status: ('A' for Active; 'I' for Inactive)
REMARK    1  A    between atoms: C_9  and  C_10 
REMARK       I    between atoms: C_10  and  N_11 
REMARK    2  A    between atoms: N_11  and  C_12 
REMARK    3  A    between atoms: C_14  and  C_15 
ROOT
HETATM    1  C   UNL     1      26.880  44.287  52.036  1.00  0.00     0.252 C 
HETATM    2  N   UNL     1      25.520  44.562  52.048  1.00  0.00    -0.325 N 
HETATM    3  O   UNL     1      27.607  44.279  51.047  1.00  0.00    -0.270 OA
HETATM    4  H   UNL     1      25.042  44.357  52.920  1.00  0.00     0.169 HD
ENDROOT
BRANCH   2   5
HETATM    5  C   UNL     1      24.733  45.014  50.969  1.00  0.00     0.035 A 
HETATM    6  C   UNL     1      24.631  46.361  50.600  1.00  0.00     0.042 A 
HETATM    7  C   UNL     1      23.807  46.774  49.540  1.00  0.00    -0.021 A 
HETATM    8  C   UNL     1      23.081  45.801  48.842  1.00  0.00     0.012 A 
HETATM    9  C   UNL     1      23.171  44.454  49.203  1.00  0.00     0.003 A 
HETATM   10  C   UNL     1      23.990  44.064  50.264  1.00  0.00     0.029 A 
BRANCH   7  11
HETATM   11  C   UNL     1      23.722  48.189  49.197  1.00  0.00     0.010 A 
HETATM   12  C   UNL     1      24.735  49.116  48.844  1.00  0.00     0.152 A 
HETATM   13  N   UNL     1      24.263  50.345  48.617  1.00  0.00    -0.187 NA
HETATM   14  N   UNL     1      22.944  50.215  48.826  1.00  0.00    -0.289 N 
HETATM   15  H   UNL     1      22.359  51.035  48.715  1.00  0.00     0.188 HD
HETATM   16  C   UNL     1      22.571  48.949  49.175  1.00  0.00     0.123 A 
ENDBRANCH   7  11
ENDBRANCH   2   5
BRANCH   1  17
HETATM   17  C   UNL     1      27.450  44.100  53.445  1.00  0.00     0.225 C 
HETATM   18  C   UNL     1      27.577  45.437  54.183  1.00  0.00     0.083 C 
HETATM   19  C   UNL     1      28.682  45.070  55.094  1.00  0.00    -0.021 A 
HETATM   20  C   UNL     1      29.313  43.937  54.612  1.00  0.00     0.076 A 
HETATM   21  C   UNL     1      29.130  45.708  56.234  1.00  0.00     0.017 A 
HETATM   22  C   UNL     1      30.410  43.394  55.245  1.00  0.00     0.044 A 
HETATM   23  O   UNL     1      28.736  43.435  53.468  1.00  0.00    -0.336 OA
HETATM   24  C   UNL     1      30.873  44.001  56.427  1.00  0.00    -0.053 A 
HETATM   25  C   UNL     1      30.237  45.174  56.918  1.00  0.00    -0.055 A 
HETATM   26  C   UNL     1      32.054  43.403  57.143  1.00  0.00     0.049 C 
HETATM   27  C   UNL     1      30.698  45.846  58.183  1.00  0.00     0.049 C 
ENDBRANCH   1  17
TORSDOF 3
ENDMDL
MODEL 3
REMARK VINA RESULT:      -9.4      1.756      2.293
REMARK  3 active torsions:
REMARK  status: ('A' for Active; 'I' for Inactive)
REMARK    1  A    between atoms: C_9  and  C_10 
REMARK       I    between atoms: C_10  and  N_11 
REMARK    2  A    between atoms: N_11  and  C_12 
REMARK    3  A    between atoms: C_14  and  C_15 
ROOT
HETATM    1  C   UNL     1      26.796  44.555  52.142  1.00  0.00     0.252 C 
HETATM    2  N   UNL     1      25.558  45.177  52.211  1.00  0.00    -0.325 N 
HETATM    3  O   UNL     1      27.424  44.306  51.116  1.00  0.00    -0.270 OA
HETATM    4  H   UNL     1      25.107  45.149  53.120  1.00  0.00     0.169 HD
ENDROOT
BRANCH   2   5
HETATM    5  C   UNL     1      24.839  45.765  51.149  1.00  0.00     0.035 A 
HETATM    6  C   UNL     1      23.990  45.045  50.301  1.00  0.00     0.042 A 
HETATM    7  C   UNL     1      23.319  45.663  49.232  1.00  0.00    -0.021 A 
HETATM    8  C   UNL     1      23.511  47.036  49.029  1.00  0.00     0.012 A 
HETATM    9  C   UNL     1      24.360  47.764  49.867  1.00  0.00     0.003 A 
HETATM   10  C   UNL     1      25.024  47.130  50.919  1.00  0.00     0.029 A 
BRANCH   7  11
HETATM   11  C   UNL     1      22.452  44.873  48.366  1.00  0.00     0.010 A 
HETATM   12  C   UNL     1      21.042  44.885  48.212  1.00  0.00     0.152 A 
HETATM   13  N   UNL     1      20.606  43.987  47.324  1.00  0.00    -0.187 NA
HETATM   14  N   UNL     1      21.733  43.392  46.906  1.00  0.00    -0.289 N 
HETATM   15  H   UNL     1      21.655  42.653  46.215  1.00  0.00     0.188 HD
HETATM   16  C   UNL     1      22.861  43.882  47.498  1.00  0.00     0.123 A 
ENDBRANCH   7  11
ENDBRANCH   2   5
BRANCH   1  17
HETATM   17  C   UNL     1      27.398  44.296  53.526  1.00  0.00     0.225 C 
HETATM   18  C   UNL     1      27.555  45.596  54.323  1.00  0.00     0.083 C 
HETATM   19  C   UNL     1      28.678  45.177  55.188  1.00  0.00    -0.021 A 
HETATM   20  C   UNL     1      29.286  44.062  54.638  1.00  0.00     0.076 A 
HETATM   21  C   UNL     1      29.159  45.756  56.346  1.00  0.00     0.017 A 
HETATM   22  C   UNL     1      30.393  43.480  55.218  1.00  0.00     0.044 A 
HETATM   23  O   UNL     1      28.677  43.621  53.487  1.00  0.00    -0.336 OA
HETATM   24  C   UNL     1      30.890  44.027  56.416  1.00  0.00    -0.053 A 
HETATM   25  C   UNL     1      30.277  45.180  56.976  1.00  0.00    -0.055 A 
HETATM   26  C   UNL     1      32.081  43.385  57.074  1.00  0.00     0.049 C 
HETATM   27  C   UNL     1      30.775  45.788  58.261  1.00  0.00     0.049 C 
ENDBRANCH   1  17
TORSDOF 3
ENDMDL
MODEL 4
REMARK VINA RESULT:      -9.4      2.030      3.034
REMARK  3 active torsions:
REMARK  status: ('A' for Active; 'I' for Inactive)
REMARK    1  A    between atoms: C_9  and  C_10 
REMARK       I    between atoms: C_10  and  N_11 
REMARK    2  A    between atoms: N_11  and  C_12 
REMARK    3  A    between atoms: C_14  and  C_15 
ROOT
HETATM    1  C   UNL     1      27.277  43.385  51.541  1.00  0.00     0.252 C 
HETATM    2  N   UNL     1      26.098  44.092  51.727  1.00  0.00    -0.325 N 
HETATM    3  O   UNL     1      27.473  42.518  50.694  1.00  0.00    -0.270 OA
HETATM    4  H   UNL     1      26.052  44.645  52.578  1.00  0.00     0.169 HD
ENDROOT
BRANCH   2   5
HETATM    5  C   UNL     1      24.947  44.061  50.912  1.00  0.00     0.035 A 
HETATM    6  C   UNL     1      24.478  45.170  50.199  1.00  0.00     0.042 A 
HETATM    7  C   UNL     1      23.307  45.107  49.426  1.00  0.00    -0.021 A 
HETATM    8  C   UNL     1      22.607  43.895  49.374  1.00  0.00     0.012 A 
HETATM    9  C   UNL     1      23.063  42.782  50.085  1.00  0.00     0.003 A 
HETATM   10  C   UNL     1      24.225  42.867  50.854  1.00  0.00     0.029 A 
BRANCH   7  11
HETATM   11  C   UNL     1      22.848  46.290  48.707  1.00  0.00     0.010 A 
HETATM   12  C   UNL     1      22.040  46.410  47.547  1.00  0.00     0.152 A 
HETATM   13  N   UNL     1      21.852  47.678  47.172  1.00  0.00    -0.187 NA
HETATM   14  N   UNL     1      22.539  48.379  48.086  1.00  0.00    -0.289 N 
HETATM   15  H   UNL     1      22.549  49.390  48.005  1.00  0.00     0.188 HD
HETATM   16  C   UNL     1      23.153  47.598  49.022  1.00  0.00     0.123 A 
ENDBRANCH   7  11
ENDBRANCH   2   5
BRANCH   1  17
HETATM   17  C   UNL     1      28.406  43.882  52.448  1.00  0.00     0.225 C 
HETATM   18  C   UNL     1      29.184  42.716  53.067  1.00  0.00     0.083 C 
HETATM   19  C   UNL     1      29.655  43.403  54.288  1.00  0.00    -0.021 A 
HETATM   20  C   UNL     1      28.896  44.541  54.494  1.00  0.00     0.076 A 
HETATM   21  C   UNL     1      30.646  43.035  55.178  1.00  0.00     0.017 A 
HETATM   22  C   UNL     1      29.092  45.356  55.587  1.00  0.00     0.044 A 
HETATM   23  O   UNL     1      27.956  44.754  53.512  1.00  0.00    -0.336 OA
HETATM   24  C   UNL     1      30.114  45.026  56.497  1.00  0.00    -0.053 A 
HETATM   25  C   UNL     1      30.888  43.850  56.297  1.00  0.00    -0.055 A 
HETATM   26  C   UNL     1      30.357  45.922  57.681  1.00  0.00     0.049 C 
HETATM   27  C   UNL     1      31.995  43.469  57.244  1.00  0.00     0.049 C 
ENDBRANCH   1  17
TORSDOF 3
ENDMDL
MODEL 5
REMARK VINA RESULT:      -9.0      2.011      3.374
REMARK  3 active torsions:
REMARK  status: ('A' for Active; 'I' for Inactive)
REMARK    1  A    between atoms: C_9  and  C_10 
REMARK       I    between atoms: C_10  and  N_11 
REMARK    2  A    between atoms: N_11  and  C_12 
REMARK    3  A    between atoms: C_14  and  C_15 
ROOT
HETATM    1  C   UNL     1      24.245  46.016  50.034  1.00  0.00     0.252 C 
HETATM    2  N   UNL     1      24.107  47.365  50.329  1.00  0.00    -0.325 N 
HETATM    3  O   UNL     1      23.903  45.466  48.991  1.00  0.00    -0.270 OA
HETATM    4  H   UNL     1      24.283  47.619  51.296  1.00  0.00     0.169 HD
ENDROOT
BRANCH   2   5
HETATM    5  C   UNL     1      23.682  48.389  49.457  1.00  0.00     0.035 A 
HETATM    6  C   UNL     1      22.338  48.629  49.148  1.00  0.00     0.042 A 
HETATM    7  C   UNL     1      21.959  49.638  48.247  1.00  0.00    -0.021 A 
HETATM    8  C   UNL     1      22.963  50.417  47.657  1.00  0.00     0.012 A 
HETATM    9  C   UNL     1      24.308  50.183  47.954  1.00  0.00     0.003 A 
HETATM   10  C   UNL     1      24.665  49.171  48.847  1.00  0.00     0.029 A 
BRANCH   7  11
HETATM   11  C   UNL     1      20.547  49.848  47.945  1.00  0.00     0.010 A 
HETATM   12  C   UNL     1      19.766  51.031  47.960  1.00  0.00     0.152 A 
HETATM   13  N   UNL     1      18.487  50.815  47.640  1.00  0.00    -0.187 NA
HETATM   14  N   UNL     1      18.439  49.493  47.421  1.00  0.00    -0.289 N 
HETATM   15  H   UNL     1      17.549  49.083  47.162  1.00  0.00     0.188 HD
HETATM   16  C   UNL     1      19.642  48.869  47.591  1.00  0.00     0.123 A 
ENDBRANCH   7  11
ENDBRANCH   2   5
BRANCH   1  17
HETATM   17  C   UNL     1      25.001  45.253  51.125  1.00  0.00     0.225 C 
HETATM   18  C   UNL     1      25.411  46.179  52.276  1.00  0.00     0.083 C 
HETATM   19  C   UNL     1      26.590  45.420  52.745  1.00  0.00    -0.021 A 
HETATM   20  C   UNL     1      26.988  44.539  51.756  1.00  0.00     0.076 A 
HETATM   21  C   UNL     1      27.289  45.526  53.932  1.00  0.00     0.017 A 
HETATM   22  C   UNL     1      28.093  43.729  51.908  1.00  0.00     0.044 A 
HETATM   23  O   UNL     1      26.179  44.565  50.644  1.00  0.00    -0.336 OA
HETATM   24  C   UNL     1      28.810  43.791  53.118  1.00  0.00    -0.053 A 
HETATM   25  C   UNL     1      28.413  44.705  54.131  1.00  0.00    -0.055 A 
HETATM   26  C   UNL     1      30.003  42.893  53.308  1.00  0.00     0.049 C 
HETATM   27  C   UNL     1      29.150  44.793  55.441  1.00  0.00     0.049 C 
ENDBRANCH   1  17
TORSDOF 3
ENDMDL
MODEL 6
REMARK VINA RESULT:      -8.9      2.906      9.871
REMARK  3 active torsions:
REMARK  status: ('A' for Active; 'I' for Inactive)
REMARK    1  A    between atoms: C_9  and  C_10 
REMARK       I    between atoms: C_10  and  N_11 
REMARK    2  A    between atoms: N_11  and  C_12 
REMARK    3  A    between atoms: C_14  and  C_15 
ROOT
HETATM    1  C   UNL     1      24.439  48.276  49.526  1.00  0.00     0.252 C 
HETATM    2  N   UNL     1      24.104  47.277  50.428  1.00  0.00    -0.325 N 
HETATM    3  O   UNL     1      25.576  48.633  49.231  1.00  0.00    -0.270 OA
HETATM    4  H   UNL     1      23.121  47.230  50.680  1.00  0.00     0.169 HD
ENDROOT
BRANCH   2   5
HETATM    5  C   UNL     1      24.984  46.387  51.078  1.00  0.00     0.035 A 
HETATM    6  C   UNL     1      25.616  46.677  52.292  1.00  0.00     0.042 A 
HETATM    7  C   UNL     1      26.514  45.776  52.890  1.00  0.00    -0.021 A 
HETATM    8  C   UNL     1      26.765  44.559  52.244  1.00  0.00     0.012 A 
HETATM    9  C   UNL     1      26.143  44.260  51.029  1.00  0.00     0.003 A 
HETATM   10  C   UNL     1      25.260  45.172  50.447  1.00  0.00     0.029 A 
BRANCH   7  11
HETATM   11  C   UNL     1      27.159  46.124  54.151  1.00  0.00     0.010 A 
HETATM   12  C   UNL     1      28.119  45.420  54.921  1.00  0.00     0.152 A 
HETATM   13  N   UNL     1      28.459  46.060  56.043  1.00  0.00    -0.187 NA
HETATM   14  N   UNL     1      27.717  47.177  56.001  1.00  0.00    -0.289 N 
HETATM   15  H   UNL     1      27.801  47.836  56.767  1.00  0.00     0.188 HD
HETATM   16  C   UNL     1      26.923  47.262  54.894  1.00  0.00     0.123 A 
ENDBRANCH   7  11
ENDBRANCH   2   5
BRANCH   1  17
HETATM   17  C   UNL     1      23.213  48.848  48.806  1.00  0.00     0.225 C 
HETATM   18  C   UNL     1      23.074  50.355  49.044  1.00  0.00     0.083 C 
HETATM   19  C   UNL     1      21.610  50.461  48.866  1.00  0.00    -0.021 A 
HETATM   20  C   UNL     1      21.045  49.204  48.978  1.00  0.00     0.076 A 
HETATM   21  C   UNL     1      20.827  51.582  48.666  1.00  0.00     0.017 A 
HETATM   22  C   UNL     1      19.683  49.011  48.893  1.00  0.00     0.044 A 
HETATM   23  O   UNL     1      21.970  48.205  49.175  1.00  0.00    -0.336 OA
HETATM   24  C   UNL     1      18.860  50.128  48.660  1.00  0.00    -0.053 A 
HETATM   25  C   UNL     1      19.435  51.424  48.558  1.00  0.00    -0.055 A 
HETATM   26  C   UNL     1      17.372  49.929  48.539  1.00  0.00     0.049 C 
HETATM   27  C   UNL     1      18.587  52.641  48.300  1.00  0.00     0.049 C 
ENDBRANCH   1  17
TORSDOF 3
ENDMDL
MODEL 7
REMARK VINA RESULT:      -8.8      1.680      2.450
REMARK  3 active torsions:
REMARK  status: ('A' for Active; 'I' for Inactive)
REMARK    1  A    between atoms: C_9  and  C_10 
REMARK       I    between atoms: C_10  and  N_11 
REMARK    2  A    between atoms: N_11  and  C_12 
REMARK    3  A    between atoms: C_14  and  C_15 
ROOT
HETATM    1  C   UNL     1      26.025  44.461  51.047  1.00  0.00     0.252 C 
HETATM    2  N   UNL     1      24.714  44.912  51.088  1.00  0.00    -0.325 N 
HETATM    3  O   UNL     1      26.718  44.344  50.041  1.00  0.00    -0.270 OA
HETATM    4  H   UNL     1      24.237  44.784  51.976  1.00  0.00     0.169 HD
ENDROOT
BRANCH   2   5
HETATM    5  C   UNL     1      23.964  45.450  50.022  1.00  0.00     0.035 A 
HETATM    6  C   UNL     1      23.874  46.821  49.758  1.00  0.00     0.042 A 
HETATM    7  C   UNL     1      23.086  47.318  48.706  1.00  0.00    -0.021 A 
HETATM    8  C   UNL     1      22.386  46.405  47.908  1.00  0.00     0.012 A 
HETATM    9  C   UNL     1      22.464  45.034  48.165  1.00  0.00     0.003 A 
HETATM   10  C   UNL     1      23.246  44.559  49.220  1.00  0.00     0.029 A 
BRANCH   7  11
HETATM   11  C   UNL     1      23.012  48.756  48.472  1.00  0.00     0.010 A 
HETATM   12  C   UNL     1      21.902  49.638  48.489  1.00  0.00     0.152 A 
HETATM   13  N   UNL     1      22.234  50.900  48.201  1.00  0.00    -0.187 NA
HETATM   14  N   UNL     1      23.557  50.835  47.995  1.00  0.00    -0.289 N 
HETATM   15  H   UNL     1      24.046  51.689  47.752  1.00  0.00     0.188 HD
HETATM   16  C   UNL     1      24.070  49.578  48.143  1.00  0.00     0.123 A 
ENDBRANCH   7  11
ENDBRANCH   2   5
BRANCH   1  17
HETATM   17  C   UNL     1      26.604  44.219  52.445  1.00  0.00     0.225 C 
HETATM   18  C   UNL     1      26.715  45.523  53.241  1.00  0.00     0.083 C 
HETATM   19  C   UNL     1      27.829  45.132  54.130  1.00  0.00    -0.021 A 
HETATM   20  C   UNL     1      28.474  44.030  53.596  1.00  0.00     0.076 A 
HETATM   21  C   UNL     1      28.273  45.724  55.297  1.00  0.00     0.017 A 
HETATM   22  C   UNL     1      29.580  43.475  54.201  1.00  0.00     0.044 A 
HETATM   23  O   UNL     1      27.898  43.572  52.434  1.00  0.00    -0.336 OA
HETATM   24  C   UNL     1      30.040  44.035  55.407  1.00  0.00    -0.053 A 
HETATM   25  C   UNL     1      29.390  45.176  55.952  1.00  0.00    -0.055 A 
HETATM   26  C   UNL     1      31.232  43.422  56.092  1.00  0.00     0.049 C 
HETATM   27  C   UNL     1      29.848  45.798  57.244  1.00  0.00     0.049 C 
ENDBRANCH   1  17
TORSDOF 3
ENDMDL
MODEL 8
REMARK VINA RESULT:      -8.7      3.340      6.179
REMARK  3 active torsions:
REMARK  status: ('A' for Active; 'I' for Inactive)
REMARK    1  A    between atoms: C_9  and  C_10 
REMARK       I    between atoms: C_10  and  N_11 
REMARK    2  A    between atoms: N_11  and  C_12 
REMARK    3  A    between atoms: C_14  and  C_15 
ROOT
HETATM    1  C   UNL     1      23.030  48.395  48.732  1.00  0.00     0.252 C 
HETATM    2  N   UNL     1      21.898  48.365  49.532  1.00  0.00    -0.325 N 
HETATM    3  O   UNL     1      23.155  49.016  47.680  1.00  0.00    -0.270 OA
HETATM    4  H   UNL     1      21.906  47.668  50.272  1.00  0.00     0.169 HD
ENDROOT
BRANCH   2   5
HETATM    5  C   UNL     1      20.726  49.134  49.381  1.00  0.00     0.035 A 
HETATM    6  C   UNL     1      19.534  48.628  48.851  1.00  0.00     0.042 A 
HETATM    7  C   UNL     1      18.398  49.438  48.684  1.00  0.00    -0.021 A 
HETATM    8  C   UNL     1      18.477  50.783  49.068  1.00  0.00     0.012 A 
HETATM    9  C   UNL     1      19.663  51.301  49.594  1.00  0.00     0.003 A 
HETATM   10  C   UNL     1      20.783  50.481  49.746  1.00  0.00     0.029 A 
BRANCH   7  11
HETATM   11  C   UNL     1      17.180  48.872  48.117  1.00  0.00     0.010 A 
HETATM   12  C   UNL     1      15.865  49.399  48.041  1.00  0.00     0.152 A 
HETATM   13  N   UNL     1      15.001  48.562  47.460  1.00  0.00    -0.187 NA
HETATM   14  N   UNL     1      15.754  47.493  47.163  1.00  0.00    -0.289 N 
HETATM   15  H   UNL     1      15.307  46.704  46.709  1.00  0.00     0.188 HD
HETATM   16  C   UNL     1      17.060  47.627  47.536  1.00  0.00     0.123 A 
ENDBRANCH   7  11
ENDBRANCH   2   5
BRANCH   1  17
HETATM   17  C   UNL     1      24.209  47.645  49.358  1.00  0.00     0.225 C 
HETATM   18  C   UNL     1      23.936  46.140  49.444  1.00  0.00     0.083 C 
HETATM   19  C   UNL     1      24.809  45.833  50.597  1.00  0.00    -0.021 A 
HETATM   20  C   UNL     1      25.110  47.006  51.266  1.00  0.00     0.076 A 
HETATM   21  C   UNL     1      25.269  44.612  51.052  1.00  0.00     0.017 A 
HETATM   22  C   UNL     1      25.879  47.011  52.409  1.00  0.00     0.044 A 
HETATM   23  O   UNL     1      24.570  48.125  50.675  1.00  0.00    -0.336 OA
HETATM   24  C   UNL     1      26.389  45.788  52.882  1.00  0.00    -0.053 A 
HETATM   25  C   UNL     1      26.071  44.579  52.206  1.00  0.00    -0.055 A 
HETATM   26  C   UNL     1      27.253  45.783  54.115  1.00  0.00     0.049 C 
HETATM   27  C   UNL     1      26.605  43.252  52.677  1.00  0.00     0.049 C 
ENDBRANCH   1  17
TORSDOF 3
ENDMDL
MODEL 9
REMARK VINA RESULT:      -8.5      3.059      3.658
REMARK  3 active torsions:
REMARK  status: ('A' for Active; 'I' for Inactive)
REMARK    1  A    between atoms: C_9  and  C_10 
REMARK       I    between atoms: C_10  and  N_11 
REMARK    2  A    between atoms: N_11  and  C_12 
REMARK    3  A    between atoms: C_14  and  C_15 
ROOT
HETATM    1  C   UNL     1      26.740  43.584  51.929  1.00  0.00     0.252 C 
HETATM    2  N   UNL     1      25.414  43.990  51.894  1.00  0.00    -0.325 N 
HETATM    3  O   UNL     1      27.444  43.330  50.956  1.00  0.00    -0.270 OA
HETATM    4  H   UNL     1      24.935  43.991  52.790  1.00  0.00     0.169 HD
ENDROOT
BRANCH   2   5
HETATM    5  C   UNL     1      24.654  44.321  50.753  1.00  0.00     0.035 A 
HETATM    6  C   UNL     1      24.137  43.368  49.868  1.00  0.00     0.042 A 
HETATM    7  C   UNL     1      23.414  43.742  48.723  1.00  0.00    -0.021 A 
HETATM    8  C   UNL     1      23.210  45.106  48.479  1.00  0.00     0.012 A 
HETATM    9  C   UNL     1      23.726  46.067  49.353  1.00  0.00     0.003 A 
HETATM   10  C   UNL     1      24.448  45.675  50.482  1.00  0.00     0.029 A 
BRANCH   7  11
HETATM   11  C   UNL     1      22.902  42.716  47.822  1.00  0.00     0.010 A 
HETATM   12  C   UNL     1      22.439  42.809  46.484  1.00  0.00     0.152 A 
HETATM   13  N   UNL     1      22.024  41.638  45.993  1.00  0.00    -0.187 NA
HETATM   14  N   UNL     1      22.214  40.788  47.013  1.00  0.00    -0.289 N 
HETATM   15  H   UNL     1      21.961  39.815  46.878  1.00  0.00     0.188 HD
HETATM   16  C   UNL     1      22.734  41.381  48.127  1.00  0.00     0.123 A 
ENDBRANCH   7  11
ENDBRANCH   2   5
BRANCH   1  17
HETATM   17  C   UNL     1      27.316  43.593  53.348  1.00  0.00     0.225 C 
HETATM   18  C   UNL     1      27.428  45.017  53.901  1.00  0.00     0.083 C 
HETATM   19  C   UNL     1      28.540  44.788  54.848  1.00  0.00    -0.021 A 
HETATM   20  C   UNL     1      29.184  43.609  54.519  1.00  0.00     0.076 A 
HETATM   21  C   UNL     1      28.983  45.577  55.893  1.00  0.00     0.017 A 
HETATM   22  C   UNL     1      30.289  43.168  55.214  1.00  0.00     0.044 A 
HETATM   23  O   UNL     1      28.610  42.953  53.454  1.00  0.00    -0.336 OA
HETATM   24  C   UNL     1      30.748  43.933  56.302  1.00  0.00    -0.053 A 
HETATM   25  C   UNL     1      30.097  45.152  56.636  1.00  0.00    -0.055 A 
HETATM   26  C   UNL     1      31.938  43.449  57.087  1.00  0.00     0.049 C 
HETATM   27  C   UNL     1      30.554  45.992  57.799  1.00  0.00     0.049 C 
ENDBRANCH   1  17
TORSDOF 3
ENDMDL
MODEL 10
REMARK VINA RESULT:      -8.5      2.941      3.763
REMARK  3 active torsions:
REMARK  status: ('A' for Active; 'I' for Inactive)
REMARK    1  A    between atoms: C_9  and  C_10 
REMARK       I    between atoms: C_10  and  N_11 
REMARK    2  A    between atoms: N_11  and  C_12 
REMARK    3  A    between atoms: C_14  and  C_15 
ROOT
HETATM    1  C   UNL     1      27.071  43.907  51.696  1.00  0.00     0.252 C 
HETATM    2  N   UNL     1      26.194  44.968  51.522  1.00  0.00    -0.325 N 
HETATM    3  O   UNL     1      27.000  42.813  51.145  1.00  0.00    -0.270 OA
HETATM    4  H   UNL     1      26.301  45.734  52.181  1.00  0.00     0.169 HD
ENDROOT
BRANCH   2   5
HETATM    5  C   UNL     1      25.140  45.059  50.589  1.00  0.00     0.035 A 
HETATM    6  C   UNL     1      24.587  43.948  49.942  1.00  0.00     0.042 A 
HETATM    7  C   UNL     1      23.560  44.085  48.992  1.00  0.00    -0.021 A 
HETATM    8  C   UNL     1      23.087  45.371  48.703  1.00  0.00     0.012 A 
HETATM    9  C   UNL     1      23.635  46.488  49.340  1.00  0.00     0.003 A 
HETATM   10  C   UNL     1      24.660  46.332  50.275  1.00  0.00     0.029 A 
BRANCH   7  11
HETATM   11  C   UNL     1      23.019  42.901  48.333  1.00  0.00     0.010 A 
HETATM   12  C   UNL     1      22.148  42.781  47.221  1.00  0.00     0.152 A 
HETATM   13  N   UNL     1      21.857  41.512  46.921  1.00  0.00    -0.187 NA
HETATM   14  N   UNL     1      22.537  40.811  47.840  1.00  0.00    -0.289 N 
HETATM   15  H   UNL     1      22.468  39.800  47.817  1.00  0.00     0.188 HD
HETATM   16  C   UNL     1      23.245  41.593  48.707  1.00  0.00     0.123 A 
ENDBRANCH   7  11
ENDBRANCH   2   5
BRANCH   1  17
HETATM   17  C   UNL     1      28.259  44.272  52.591  1.00  0.00     0.225 C 
HETATM   18  C   UNL     1      28.977  43.022  53.109  1.00  0.00     0.083 C 
HETATM   19  C   UNL     1      29.533  43.598  54.352  1.00  0.00    -0.021 A 
HETATM   20  C   UNL     1      28.857  44.766  54.654  1.00  0.00     0.076 A 
HETATM   21  C   UNL     1      30.526  43.111  55.180  1.00  0.00     0.017 A 
HETATM   22  C   UNL     1      29.142  45.495  55.788  1.00  0.00     0.044 A 
HETATM   23  O   UNL     1      27.902  45.101  53.722  1.00  0.00    -0.336 OA
HETATM   24  C   UNL     1      30.169  45.043  56.638  1.00  0.00    -0.053 A 
HETATM   25  C   UNL     1      30.856  43.836  56.338  1.00  0.00    -0.055 A 
HETATM   26  C   UNL     1      30.508  45.844  57.866  1.00  0.00     0.049 C 
HETATM   27  C   UNL     1      31.966  43.325  57.219  1.00  0.00     0.049 C 
ENDBRANCH   1  17
TORSDOF 3
ENDMDL
