MODEL 1
REMARK VINA RESULT:     -10.1      0.000      0.000
REMARK  9 active torsions:
REMARK  status: ('A' for Active; 'I' for Inactive)
REMARK    1  A    between atoms: C_3  and  O_4 
REMARK    2  A    between atoms: C_5  and  C_6 
REMARK    3  A    between atoms: C_16  and  N_17 
REMARK    4  A    between atoms: N_17  and  C_18 
REMARK    5  A    between atoms: C_18  and  N_19 
REMARK       I    between atoms: N_19  and  C_20 
REMARK    6  A    between atoms: C_20  and  C_21 
REMARK    7  A    between atoms: C_24  and  O_25 
REMARK    8  A    between atoms: O_25  and  C_26 
REMARK    9  A    between atoms: C_26  and  C_27 
ROOT
HETATM    1  N   UNL     1      24.288  47.418  50.807  1.00  0.00    -0.333 N 
HETATM    2  H   UNL     1      23.751  47.888  51.532  1.00  0.00     0.168 HD
ENDROOT
BRANCH   1   3
HETATM    3  C   UNL     1      24.875  46.194  51.187  1.00  0.00     0.035 A 
HETATM    4  C   UNL     1      25.894  46.067  52.131  1.00  0.00     0.048 A 
HETATM    5  C   UNL     1      26.400  44.804  52.502  1.00  0.00     0.053 A 
HETATM    6  C   UNL     1      25.837  43.656  51.916  1.00  0.00     0.086 A 
HETATM    7  C   UNL     1      24.815  43.762  50.964  1.00  0.00    -0.026 A 
HETATM    8  C   UNL     1      24.169  42.545  50.359  1.00  0.00     0.051 C 
HETATM    9  C   UNL     1      24.333  45.035  50.622  1.00  0.00     0.039 A 
BRANCH   5  10
HETATM   10  C   UNL     1      27.485  44.773  53.482  1.00  0.00     0.183 A 
HETATM   11  O   UNL     1      28.337  43.697  53.428  1.00  0.00    -0.289 OA
HETATM   12  C   UNL     1      29.212  43.917  54.451  1.00  0.00     0.106 A 
HETATM   13  C   UNL     1      28.862  45.111  55.060  1.00  0.00     0.093 A 
HETATM   14  C   UNL     1      30.274  43.111  54.839  1.00  0.00     0.040 A 
HETATM   15  N   UNL     1      27.763  45.648  54.434  1.00  0.00    -0.221 NA
HETATM   16  C   UNL     1      29.618  45.565  56.147  1.00  0.00     0.034 A 
HETATM   17  C   UNL     1      30.701  44.780  56.571  1.00  0.00     0.002 A 
HETATM   18  C   UNL     1      31.020  43.575  55.929  1.00  0.00     0.003 A 
ENDBRANCH   5  10
BRANCH   6  19
HETATM   19  O   UNL     1      26.244  42.386  52.237  1.00  0.00    -0.359 OA
HETATM   20  H   UNL     1      25.624  41.741  51.847  1.00  0.00     0.218 HD
ENDBRANCH   6  19
ENDBRANCH   1   3
BRANCH   1  21
HETATM   21  C   UNL     1      24.421  48.199  49.687  1.00  0.00     0.179 C 
HETATM   22  S   UNL     1      25.984  48.484  49.164  1.00  0.00    -0.040 SA
BRANCH  21  23
HETATM   23  N   UNL     1      23.265  48.738  49.165  1.00  0.00    -0.299 N 
HETATM   24  C   UNL     1      22.791  50.038  49.310  1.00  0.00     0.257 C 
HETATM   25  O   UNL     1      23.481  51.037  49.465  1.00  0.00    -0.267 OA
HETATM   26  H   UNL     1      22.572  48.030  48.974  1.00  0.00     0.171 HD
BRANCH  24  27
HETATM   27  C   UNL     1      21.319  50.206  49.187  1.00  0.00     0.032 A 
HETATM   28  C   UNL     1      20.416  49.162  49.423  1.00  0.00     0.020 A 
HETATM   29  C   UNL     1      19.037  49.393  49.320  1.00  0.00     0.038 A 
HETATM   30  C   UNL     1      18.558  50.659  48.978  1.00  0.00     0.068 A 
HETATM   31  C   UNL     1      19.465  51.683  48.700  1.00  0.00     0.038 A 
HETATM   32  C   UNL     1      20.838  51.463  48.804  1.00  0.00     0.020 A 
BRANCH  30  33
HETATM   33  O   UNL     1      17.245  51.014  48.855  1.00  0.00    -0.351 OA
BRANCH  33  34
HETATM   34  C   UNL     1      16.678  51.874  49.846  1.00  0.00     0.179 C 
BRANCH  34  35
HETATM   35  C   UNL     1      15.246  52.310  49.494  1.00  0.00     0.002 C 
HETATM   36  C   UNL     1      14.708  53.333  50.498  1.00  0.00     0.011 C 
HETATM   37  C   UNL     1      15.198  52.880  48.077  1.00  0.00     0.011 C 
ENDBRANCH  34  35
ENDBRANCH  33  34
ENDBRANCH  30  33
ENDBRANCH  24  27
ENDBRANCH  21  23
ENDBRANCH   1  21
TORSDOF 9
ENDMDL
MODEL 2
REMARK VINA RESULT:      -9.9      1.498      2.048
REMARK  9 active torsions:
REMARK  status: ('A' for Active; 'I' for Inactive)
REMARK    1  A    between atoms: C_3  and  O_4 
REMARK    2  A    between atoms: C_5  and  C_6 
REMARK    3  A    between atoms: C_16  and  N_17 
REMARK    4  A    between atoms: N_17  and  C_18 
REMARK    5  A    between atoms: C_18  and  N_19 
REMARK       I    between atoms: N_19  and  C_20 
REMARK    6  A    between atoms: C_20  and  C_21 
REMARK    7  A    between atoms: C_24  and  O_25 
REMARK    8  A    between atoms: O_25  and  C_26 
REMARK    9  A    between atoms: C_26  and  C_27 
ROOT
HETATM    1  N   UNL     1      24.534  47.527  50.538  1.00  0.00    -0.333 N 
HETATM    2  H   UNL     1      23.892  48.006  51.164  1.00  0.00     0.168 HD
ENDROOT
BRANCH   1   3
HETATM    3  C   UNL     1      25.035  46.298  51.013  1.00  0.00     0.035 A 
HETATM    4  C   UNL     1      26.022  46.172  51.991  1.00  0.00     0.048 A 
HETATM    5  C   UNL     1      26.439  44.909  52.457  1.00  0.00     0.053 A 
HETATM    6  C   UNL     1      25.822  43.760  51.930  1.00  0.00     0.086 A 
HETATM    7  C   UNL     1      24.831  43.864  50.945  1.00  0.00    -0.026 A 
HETATM    8  C   UNL     1      24.126  42.651  50.402  1.00  0.00     0.051 C 
HETATM    9  C   UNL     1      24.437  45.138  50.508  1.00  0.00     0.039 A 
BRANCH   5  10
HETATM   10  C   UNL     1      27.497  44.877  53.467  1.00  0.00     0.183 A 
HETATM   11  O   UNL     1      28.382  43.828  53.404  1.00  0.00    -0.289 OA
HETATM   12  C   UNL     1      29.221  44.041  54.459  1.00  0.00     0.106 A 
HETATM   13  C   UNL     1      28.817  45.204  55.094  1.00  0.00     0.093 A 
HETATM   14  C   UNL     1      30.294  43.253  54.852  1.00  0.00     0.040 A 
HETATM   15  N   UNL     1      27.721  45.729  54.453  1.00  0.00    -0.221 NA
HETATM   16  C   UNL     1      29.528  45.644  56.217  1.00  0.00     0.034 A 
HETATM   17  C   UNL     1      30.622  44.877  56.648  1.00  0.00     0.002 A 
HETATM   18  C   UNL     1      30.995  43.704  55.978  1.00  0.00     0.003 A 
ENDBRANCH   5  10
BRANCH   6  19
HETATM   19  O   UNL     1      26.141  42.491  52.343  1.00  0.00    -0.359 OA
HETATM   20  H   UNL     1      27.109  42.418  52.439  1.00  0.00     0.218 HD
ENDBRANCH   6  19
ENDBRANCH   1   3
BRANCH   1  21
HETATM   21  C   UNL     1      24.859  48.300  49.453  1.00  0.00     0.179 C 
HETATM   22  S   UNL     1      26.487  48.607  49.223  1.00  0.00    -0.040 SA
BRANCH  21  23
HETATM   23  N   UNL     1      23.810  48.815  48.722  1.00  0.00    -0.299 N 
HETATM   24  C   UNL     1      23.095  49.984  48.966  1.00  0.00     0.257 C 
HETATM   25  O   UNL     1      23.532  50.989  49.513  1.00  0.00    -0.267 OA
HETATM   26  H   UNL     1      23.330  48.101  48.198  1.00  0.00     0.171 HD
BRANCH  24  27
HETATM   27  C   UNL     1      21.704  50.012  48.441  1.00  0.00     0.032 A 
HETATM   28  C   UNL     1      20.907  51.162  48.468  1.00  0.00     0.020 A 
HETATM   29  C   UNL     1      19.614  51.130  47.930  1.00  0.00     0.038 A 
HETATM   30  C   UNL     1      19.112  49.953  47.371  1.00  0.00     0.068 A 
HETATM   31  C   UNL     1      19.894  48.798  47.390  1.00  0.00     0.038 A 
HETATM   32  C   UNL     1      21.185  48.822  47.919  1.00  0.00     0.020 A 
BRANCH  30  33
HETATM   33  O   UNL     1      17.878  49.794  46.808  1.00  0.00    -0.351 OA
BRANCH  33  34
HETATM   34  C   UNL     1      17.400  48.466  46.584  1.00  0.00     0.179 C 
BRANCH  34  35
HETATM   35  C   UNL     1      16.226  48.101  47.509  1.00  0.00     0.002 C 
HETATM   36  C   UNL     1      16.690  47.249  48.693  1.00  0.00     0.011 C 
HETATM   37  C   UNL     1      15.529  49.366  48.006  1.00  0.00     0.011 C 
ENDBRANCH  34  35
ENDBRANCH  33  34
ENDBRANCH  30  33
ENDBRANCH  24  27
ENDBRANCH  21  23
ENDBRANCH   1  21
TORSDOF 9
ENDMDL
MODEL 3
REMARK VINA RESULT:      -9.8      2.392      3.406
REMARK  9 active torsions:
REMARK  status: ('A' for Active; 'I' for Inactive)
REMARK    1  A    between atoms: C_3  and  O_4 
REMARK    2  A    between atoms: C_5  and  C_6 
REMARK    3  A    between atoms: C_16  and  N_17 
REMARK    4  A    between atoms: N_17  and  C_18 
REMARK    5  A    between atoms: C_18  and  N_19 
REMARK       I    between atoms: N_19  and  C_20 
REMARK    6  A    between atoms: C_20  and  C_21 
REMARK    7  A    between atoms: C_24  and  O_25 
REMARK    8  A    between atoms: O_25  and  C_26 
REMARK    9  A    between atoms: C_26  and  C_27 
ROOT
HETATM    1  N   UNL     1      26.402  44.931  50.151  1.00  0.00    -0.333 N 
HETATM    2  H   UNL     1      26.795  45.339  49.306  1.00  0.00     0.168 HD
ENDROOT
BRANCH   1   3
HETATM    3  C   UNL     1      27.214  43.975  50.794  1.00  0.00     0.035 A 
HETATM    4  C   UNL     1      27.861  44.180  52.013  1.00  0.00     0.048 A 
HETATM    5  C   UNL     1      28.617  43.160  52.626  1.00  0.00     0.053 A 
HETATM    6  C   UNL     1      28.690  41.905  51.994  1.00  0.00     0.086 A 
HETATM    7  C   UNL     1      28.049  41.679  50.768  1.00  0.00    -0.026 A 
HETATM    8  C   UNL     1      28.078  40.332  50.098  1.00  0.00     0.051 C 
HETATM    9  C   UNL     1      27.303  42.717  50.189  1.00  0.00     0.039 A 
BRANCH   5  10
HETATM   10  C   UNL     1      29.279  43.477  53.891  1.00  0.00     0.183 A 
HETATM   11  O   UNL     1      28.890  44.634  54.520  1.00  0.00    -0.289 OA
HETATM   12  C   UNL     1      29.675  44.684  55.634  1.00  0.00     0.106 A 
HETATM   13  C   UNL     1      30.482  43.558  55.636  1.00  0.00     0.093 A 
HETATM   14  C   UNL     1      29.689  45.670  56.612  1.00  0.00     0.040 A 
HETATM   15  N   UNL     1      30.219  42.795  54.523  1.00  0.00    -0.221 NA
HETATM   16  C   UNL     1      31.385  43.371  56.690  1.00  0.00     0.034 A 
HETATM   17  C   UNL     1      31.430  44.345  57.699  1.00  0.00     0.002 A 
HETATM   18  C   UNL     1      30.598  45.473  57.658  1.00  0.00     0.003 A 
ENDBRANCH   5  10
BRANCH   6  19
HETATM   19  O   UNL     1      29.376  40.845  52.529  1.00  0.00    -0.359 OA
HETATM   20  H   UNL     1      28.740  40.185  52.863  1.00  0.00     0.218 HD
ENDBRANCH   6  19
ENDBRANCH   1   3
BRANCH   1  21
HETATM   21  C   UNL     1      25.101  45.320  50.346  1.00  0.00     0.179 C 
HETATM   22  S   UNL     1      24.239  44.471  51.501  1.00  0.00    -0.040 SA
BRANCH  21  23
HETATM   23  N   UNL     1      24.616  46.305  49.513  1.00  0.00    -0.299 N 
HETATM   24  C   UNL     1      24.841  47.676  49.593  1.00  0.00     0.257 C 
HETATM   25  O   UNL     1      25.845  48.210  50.049  1.00  0.00    -0.267 OA
HETATM   26  H   UNL     1      23.770  46.019  49.045  1.00  0.00     0.171 HD
BRANCH  24  27
HETATM   27  C   UNL     1      23.786  48.539  49.001  1.00  0.00     0.032 A 
HETATM   28  C   UNL     1      24.010  49.875  48.649  1.00  0.00     0.020 A 
HETATM   29  C   UNL     1      22.982  50.628  48.066  1.00  0.00     0.038 A 
HETATM   30  C   UNL     1      21.730  50.053  47.838  1.00  0.00     0.068 A 
HETATM   31  C   UNL     1      21.500  48.734  48.234  1.00  0.00     0.038 A 
HETATM   32  C   UNL     1      22.519  47.977  48.810  1.00  0.00     0.020 A 
BRANCH  30  33
HETATM   33  O   UNL     1      20.653  50.672  47.272  1.00  0.00    -0.351 OA
BRANCH  33  34
HETATM   34  C   UNL     1      19.344  50.272  47.686  1.00  0.00     0.179 C 
BRANCH  34  35
HETATM   35  C   UNL     1      18.709  51.272  48.667  1.00  0.00     0.002 C 
HETATM   36  C   UNL     1      19.348  51.180  50.054  1.00  0.00     0.011 C 
HETATM   37  C   UNL     1      18.824  52.695  48.123  1.00  0.00     0.011 C 
ENDBRANCH  34  35
ENDBRANCH  33  34
ENDBRANCH  30  33
ENDBRANCH  24  27
ENDBRANCH  21  23
ENDBRANCH   1  21
TORSDOF 9
ENDMDL
MODEL 4
REMARK VINA RESULT:      -9.8      2.410     11.722
REMARK  9 active torsions:
REMARK  status: ('A' for Active; 'I' for Inactive)
REMARK    1  A    between atoms: C_3  and  O_4 
REMARK    2  A    between atoms: C_5  and  C_6 
REMARK    3  A    between atoms: C_16  and  N_17 
REMARK    4  A    between atoms: N_17  and  C_18 
REMARK    5  A    between atoms: C_18  and  N_19 
REMARK       I    between atoms: N_19  and  C_20 
REMARK    6  A    between atoms: C_20  and  C_21 
REMARK    7  A    between atoms: C_24  and  O_25 
REMARK    8  A    between atoms: O_25  and  C_26 
REMARK    9  A    between atoms: C_26  and  C_27 
ROOT
HETATM    1  N   UNL     1      24.273  45.413  50.528  1.00  0.00    -0.333 N 
HETATM    2  H   UNL     1      23.426  45.239  51.062  1.00  0.00     0.168 HD
ENDROOT
BRANCH   1   3
HETATM    3  C   UNL     1      24.338  46.669  49.890  1.00  0.00     0.035 A 
HETATM    4  C   UNL     1      23.229  47.387  49.445  1.00  0.00     0.048 A 
HETATM    5  C   UNL     1      23.363  48.663  48.862  1.00  0.00     0.053 A 
HETATM    6  C   UNL     1      24.649  49.221  48.755  1.00  0.00     0.086 A 
HETATM    7  C   UNL     1      25.778  48.515  49.193  1.00  0.00    -0.026 A 
HETATM    8  C   UNL     1      27.158  49.113  49.129  1.00  0.00     0.051 C 
HETATM    9  C   UNL     1      25.606  47.249  49.773  1.00  0.00     0.039 A 
BRANCH   5  10
HETATM   10  C   UNL     1      22.144  49.328  48.404  1.00  0.00     0.183 A 
HETATM   11  O   UNL     1      21.813  50.509  49.022  1.00  0.00    -0.289 OA
HETATM   12  C   UNL     1      20.645  50.880  48.423  1.00  0.00     0.106 A 
HETATM   13  C   UNL     1      20.335  49.924  47.469  1.00  0.00     0.093 A 
HETATM   14  C   UNL     1      19.879  52.005  48.695  1.00  0.00     0.040 A 
HETATM   15  N   UNL     1      21.297  48.943  47.464  1.00  0.00    -0.221 NA
HETATM   16  C   UNL     1      19.172  50.080  46.705  1.00  0.00     0.034 A 
HETATM   17  C   UNL     1      18.369  51.205  46.949  1.00  0.00     0.002 A 
HETATM   18  C   UNL     1      18.717  52.148  47.926  1.00  0.00     0.003 A 
ENDBRANCH   5  10
BRANCH   6  19
HETATM   19  O   UNL     1      24.875  50.468  48.229  1.00  0.00    -0.359 OA
HETATM   20  H   UNL     1      24.030  50.952  48.172  1.00  0.00     0.218 HD
ENDBRANCH   6  19
ENDBRANCH   1   3
BRANCH   1  21
HETATM   21  C   UNL     1      25.064  44.295  50.450  1.00  0.00     0.179 C 
HETATM   22  S   UNL     1      24.811  43.300  49.129  1.00  0.00    -0.040 SA
BRANCH  21  23
HETATM   23  N   UNL     1      25.916  44.062  51.507  1.00  0.00    -0.299 N 
HETATM   24  C   UNL     1      25.689  44.319  52.856  1.00  0.00     0.257 C 
HETATM   25  O   UNL     1      24.598  44.311  53.411  1.00  0.00    -0.267 OA
HETATM   26  H   UNL     1      26.881  44.035  51.214  1.00  0.00     0.171 HD
BRANCH  24  27
HETATM   27  C   UNL     1      26.904  44.547  53.682  1.00  0.00     0.032 A 
HETATM   28  C   UNL     1      27.949  43.620  53.763  1.00  0.00     0.020 A 
HETATM   29  C   UNL     1      29.082  43.908  54.537  1.00  0.00     0.038 A 
HETATM   30  C   UNL     1      29.171  45.115  55.234  1.00  0.00     0.068 A 
HETATM   31  C   UNL     1      28.104  46.014  55.186  1.00  0.00     0.038 A 
HETATM   32  C   UNL     1      26.976  45.737  54.415  1.00  0.00     0.020 A 
BRANCH  30  33
HETATM   33  O   UNL     1      30.219  45.517  56.011  1.00  0.00    -0.351 OA
BRANCH  33  34
HETATM   34  C   UNL     1      31.411  44.728  56.007  1.00  0.00     0.179 C 
BRANCH  34  35
HETATM   35  C   UNL     1      31.695  44.088  57.376  1.00  0.00     0.002 C 
HETATM   36  C   UNL     1      30.921  44.791  58.495  1.00  0.00     0.011 C 
HETATM   37  C   UNL     1      31.351  42.599  57.348  1.00  0.00     0.011 C 
ENDBRANCH  34  35
ENDBRANCH  33  34
ENDBRANCH  30  33
ENDBRANCH  24  27
ENDBRANCH  21  23
ENDBRANCH   1  21
TORSDOF 9
ENDMDL
MODEL 5
REMARK VINA RESULT:      -9.5      2.933      4.056
REMARK  9 active torsions:
REMARK  status: ('A' for Active; 'I' for Inactive)
REMARK    1  A    between atoms: C_3  and  O_4 
REMARK    2  A    between atoms: C_5  and  C_6 
REMARK    3  A    between atoms: C_16  and  N_17 
REMARK    4  A    between atoms: N_17  and  C_18 
REMARK    5  A    between atoms: C_18  and  N_19 
REMARK       I    between atoms: N_19  and  C_20 
REMARK    6  A    between atoms: C_20  and  C_21 
REMARK    7  A    between atoms: C_24  and  O_25 
REMARK    8  A    between atoms: O_25  and  C_26 
REMARK    9  A    between atoms: C_26  and  C_27 
ROOT
HETATM    1  N   UNL     1      25.939  42.963  48.584  1.00  0.00    -0.333 N 
HETATM    2  H   UNL     1      26.367  43.289  47.721  1.00  0.00     0.168 HD
ENDROOT
BRANCH   1   3
HETATM    3  C   UNL     1      26.798  42.273  49.463  1.00  0.00     0.035 A 
HETATM    4  C   UNL     1      27.347  42.821  50.623  1.00  0.00     0.048 A 
HETATM    5  C   UNL     1      28.158  42.056  51.486  1.00  0.00     0.053 A 
HETATM    6  C   UNL     1      28.390  40.706  51.169  1.00  0.00     0.086 A 
HETATM    7  C   UNL     1      27.850  40.136  50.007  1.00  0.00    -0.026 A 
HETATM    8  C   UNL     1      28.049  38.683  49.674  1.00  0.00     0.051 C 
HETATM    9  C   UNL     1      27.044  40.926  49.174  1.00  0.00     0.039 A 
BRANCH   5  10
HETATM   10  C   UNL     1      28.707  42.724  52.665  1.00  0.00     0.183 A 
HETATM   11  O   UNL     1      28.098  43.892  53.055  1.00  0.00    -0.289 OA
HETATM   12  C   UNL     1      28.821  44.295  54.139  1.00  0.00     0.106 A 
HETATM   13  C   UNL     1      29.814  43.355  54.361  1.00  0.00     0.093 A 
HETATM   14  C   UNL     1      28.625  45.437  54.905  1.00  0.00     0.040 A 
HETATM   15  N   UNL     1      29.730  42.359  53.419  1.00  0.00    -0.221 NA
HETATM   16  C   UNL     1      30.697  43.541  55.431  1.00  0.00     0.034 A 
HETATM   17  C   UNL     1      30.533  44.682  56.231  1.00  0.00     0.002 A 
HETATM   18  C   UNL     1      29.516  45.612  55.970  1.00  0.00     0.003 A 
ENDBRANCH   5  10
BRANCH   6  19
HETATM   19  O   UNL     1      29.141  39.876  51.963  1.00  0.00    -0.359 OA
HETATM   20  H   UNL     1      28.623  39.077  52.174  1.00  0.00     0.218 HD
ENDBRANCH   6  19
ENDBRANCH   1   3
BRANCH   1  21
HETATM   21  C   UNL     1      24.581  43.155  48.580  1.00  0.00     0.179 C 
HETATM   22  S   UNL     1      23.638  41.786  48.766  1.00  0.00    -0.040 SA
BRANCH  21  23
HETATM   23  N   UNL     1      24.136  44.436  48.336  1.00  0.00    -0.299 N 
HETATM   24  C   UNL     1      24.238  45.547  49.168  1.00  0.00     0.257 C 
HETATM   25  O   UNL     1      25.125  45.745  49.988  1.00  0.00    -0.267 OA
HETATM   26  H   UNL     1      23.385  44.452  47.662  1.00  0.00     0.171 HD
BRANCH  24  27
HETATM   27  C   UNL     1      23.208  46.599  48.970  1.00  0.00     0.032 A 
HETATM   28  C   UNL     1      21.970  46.343  48.369  1.00  0.00     0.020 A 
HETATM   29  C   UNL     1      21.028  47.373  48.238  1.00  0.00     0.038 A 
HETATM   30  C   UNL     1      21.321  48.658  48.699  1.00  0.00     0.068 A 
HETATM   31  C   UNL     1      22.574  48.917  49.256  1.00  0.00     0.038 A 
HETATM   32  C   UNL     1      23.515  47.897  49.394  1.00  0.00     0.020 A 
BRANCH  30  33
HETATM   33  O   UNL     1      20.491  49.740  48.640  1.00  0.00    -0.351 OA
BRANCH  33  34
HETATM   34  C   UNL     1      20.584  50.725  49.672  1.00  0.00     0.179 C 
BRANCH  34  35
HETATM   35  C   UNL     1      19.354  51.647  49.716  1.00  0.00     0.002 C 
HETATM   36  C   UNL     1      19.207  52.448  48.420  1.00  0.00     0.011 C 
HETATM   37  C   UNL     1      18.089  50.831  49.982  1.00  0.00     0.011 C 
ENDBRANCH  34  35
ENDBRANCH  33  34
ENDBRANCH  30  33
ENDBRANCH  24  27
ENDBRANCH  21  23
ENDBRANCH   1  21
TORSDOF 9
ENDMDL
MODEL 6
REMARK VINA RESULT:      -9.2      2.773      3.844
REMARK  9 active torsions:
REMARK  status: ('A' for Active; 'I' for Inactive)
REMARK    1  A    between atoms: C_3  and  O_4 
REMARK    2  A    between atoms: C_5  and  C_6 
REMARK    3  A    between atoms: C_16  and  N_17 
REMARK    4  A    between atoms: N_17  and  C_18 
REMARK    5  A    between atoms: C_18  and  N_19 
REMARK       I    between atoms: N_19  and  C_20 
REMARK    6  A    between atoms: C_20  and  C_21 
REMARK    7  A    between atoms: C_24  and  O_25 
REMARK    8  A    between atoms: O_25  and  C_26 
REMARK    9  A    between atoms: C_26  and  C_27 
ROOT
HETATM    1  N   UNL     1      25.650  43.590  49.065  1.00  0.00    -0.333 N 
HETATM    2  H   UNL     1      26.019  44.225  48.361  1.00  0.00     0.168 HD
ENDROOT
BRANCH   1   3
HETATM    3  C   UNL     1      26.616  42.950  49.868  1.00  0.00     0.035 A 
HETATM    4  C   UNL     1      27.142  43.481  51.045  1.00  0.00     0.048 A 
HETATM    5  C   UNL     1      28.068  42.762  51.828  1.00  0.00     0.053 A 
HETATM    6  C   UNL     1      28.442  41.472  51.411  1.00  0.00     0.086 A 
HETATM    7  C   UNL     1      27.927  40.921  50.230  1.00  0.00    -0.026 A 
HETATM    8  C   UNL     1      28.279  39.525  49.790  1.00  0.00     0.051 C 
HETATM    9  C   UNL     1      27.004  41.663  49.478  1.00  0.00     0.039 A 
BRANCH   5  10
HETATM   10  C   UNL     1      28.583  43.412  53.033  1.00  0.00     0.183 A 
HETATM   11  O   UNL     1      29.665  42.823  53.640  1.00  0.00    -0.289 OA
HETATM   12  C   UNL     1      29.904  43.612  54.727  1.00  0.00     0.106 A 
HETATM   13  C   UNL     1      28.975  44.640  54.717  1.00  0.00     0.093 A 
HETATM   14  C   UNL     1      30.892  43.445  55.688  1.00  0.00     0.040 A 
HETATM   15  N   UNL     1      28.141  44.504  53.634  1.00  0.00    -0.221 NA
HETATM   16  C   UNL     1      29.013  45.597  55.738  1.00  0.00     0.034 A 
HETATM   17  C   UNL     1      29.997  45.465  56.730  1.00  0.00     0.002 A 
HETATM   18  C   UNL     1      30.917  44.408  56.704  1.00  0.00     0.003 A 
ENDBRANCH   5  10
BRANCH   6  19
HETATM   19  O   UNL     1      29.313  40.687  52.122  1.00  0.00    -0.359 OA
HETATM   20  H   UNL     1      28.845  39.892  52.440  1.00  0.00     0.218 HD
ENDBRANCH   6  19
ENDBRANCH   1   3
BRANCH   1  21
HETATM   21  C   UNL     1      24.296  43.414  48.931  1.00  0.00     0.179 C 
HETATM   22  S   UNL     1      23.790  41.889  48.467  1.00  0.00    -0.040 SA
BRANCH  21  23
HETATM   23  N   UNL     1      23.505  44.529  49.104  1.00  0.00    -0.299 N 
HETATM   24  C   UNL     1      22.874  45.286  48.120  1.00  0.00     0.257 C 
HETATM   25  O   UNL     1      22.478  44.867  47.040  1.00  0.00    -0.267 OA
HETATM   26  H   UNL     1      23.708  45.004  49.970  1.00  0.00     0.171 HD
BRANCH  24  27
HETATM   27  C   UNL     1      22.605  46.705  48.471  1.00  0.00     0.032 A 
HETATM   28  C   UNL     1      23.542  47.513  49.127  1.00  0.00     0.020 A 
HETATM   29  C   UNL     1      23.238  48.853  49.404  1.00  0.00     0.038 A 
HETATM   30  C   UNL     1      22.003  49.387  49.033  1.00  0.00     0.068 A 
HETATM   31  C   UNL     1      21.057  48.564  48.421  1.00  0.00     0.038 A 
HETATM   32  C   UNL     1      21.352  47.230  48.138  1.00  0.00     0.020 A 
BRANCH  30  33
HETATM   33  O   UNL     1      21.591  50.673  49.236  1.00  0.00    -0.351 OA
BRANCH  33  34
HETATM   34  C   UNL     1      20.701  50.938  50.323  1.00  0.00     0.179 C 
BRANCH  34  35
HETATM   35  C   UNL     1      19.403  51.624  49.864  1.00  0.00     0.002 C 
HETATM   36  C   UNL     1      19.535  52.179  48.443  1.00  0.00     0.011 C 
HETATM   37  C   UNL     1      18.229  50.650  49.946  1.00  0.00     0.011 C 
ENDBRANCH  34  35
ENDBRANCH  33  34
ENDBRANCH  30  33
ENDBRANCH  24  27
ENDBRANCH  21  23
ENDBRANCH   1  21
TORSDOF 9
ENDMDL
MODEL 7
REMARK VINA RESULT:      -9.1      2.105     12.120
REMARK  9 active torsions:
REMARK  status: ('A' for Active; 'I' for Inactive)
REMARK    1  A    between atoms: C_3  and  O_4 
REMARK    2  A    between atoms: C_5  and  C_6 
REMARK    3  A    between atoms: C_16  and  N_17 
REMARK    4  A    between atoms: N_17  and  C_18 
REMARK    5  A    between atoms: C_18  and  N_19 
REMARK       I    between atoms: N_19  and  C_20 
REMARK    6  A    between atoms: C_20  and  C_21 
REMARK    7  A    between atoms: C_24  and  O_25 
REMARK    8  A    between atoms: O_25  and  C_26 
REMARK    9  A    between atoms: C_26  and  C_27 
ROOT
HETATM    1  N   UNL     1      22.235  48.483  49.679  1.00  0.00    -0.333 N 
HETATM    2  H   UNL     1      22.095  48.105  50.612  1.00  0.00     0.168 HD
ENDROOT
BRANCH   1   3
HETATM    3  C   UNL     1      21.077  48.559  48.877  1.00  0.00     0.035 A 
HETATM    4  C   UNL     1      20.049  49.483  49.061  1.00  0.00     0.048 A 
HETATM    5  C   UNL     1      18.943  49.536  48.189  1.00  0.00     0.053 A 
HETATM    6  C   UNL     1      18.902  48.647  47.100  1.00  0.00     0.086 A 
HETATM    7  C   UNL     1      19.924  47.709  46.899  1.00  0.00    -0.026 A 
HETATM    8  C   UNL     1      19.922  46.780  45.715  1.00  0.00     0.051 C 
HETATM    9  C   UNL     1      21.011  47.688  47.785  1.00  0.00     0.039 A 
BRANCH   5  10
HETATM   10  C   UNL     1      17.902  50.523  48.476  1.00  0.00     0.183 A 
HETATM   11  O   UNL     1      17.178  50.989  47.406  1.00  0.00    -0.289 OA
HETATM   12  C   UNL     1      16.319  51.894  47.958  1.00  0.00     0.106 A 
HETATM   13  C   UNL     1      16.550  51.920  49.324  1.00  0.00     0.093 A 
HETATM   14  C   UNL     1      15.371  52.665  47.299  1.00  0.00     0.040 A 
HETATM   15  N   UNL     1      17.557  51.042  49.642  1.00  0.00    -0.221 NA
HETATM   16  C   UNL     1      15.784  52.776  50.125  1.00  0.00     0.034 A 
HETATM   17  C   UNL     1      14.813  53.573  49.498  1.00  0.00     0.002 A 
HETATM   18  C   UNL     1      14.613  53.518  48.111  1.00  0.00     0.003 A 
ENDBRANCH   5  10
BRANCH   6  19
HETATM   19  O   UNL     1      17.882  48.645  46.182  1.00  0.00    -0.359 OA
HETATM   20  H   UNL     1      18.159  49.143  45.391  1.00  0.00     0.218 HD
ENDBRANCH   6  19
ENDBRANCH   1   3
BRANCH   1  21
HETATM   21  C   UNL     1      23.564  48.675  49.402  1.00  0.00     0.179 C 
HETATM   22  S   UNL     1      23.927  49.896  48.318  1.00  0.00    -0.040 SA
BRANCH  21  23
HETATM   23  N   UNL     1      24.451  47.787  49.972  1.00  0.00    -0.299 N 
HETATM   24  C   UNL     1      24.296  46.413  50.134  1.00  0.00     0.257 C 
HETATM   25  O   UNL     1      23.644  45.677  49.404  1.00  0.00    -0.267 OA
HETATM   26  H   UNL     1      25.078  48.243  50.617  1.00  0.00     0.171 HD
BRANCH  24  27
HETATM   27  C   UNL     1      25.058  45.805  51.256  1.00  0.00     0.032 A 
HETATM   28  C   UNL     1      25.189  44.421  51.420  1.00  0.00     0.020 A 
HETATM   29  C   UNL     1      25.946  43.911  52.483  1.00  0.00     0.038 A 
HETATM   30  C   UNL     1      26.569  44.777  53.384  1.00  0.00     0.068 A 
HETATM   31  C   UNL     1      26.396  46.154  53.241  1.00  0.00     0.038 A 
HETATM   32  C   UNL     1      25.648  46.670  52.184  1.00  0.00     0.020 A 
BRANCH  30  33
HETATM   33  O   UNL     1      27.338  44.408  54.450  1.00  0.00    -0.351 OA
BRANCH  33  34
HETATM   34  C   UNL     1      28.751  44.609  54.370  1.00  0.00     0.179 C 
BRANCH  34  35
HETATM   35  C   UNL     1      29.537  43.290  54.456  1.00  0.00     0.002 C 
HETATM   36  C   UNL     1      30.051  42.853  53.083  1.00  0.00     0.011 C 
HETATM   37  C   UNL     1      30.698  43.427  55.440  1.00  0.00     0.011 C 
ENDBRANCH  34  35
ENDBRANCH  33  34
ENDBRANCH  30  33
ENDBRANCH  24  27
ENDBRANCH  21  23
ENDBRANCH   1  21
TORSDOF 9
ENDMDL
MODEL 8
REMARK VINA RESULT:      -8.9      3.127      4.133
REMARK  9 active torsions:
REMARK  status: ('A' for Active; 'I' for Inactive)
REMARK    1  A    between atoms: C_3  and  O_4 
REMARK    2  A    between atoms: C_5  and  C_6 
REMARK    3  A    between atoms: C_16  and  N_17 
REMARK    4  A    between atoms: N_17  and  C_18 
REMARK    5  A    between atoms: C_18  and  N_19 
REMARK       I    between atoms: N_19  and  C_20 
REMARK    6  A    between atoms: C_20  and  C_21 
REMARK    7  A    between atoms: C_24  and  O_25 
REMARK    8  A    between atoms: O_25  and  C_26 
REMARK    9  A    between atoms: C_26  and  C_27 
ROOT
HETATM    1  N   UNL     1      24.143  43.536  48.000  1.00  0.00    -0.333 N 
HETATM    2  H   UNL     1      24.901  43.066  47.512  1.00  0.00     0.168 HD
ENDROOT
BRANCH   1   3
HETATM    3  C   UNL     1      24.541  44.454  48.994  1.00  0.00     0.035 A 
HETATM    4  C   UNL     1      25.511  44.197  49.962  1.00  0.00     0.048 A 
HETATM    5  C   UNL     1      25.899  45.180  50.895  1.00  0.00     0.053 A 
HETATM    6  C   UNL     1      25.300  46.451  50.820  1.00  0.00     0.086 A 
HETATM    7  C   UNL     1      24.320  46.728  49.857  1.00  0.00    -0.026 A 
HETATM    8  C   UNL     1      23.701  48.094  49.731  1.00  0.00     0.051 C 
HETATM    9  C   UNL     1      23.963  45.727  48.942  1.00  0.00     0.039 A 
BRANCH   5  10
HETATM   10  C   UNL     1      26.907  44.810  51.887  1.00  0.00     0.183 A 
HETATM   11  O   UNL     1      27.874  43.922  51.485  1.00  0.00    -0.289 OA
HETATM   12  C   UNL     1      28.644  43.745  52.598  1.00  0.00     0.106 A 
HETATM   13  C   UNL     1      28.121  44.539  53.606  1.00  0.00     0.093 A 
HETATM   14  C   UNL     1      29.757  42.927  52.730  1.00  0.00     0.040 A 
HETATM   15  N   UNL     1      27.018  45.214  53.142  1.00  0.00    -0.221 NA
HETATM   16  C   UNL     1      28.742  44.538  54.860  1.00  0.00     0.034 A 
HETATM   17  C   UNL     1      29.872  43.725  55.037  1.00  0.00     0.002 A 
HETATM   18  C   UNL     1      30.367  42.934  53.991  1.00  0.00     0.003 A 
ENDBRANCH   5  10
BRANCH   6  19
HETATM   19  O   UNL     1      25.633  47.478  51.666  1.00  0.00    -0.359 OA
HETATM   20  H   UNL     1      24.831  47.794  52.122  1.00  0.00     0.218 HD
ENDBRANCH   6  19
ENDBRANCH   1   3
BRANCH   1  21
HETATM   21  C   UNL     1      22.919  43.023  47.653  1.00  0.00     0.179 C 
HETATM   22  S   UNL     1      22.917  41.470  47.032  1.00  0.00    -0.040 SA
BRANCH  21  23
HETATM   23  N   UNL     1      21.837  43.868  47.767  1.00  0.00    -0.299 N 
HETATM   24  C   UNL     1      21.252  44.642  46.769  1.00  0.00     0.257 C 
HETATM   25  O   UNL     1      21.230  44.372  45.575  1.00  0.00    -0.267 OA
HETATM   26  H   UNL     1      21.709  44.190  48.714  1.00  0.00     0.171 HD
BRANCH  24  27
HETATM   27  C   UNL     1      20.538  45.860  47.233  1.00  0.00     0.032 A 
HETATM   28  C   UNL     1      20.079  46.015  48.546  1.00  0.00     0.020 A 
HETATM   29  C   UNL     1      19.438  47.201  48.929  1.00  0.00     0.038 A 
HETATM   30  C   UNL     1      19.249  48.230  48.005  1.00  0.00     0.068 A 
HETATM   31  C   UNL     1      19.667  48.051  46.685  1.00  0.00     0.038 A 
HETATM   32  C   UNL     1      20.310  46.875  46.297  1.00  0.00     0.020 A 
BRANCH  30  33
HETATM   33  O   UNL     1      18.651  49.432  48.253  1.00  0.00    -0.351 OA
BRANCH  33  34
HETATM   34  C   UNL     1      19.120  50.583  47.546  1.00  0.00     0.179 C 
BRANCH  34  35
HETATM   35  C   UNL     1      19.882  51.560  48.458  1.00  0.00     0.002 C 
HETATM   36  C   UNL     1      19.294  51.582  49.870  1.00  0.00     0.011 C 
HETATM   37  C   UNL     1      21.365  51.194  48.505  1.00  0.00     0.011 C 
ENDBRANCH  34  35
ENDBRANCH  33  34
ENDBRANCH  30  33
ENDBRANCH  24  27
ENDBRANCH  21  23
ENDBRANCH   1  21
TORSDOF 9
ENDMDL
MODEL 9
REMARK VINA RESULT:      -8.8      2.667     11.611
REMARK  9 active torsions:
REMARK  status: ('A' for Active; 'I' for Inactive)
REMARK    1  A    between atoms: C_3  and  O_4 
REMARK    2  A    between atoms: C_5  and  C_6 
REMARK    3  A    between atoms: C_16  and  N_17 
REMARK    4  A    between atoms: N_17  and  C_18 
REMARK    5  A    between atoms: C_18  and  N_19 
REMARK       I    between atoms: N_19  and  C_20 
REMARK    6  A    between atoms: C_20  and  C_21 
REMARK    7  A    between atoms: C_24  and  O_25 
REMARK    8  A    between atoms: O_25  and  C_26 
REMARK    9  A    between atoms: C_26  and  C_27 
ROOT
HETATM    1  N   UNL     1      22.913  46.515  48.957  1.00  0.00    -0.333 N 
HETATM    2  H   UNL     1      23.367  47.422  49.034  1.00  0.00     0.168 HD
ENDROOT
BRANCH   1   3
HETATM    3  C   UNL     1      21.562  46.547  48.556  1.00  0.00     0.035 A 
HETATM    4  C   UNL     1      20.715  47.643  48.721  1.00  0.00     0.048 A 
HETATM    5  C   UNL     1      19.387  47.626  48.248  1.00  0.00     0.053 A 
HETATM    6  C   UNL     1      18.928  46.479  47.576  1.00  0.00     0.086 A 
HETATM    7  C   UNL     1      19.762  45.366  47.402  1.00  0.00    -0.026 A 
HETATM    8  C   UNL     1      19.305  44.147  46.646  1.00  0.00     0.051 C 
HETATM    9  C   UNL     1      21.079  45.421  47.882  1.00  0.00     0.039 A 
BRANCH   5  10
HETATM   10  C   UNL     1      18.568  48.813  48.489  1.00  0.00     0.183 A 
HETATM   11  O   UNL     1      19.183  49.873  49.112  1.00  0.00    -0.289 OA
HETATM   12  C   UNL     1      18.194  50.806  49.226  1.00  0.00     0.106 A 
HETATM   13  C   UNL     1      17.045  50.280  48.659  1.00  0.00     0.093 A 
HETATM   14  C   UNL     1      18.289  52.067  49.801  1.00  0.00     0.040 A 
HETATM   15  N   UNL     1      17.296  49.013  48.192  1.00  0.00    -0.221 NA
HETATM   16  C   UNL     1      15.879  51.054  48.648  1.00  0.00     0.034 A 
HETATM   17  C   UNL     1      15.932  52.335  49.218  1.00  0.00     0.002 A 
HETATM   18  C   UNL     1      17.115  52.830  49.784  1.00  0.00     0.003 A 
ENDBRANCH   5  10
BRANCH   6  19
HETATM   19  O   UNL     1      17.663  46.382  47.055  1.00  0.00    -0.359 OA
HETATM   20  H   UNL     1      17.474  47.173  46.517  1.00  0.00     0.218 HD
ENDBRANCH   6  19
ENDBRANCH   1   3
BRANCH   1  21
HETATM   21  C   UNL     1      23.714  45.504  49.423  1.00  0.00     0.179 C 
HETATM   22  S   UNL     1      23.913  44.189  48.410  1.00  0.00    -0.040 SA
BRANCH  21  23
HETATM   23  N   UNL     1      24.197  45.637  50.707  1.00  0.00    -0.299 N 
HETATM   24  C   UNL     1      24.963  46.677  51.226  1.00  0.00     0.257 C 
HETATM   25  O   UNL     1      24.933  47.842  50.851  1.00  0.00    -0.267 OA
HETATM   26  H   UNL     1      24.284  44.746  51.171  1.00  0.00     0.171 HD
BRANCH  24  27
HETATM   27  C   UNL     1      25.830  46.327  52.381  1.00  0.00     0.032 A 
HETATM   28  C   UNL     1      26.117  47.228  53.413  1.00  0.00     0.020 A 
HETATM   29  C   UNL     1      26.918  46.826  54.491  1.00  0.00     0.038 A 
HETATM   30  C   UNL     1      27.436  45.531  54.539  1.00  0.00     0.068 A 
HETATM   31  C   UNL     1      27.184  44.652  53.485  1.00  0.00     0.038 A 
HETATM   32  C   UNL     1      26.384  45.042  52.411  1.00  0.00     0.020 A 
BRANCH  30  33
HETATM   33  O   UNL     1      28.218  45.015  55.533  1.00  0.00    -0.351 OA
BRANCH  33  34
HETATM   34  C   UNL     1      29.423  45.703  55.875  1.00  0.00     0.179 C 
BRANCH  34  35
HETATM   35  C   UNL     1      30.637  44.761  55.945  1.00  0.00     0.002 C 
HETATM   36  C   UNL     1      31.001  44.422  57.392  1.00  0.00     0.011 C 
HETATM   37  C   UNL     1      30.362  43.483  55.153  1.00  0.00     0.011 C 
ENDBRANCH  34  35
ENDBRANCH  33  34
ENDBRANCH  30  33
ENDBRANCH  24  27
ENDBRANCH  21  23
ENDBRANCH   1  21
TORSDOF 9
ENDMDL
MODEL 10
REMARK VINA RESULT:      -8.8      2.635      4.067
REMARK  9 active torsions:
REMARK  status: ('A' for Active; 'I' for Inactive)
REMARK    1  A    between atoms: C_3  and  O_4 
REMARK    2  A    between atoms: C_5  and  C_6 
REMARK    3  A    between atoms: C_16  and  N_17 
REMARK    4  A    between atoms: N_17  and  C_18 
REMARK    5  A    between atoms: C_18  and  N_19 
REMARK       I    between atoms: N_19  and  C_20 
REMARK    6  A    between atoms: C_20  and  C_21 
REMARK    7  A    between atoms: C_24  and  O_25 
REMARK    8  A    between atoms: O_25  and  C_26 
REMARK    9  A    between atoms: C_26  and  C_27 
ROOT
HETATM    1  N   UNL     1      24.088  47.382  49.672  1.00  0.00    -0.333 N 
HETATM    2  H   UNL     1      24.482  48.294  49.452  1.00  0.00     0.168 HD
ENDROOT
BRANCH   1   3
HETATM    3  C   UNL     1      24.903  46.548  50.465  1.00  0.00     0.035 A 
HETATM    4  C   UNL     1      25.465  45.348  50.029  1.00  0.00     0.048 A 
HETATM    5  C   UNL     1      26.314  44.588  50.859  1.00  0.00     0.053 A 
HETATM    6  C   UNL     1      26.611  45.076  52.144  1.00  0.00     0.086 A 
HETATM    7  C   UNL     1      26.054  46.278  52.602  1.00  0.00    -0.026 A 
HETATM    8  C   UNL     1      26.394  46.840  53.956  1.00  0.00     0.051 C 
HETATM    9  C   UNL     1      25.217  47.010  51.747  1.00  0.00     0.039 A 
BRANCH   5  10
HETATM   10  C   UNL     1      26.836  43.332  50.322  1.00  0.00     0.183 A 
HETATM   11  O   UNL     1      27.275  42.404  51.235  1.00  0.00    -0.289 OA
HETATM   12  C   UNL     1      27.719  41.368  50.465  1.00  0.00     0.106 A 
HETATM   13  C   UNL     1      27.516  41.709  49.138  1.00  0.00     0.093 A 
HETATM   14  C   UNL     1      28.279  40.175  50.901  1.00  0.00     0.040 A 
HETATM   15  N   UNL     1      26.951  42.958  49.059  1.00  0.00    -0.221 NA
HETATM   16  C   UNL     1      27.889  40.800  48.140  1.00  0.00     0.034 A 
HETATM   17  C   UNL     1      28.459  39.581  48.538  1.00  0.00     0.002 A 
HETATM   18  C   UNL     1      28.651  39.277  49.893  1.00  0.00     0.003 A 
ENDBRANCH   5  10
BRANCH   6  19
HETATM   19  O   UNL     1      27.449  44.422  53.010  1.00  0.00    -0.359 OA
HETATM   20  H   UNL     1      27.281  43.463  52.959  1.00  0.00     0.218 HD
ENDBRANCH   6  19
ENDBRANCH   1   3
BRANCH   1  21
HETATM   21  C   UNL     1      22.918  47.157  48.994  1.00  0.00     0.179 C 
HETATM   22  S   UNL     1      22.653  45.589  48.475  1.00  0.00    -0.040 SA
BRANCH  21  23
HETATM   23  N   UNL     1      22.129  48.256  48.735  1.00  0.00    -0.299 N 
HETATM   24  C   UNL     1      22.225  49.526  49.298  1.00  0.00     0.257 C 
HETATM   25  O   UNL     1      23.254  50.049  49.707  1.00  0.00    -0.267 OA
HETATM   26  H   UNL     1      21.222  47.994  48.380  1.00  0.00     0.171 HD
BRANCH  24  27
HETATM   27  C   UNL     1      20.967  50.317  49.325  1.00  0.00     0.032 A 
HETATM   28  C   UNL     1      20.796  51.491  48.583  1.00  0.00     0.020 A 
HETATM   29  C   UNL     1      19.573  52.176  48.629  1.00  0.00     0.038 A 
HETATM   30  C   UNL     1      18.526  51.695  49.417  1.00  0.00     0.068 A 
HETATM   31  C   UNL     1      18.720  50.550  50.190  1.00  0.00     0.038 A 
HETATM   32  C   UNL     1      19.931  49.860  50.147  1.00  0.00     0.020 A 
BRANCH  30  33
HETATM   33  O   UNL     1      17.289  52.261  49.540  1.00  0.00    -0.351 OA
BRANCH  33  34
HETATM   34  C   UNL     1      16.147  51.487  49.165  1.00  0.00     0.179 C 
BRANCH  34  35
HETATM   35  C   UNL     1      16.131  51.157  47.663  1.00  0.00     0.002 C 
HETATM   36  C   UNL     1      15.518  49.779  47.399  1.00  0.00     0.011 C 
HETATM   37  C   UNL     1      15.370  52.233  46.890  1.00  0.00     0.011 C 
ENDBRANCH  34  35
ENDBRANCH  33  34
ENDBRANCH  30  33
ENDBRANCH  24  27
ENDBRANCH  21  23
ENDBRANCH   1  21
TORSDOF 9
ENDMDL
