MODEL 1
REMARK VINA RESULT:      -6.7      0.000      0.000
REMARK  2 active torsions:
REMARK  status: ('A' for Active; 'I' for Inactive)
REMARK    1  A    between atoms: N_6  and  C_7 
REMARK    2  A    between atoms: C_11  and  N_12 
ROOT
HETATM    1  C   UNL     1      27.426  44.576  52.947  1.00  0.00     0.070 A 
HETATM    2  C   UNL     1      27.021  45.740  53.636  1.00  0.00     0.145 A 
HETATM    3  F   UNL     1      26.038  46.510  53.144  1.00  0.00    -0.204 F 
HETATM    4  C   UNL     1      27.636  46.172  54.809  1.00  0.00     0.082 A 
HETATM    5  C   UNL     1      28.694  45.425  55.324  1.00  0.00     0.123 A 
HETATM    6  C   UNL     1      29.133  44.264  54.697  1.00  0.00     0.046 A 
HETATM    7 BR   UNL     1      30.538  43.180  55.364  1.00  0.00    -0.048 Br
HETATM    8  C   UNL     1      28.491  43.849  53.520  1.00  0.00     0.054 A 
ENDROOT
BRANCH   1   9
HETATM    9  N   UNL     1      26.807  44.093  51.790  1.00  0.00    -0.375 N 
HETATM   10  C   UNL     1      27.247  44.616  50.478  1.00  0.00     0.150 C 
HETATM   11  C   UNL     1      26.285  45.715  49.971  1.00  0.00     0.254 C 
HETATM   12  N   UNL     1      24.843  45.206  49.955  1.00  0.00    -0.072 N 
HETATM   13  C   UNL     1      23.890  46.233  49.424  1.00  0.00     0.269 C 
HETATM   14  H   UNL     1      24.813  44.398  49.320  1.00  0.00     0.279 HD
HETATM   15  C   UNL     1      24.427  44.699  51.341  1.00  0.00     0.254 C 
HETATM   16  C   UNL     1      25.410  43.612  51.822  1.00  0.00     0.150 C 
ENDBRANCH   1   9
BRANCH   5  17
HETATM   17  N   UNL     1      29.325  45.907  56.528  1.00  0.00    -0.114 N 
HETATM   18  O   UNL     1      28.604  46.027  57.523  1.00  0.00    -0.532 OA
HETATM   19  O   UNL     1      30.521  46.214  56.443  1.00  0.00    -0.532 OA
ENDBRANCH   5  17
TORSDOF 2
ENDMDL
MODEL 2
REMARK VINA RESULT:      -6.7      1.132      1.925
REMARK  2 active torsions:
REMARK  status: ('A' for Active; 'I' for Inactive)
REMARK    1  A    between atoms: N_6  and  C_7 
REMARK    2  A    between atoms: C_11  and  N_12 
ROOT
HETATM    1  C   UNL     1      26.820  45.618  53.245  1.00  0.00     0.070 A 
HETATM    2  C   UNL     1      26.765  46.694  54.159  1.00  0.00     0.145 A 
HETATM    3  F   UNL     1      25.901  47.703  53.966  1.00  0.00    -0.204 F 
HETATM    4  C   UNL     1      27.616  46.793  55.257  1.00  0.00     0.082 A 
HETATM    5  C   UNL     1      28.561  45.789  55.463  1.00  0.00     0.123 A 
HETATM    6  C   UNL     1      28.659  44.700  54.605  1.00  0.00     0.046 A 
HETATM    7 BR   UNL     1      29.893  43.281  54.849  1.00  0.00    -0.048 Br
HETATM    8  C   UNL     1      27.785  44.623  53.510  1.00  0.00     0.054 A 
ENDROOT
BRANCH   1   9
HETATM    9  N   UNL     1      25.957  45.469  52.156  1.00  0.00    -0.375 N 
HETATM   10  C   UNL     1      24.991  44.349  52.164  1.00  0.00     0.150 C 
HETATM   11  C   UNL     1      25.511  43.165  51.316  1.00  0.00     0.254 C 
HETATM   12  N   UNL     1      25.872  43.629  49.904  1.00  0.00    -0.072 N 
HETATM   13  C   UNL     1      26.337  42.496  49.041  1.00  0.00     0.269 C 
HETATM   14  H   UNL     1      25.016  44.010  49.481  1.00  0.00     0.279 HD
HETATM   15  C   UNL     1      26.893  44.772  49.949  1.00  0.00     0.254 C 
HETATM   16  C   UNL     1      26.349  45.932  50.809  1.00  0.00     0.150 C 
ENDBRANCH   1   9
BRANCH   5  17
HETATM   17  N   UNL     1      29.443  45.928  56.596  1.00  0.00    -0.114 N 
HETATM   18  O   UNL     1      28.910  46.010  57.708  1.00  0.00    -0.532 OA
HETATM   19  O   UNL     1      30.653  46.011  56.351  1.00  0.00    -0.532 OA
ENDBRANCH   5  17
TORSDOF 2
ENDMDL
MODEL 3
REMARK VINA RESULT:      -6.6      2.120      2.566
REMARK  2 active torsions:
REMARK  status: ('A' for Active; 'I' for Inactive)
REMARK    1  A    between atoms: N_6  and  C_7 
REMARK    2  A    between atoms: C_11  and  N_12 
ROOT
HETATM    1  C   UNL     1      27.749  43.680  52.579  1.00  0.00     0.070 A 
HETATM    2  C   UNL     1      28.838  42.783  52.630  1.00  0.00     0.145 A 
HETATM    3  F   UNL     1      28.965  41.818  51.705  1.00  0.00    -0.204 F 
HETATM    4  C   UNL     1      29.792  42.814  53.645  1.00  0.00     0.082 A 
HETATM    5  C   UNL     1      29.667  43.770  54.650  1.00  0.00     0.123 A 
HETATM    6  C   UNL     1      28.622  44.688  54.652  1.00  0.00     0.046 A 
HETATM    7 BR   UNL     1      28.415  46.038  55.966  1.00  0.00    -0.048 Br
HETATM    8  C   UNL     1      27.678  44.637  53.614  1.00  0.00     0.054 A 
ENDROOT
BRANCH   1   9
HETATM    9  N   UNL     1      26.797  43.701  51.556  1.00  0.00    -0.375 N 
HETATM   10  C   UNL     1      27.163  44.304  50.256  1.00  0.00     0.150 C 
HETATM   11  C   UNL     1      26.627  45.750  50.148  1.00  0.00     0.254 C 
HETATM   12  N   UNL     1      25.122  45.790  50.419  1.00  0.00    -0.072 N 
HETATM   13  C   UNL     1      24.562  47.172  50.276  1.00  0.00     0.269 C 
HETATM   14  H   UNL     1      24.669  45.198  49.711  1.00  0.00     0.279 HD
HETATM   15  C   UNL     1      24.797  45.177  51.786  1.00  0.00     0.254 C 
HETATM   16  C   UNL     1      25.352  43.740  51.866  1.00  0.00     0.150 C 
ENDBRANCH   1   9
BRANCH   5  17
HETATM   17  N   UNL     1      30.657  43.766  55.700  1.00  0.00    -0.114 N 
HETATM   18  O   UNL     1      31.425  44.733  55.742  1.00  0.00    -0.532 OA
HETATM   19  O   UNL     1      30.689  42.768  56.430  1.00  0.00    -0.532 OA
ENDBRANCH   5  17
TORSDOF 2
ENDMDL
MODEL 4
REMARK VINA RESULT:      -6.4      4.703      6.627
REMARK  2 active torsions:
REMARK  status: ('A' for Active; 'I' for Inactive)
REMARK    1  A    between atoms: N_6  and  C_7 
REMARK    2  A    between atoms: C_11  and  N_12 
ROOT
HETATM    1  C   UNL     1      25.193  45.883  49.885  1.00  0.00     0.070 A 
HETATM    2  C   UNL     1      23.900  46.344  49.556  1.00  0.00     0.145 A 
HETATM    3  F   UNL     1      22.849  45.511  49.618  1.00  0.00    -0.204 F 
HETATM    4  C   UNL     1      23.653  47.640  49.112  1.00  0.00     0.082 A 
HETATM    5  C   UNL     1      24.726  48.520  48.987  1.00  0.00     0.123 A 
HETATM    6  C   UNL     1      26.022  48.131  49.304  1.00  0.00     0.046 A 
HETATM    7 BR   UNL     1      27.520  49.288  49.196  1.00  0.00    -0.048 Br
HETATM    8  C   UNL     1      26.242  46.820  49.755  1.00  0.00     0.054 A 
ENDROOT
BRANCH   1   9
HETATM    9  N   UNL     1      25.471  44.602  50.369  1.00  0.00    -0.375 N 
HETATM   10  C   UNL     1      24.932  44.209  51.689  1.00  0.00     0.150 C 
HETATM   11  C   UNL     1      26.008  44.351  52.790  1.00  0.00     0.254 C 
HETATM   12  N   UNL     1      27.273  43.579  52.411  1.00  0.00    -0.072 N 
HETATM   13  C   UNL     1      28.320  43.657  53.479  1.00  0.00     0.269 C 
HETATM   14  H   UNL     1      27.007  42.590  52.309  1.00  0.00     0.279 HD
HETATM   15  C   UNL     1      27.806  44.039  51.049  1.00  0.00     0.254 C 
HETATM   16  C   UNL     1      26.707  43.895  49.976  1.00  0.00     0.150 C 
ENDBRANCH   1   9
BRANCH   5  17
HETATM   17  N   UNL     1      24.444  49.851  48.505  1.00  0.00    -0.114 N 
HETATM   18  O   UNL     1      23.905  50.627  49.301  1.00  0.00    -0.532 OA
HETATM   19  O   UNL     1      24.712  50.080  47.319  1.00  0.00    -0.532 OA
ENDBRANCH   5  17
TORSDOF 2
ENDMDL
MODEL 5
REMARK VINA RESULT:      -6.4     14.019     14.829
REMARK  2 active torsions:
REMARK  status: ('A' for Active; 'I' for Inactive)
REMARK    1  A    between atoms: N_6  and  C_7 
REMARK    2  A    between atoms: C_11  and  N_12 
ROOT
HETATM    1  C   UNL     1      30.602  52.235  40.613  1.00  0.00     0.070 A 
HETATM    2  C   UNL     1      31.657  52.024  39.698  1.00  0.00     0.145 A 
HETATM    3  F   UNL     1      31.425  52.064  38.376  1.00  0.00    -0.204 F 
HETATM    4  C   UNL     1      32.955  51.720  40.103  1.00  0.00     0.082 A 
HETATM    5  C   UNL     1      33.224  51.621  41.466  1.00  0.00     0.123 A 
HETATM    6  C   UNL     1      32.231  51.827  42.417  1.00  0.00     0.046 A 
HETATM    7 BR   UNL     1      32.538  51.747  44.286  1.00  0.00    -0.048 Br
HETATM    8  C   UNL     1      30.933  52.137  41.982  1.00  0.00     0.054 A 
ENDROOT
BRANCH   1   9
HETATM    9  N   UNL     1      29.299  52.578  40.243  1.00  0.00    -0.375 N 
HETATM   10  C   UNL     1      28.216  52.432  41.239  1.00  0.00     0.150 C 
HETATM   11  C   UNL     1      27.433  51.117  41.015  1.00  0.00     0.254 C 
HETATM   12  N   UNL     1      26.931  51.026  39.573  1.00  0.00    -0.072 N 
HETATM   13  C   UNL     1      26.128  49.784  39.335  1.00  0.00     0.269 C 
HETATM   14  H   UNL     1      26.311  51.831  39.416  1.00  0.00     0.279 HD
HETATM   15  C   UNL     1      28.092  51.158  38.581  1.00  0.00     0.254 C 
HETATM   16  C   UNL     1      28.858  52.473  38.837  1.00  0.00     0.150 C 
ENDBRANCH   1   9
BRANCH   5  17
HETATM   17  N   UNL     1      34.572  51.285  41.856  1.00  0.00    -0.114 N 
HETATM   18  O   UNL     1      35.355  52.227  42.013  1.00  0.00    -0.532 OA
HETATM   19  O   UNL     1      34.841  50.081  41.941  1.00  0.00    -0.532 OA
ENDBRANCH   5  17
TORSDOF 2
ENDMDL
MODEL 6
REMARK VINA RESULT:      -6.4      5.227      7.139
REMARK  2 active torsions:
REMARK  status: ('A' for Active; 'I' for Inactive)
REMARK    1  A    between atoms: N_6  and  C_7 
REMARK    2  A    between atoms: C_11  and  N_12 
ROOT
HETATM    1  C   UNL     1      24.611  46.216  49.899  1.00  0.00     0.070 A 
HETATM    2  C   UNL     1      25.586  47.238  49.898  1.00  0.00     0.145 A 
HETATM    3  F   UNL     1      26.801  47.014  50.422  1.00  0.00    -0.204 F 
HETATM    4  C   UNL     1      25.333  48.518  49.412  1.00  0.00     0.082 A 
HETATM    5  C   UNL     1      24.067  48.803  48.905  1.00  0.00     0.123 A 
HETATM    6  C   UNL     1      23.067  47.838  48.870  1.00  0.00     0.046 A 
HETATM    7 BR   UNL     1      21.337  48.147  48.158  1.00  0.00    -0.048 Br
HETATM    8  C   UNL     1      23.351  46.554  49.361  1.00  0.00     0.054 A 
ENDROOT
BRANCH   1   9
HETATM    9  N   UNL     1      24.842  44.911  50.343  1.00  0.00    -0.375 N 
HETATM   10  C   UNL     1      24.782  44.633  51.794  1.00  0.00     0.150 C 
HETATM   11  C   UNL     1      26.199  44.595  52.409  1.00  0.00     0.254 C 
HETATM   12  N   UNL     1      27.090  43.608  51.652  1.00  0.00    -0.072 N 
HETATM   13  C   UNL     1      28.459  43.512  52.251  1.00  0.00     0.269 C 
HETATM   14  H   UNL     1      26.652  42.681  51.729  1.00  0.00     0.279 HD
HETATM   15  C   UNL     1      27.140  43.952  50.158  1.00  0.00     0.254 C 
HETATM   16  C   UNL     1      25.711  43.993  49.578  1.00  0.00     0.150 C 
ENDBRANCH   1   9
BRANCH   5  17
HETATM   17  N   UNL     1      23.827  50.143  48.428  1.00  0.00    -0.114 N 
HETATM   18  O   UNL     1      23.436  50.968  49.261  1.00  0.00    -0.532 OA
HETATM   19  O   UNL     1      23.975  50.336  47.215  1.00  0.00    -0.532 OA
ENDBRANCH   5  17
TORSDOF 2
ENDMDL
MODEL 7
REMARK VINA RESULT:      -6.4     12.810     13.832
REMARK  2 active torsions:
REMARK  status: ('A' for Active; 'I' for Inactive)
REMARK    1  A    between atoms: N_6  and  C_7 
REMARK    2  A    between atoms: C_11  and  N_12 
ROOT
HETATM    1  C   UNL     1      32.632  50.810  42.886  1.00  0.00     0.070 A 
HETATM    2  C   UNL     1      32.956  51.605  44.008  1.00  0.00     0.145 A 
HETATM    3  F   UNL     1      32.012  51.917  44.910  1.00  0.00    -0.204 F 
HETATM    4  C   UNL     1      34.226  52.137  44.212  1.00  0.00     0.082 A 
HETATM    5  C   UNL     1      35.220  51.875  43.271  1.00  0.00     0.123 A 
HETATM    6  C   UNL     1      34.967  51.093  42.150  1.00  0.00     0.046 A 
HETATM    7 BR   UNL     1      36.282  50.665  40.852  1.00  0.00    -0.048 Br
HETATM    8  C   UNL     1      33.679  50.564  41.972  1.00  0.00     0.054 A 
ENDROOT
BRANCH   1   9
HETATM    9  N   UNL     1      31.380  50.229  42.670  1.00  0.00    -0.375 N 
HETATM   10  C   UNL     1      31.277  48.754  42.635  1.00  0.00     0.150 C 
HETATM   11  C   UNL     1      31.248  48.237  41.179  1.00  0.00     0.254 C 
HETATM   12  N   UNL     1      30.141  48.929  40.382  1.00  0.00    -0.072 N 
HETATM   13  C   UNL     1      30.055  48.417  38.977  1.00  0.00     0.269 C 
HETATM   14  H   UNL     1      29.249  48.711  40.846  1.00  0.00     0.279 HD
HETATM   15  C   UNL     1      30.305  50.453  40.428  1.00  0.00     0.254 C 
HETATM   16  C   UNL     1      30.340  50.936  41.893  1.00  0.00     0.150 C 
ENDBRANCH   1   9
BRANCH   5  17
HETATM   17  N   UNL     1      36.521  52.457  43.496  1.00  0.00    -0.114 N 
HETATM   18  O   UNL     1      37.315  51.795  44.173  1.00  0.00    -0.532 OA
HETATM   19  O   UNL     1      36.708  53.593  43.043  1.00  0.00    -0.532 OA
ENDBRANCH   5  17
TORSDOF 2
ENDMDL
MODEL 8
REMARK VINA RESULT:      -6.2     14.404     15.760
REMARK  2 active torsions:
REMARK  status: ('A' for Active; 'I' for Inactive)
REMARK    1  A    between atoms: N_6  and  C_7 
REMARK    2  A    between atoms: C_11  and  N_12 
ROOT
HETATM    1  C   UNL     1      30.023  51.923  40.359  1.00  0.00     0.070 A 
HETATM    2  C   UNL     1      29.084  52.596  39.547  1.00  0.00     0.145 A 
HETATM    3  F   UNL     1      29.173  53.924  39.368  1.00  0.00    -0.204 F 
HETATM    4  C   UNL     1      28.011  51.947  38.941  1.00  0.00     0.082 A 
HETATM    5  C   UNL     1      27.858  50.578  39.143  1.00  0.00     0.123 A 
HETATM    6  C   UNL     1      28.753  49.856  39.923  1.00  0.00     0.046 A 
HETATM    7 BR   UNL     1      28.626  47.985  40.207  1.00  0.00    -0.048 Br
HETATM    8  C   UNL     1      29.829  50.534  40.518  1.00  0.00     0.054 A 
ENDROOT
BRANCH   1   9
HETATM    9  N   UNL     1      31.132  52.535  40.950  1.00  0.00    -0.375 N 
HETATM   10  C   UNL     1      32.330  52.788  40.121  1.00  0.00     0.150 C 
HETATM   11  C   UNL     1      33.400  51.695  40.348  1.00  0.00     0.254 C 
HETATM   12  N   UNL     1      33.725  51.559  41.836  1.00  0.00    -0.072 N 
HETATM   13  C   UNL     1      34.793  50.539  42.087  1.00  0.00     0.269 C 
HETATM   14  H   UNL     1      34.084  52.468  42.154  1.00  0.00     0.279 HD
HETATM   15  C   UNL     1      32.456  51.273  42.648  1.00  0.00     0.254 C 
HETATM   16  C   UNL     1      31.407  52.374  42.393  1.00  0.00     0.150 C 
ENDBRANCH   1   9
BRANCH   5  17
HETATM   17  N   UNL     1      26.726  49.935  38.520  1.00  0.00    -0.114 N 
HETATM   18  O   UNL     1      26.838  49.650  37.324  1.00  0.00    -0.532 OA
HETATM   19  O   UNL     1      25.720  49.780  39.223  1.00  0.00    -0.532 OA
ENDBRANCH   5  17
TORSDOF 2
ENDMDL
MODEL 9
REMARK VINA RESULT:      -6.1      8.230     10.066
REMARK  2 active torsions:
REMARK  status: ('A' for Active; 'I' for Inactive)
REMARK    1  A    between atoms: N_6  and  C_7 
REMARK    2  A    between atoms: C_11  and  N_12 
ROOT
HETATM    1  C   UNL     1      19.818  49.636  49.289  1.00  0.00     0.070 A 
HETATM    2  C   UNL     1      20.532  50.852  49.218  1.00  0.00     0.145 A 
HETATM    3  F   UNL     1      19.896  52.022  49.385  1.00  0.00    -0.204 F 
HETATM    4  C   UNL     1      21.893  50.909  48.928  1.00  0.00     0.082 A 
HETATM    5  C   UNL     1      22.579  49.718  48.700  1.00  0.00     0.123 A 
HETATM    6  C   UNL     1      21.934  48.488  48.765  1.00  0.00     0.046 A 
HETATM    7 BR   UNL     1      22.814  46.828  48.505  1.00  0.00    -0.048 Br
HETATM    8  C   UNL     1      20.563  48.459  49.064  1.00  0.00     0.054 A 
ENDROOT
BRANCH   1   9
HETATM    9  N   UNL     1      18.462  49.541  49.614  1.00  0.00    -0.375 N 
HETATM   10  C   UNL     1      17.870  48.199  49.805  1.00  0.00     0.150 C 
HETATM   11  C   UNL     1      17.117  47.741  48.535  1.00  0.00     0.254 C 
HETATM   12  N   UNL     1      16.088  48.790  48.109  1.00  0.00    -0.072 N 
HETATM   13  C   UNL     1      15.308  48.356  46.907  1.00  0.00     0.269 C 
HETATM   14  H   UNL     1      15.424  48.897  48.887  1.00  0.00     0.279 HD
HETATM   15  C   UNL     1      16.754  50.155  47.900  1.00  0.00     0.254 C 
HETATM   16  C   UNL     1      17.503  50.578  49.181  1.00  0.00     0.150 C 
ENDBRANCH   1   9
BRANCH   5  17
HETATM   17  N   UNL     1      23.983  49.808  48.382  1.00  0.00    -0.114 N 
HETATM   18  O   UNL     1      24.270  50.118  47.221  1.00  0.00    -0.532 OA
HETATM   19  O   UNL     1      24.777  49.509  49.283  1.00  0.00    -0.532 OA
ENDBRANCH   5  17
TORSDOF 2
ENDMDL
MODEL 10
REMARK VINA RESULT:      -6.0      2.168      3.017
REMARK  2 active torsions:
REMARK  status: ('A' for Active; 'I' for Inactive)
REMARK    1  A    between atoms: N_6  and  C_7 
REMARK    2  A    between atoms: C_11  and  N_12 
ROOT
HETATM    1  C   UNL     1      26.577  45.280  52.555  1.00  0.00     0.070 A 
HETATM    2  C   UNL     1      27.568  44.378  52.999  1.00  0.00     0.145 A 
HETATM    3  F   UNL     1      27.775  43.223  52.347  1.00  0.00    -0.204 F 
HETATM    4  C   UNL     1      28.336  44.605  54.139  1.00  0.00     0.082 A 
HETATM    5  C   UNL     1      28.117  45.770  54.871  1.00  0.00     0.123 A 
HETATM    6  C   UNL     1      27.162  46.702  54.481  1.00  0.00     0.046 A 
HETATM    7 BR   UNL     1      26.840  48.325  55.407  1.00  0.00    -0.048 Br
HETATM    8  C   UNL     1      26.406  46.450  53.325  1.00  0.00     0.054 A 
ENDROOT
BRANCH   1   9
HETATM    9  N   UNL     1      25.816  45.101  51.396  1.00  0.00    -0.375 N 
HETATM   10  C   UNL     1      24.550  44.342  51.487  1.00  0.00     0.150 C 
HETATM   11  C   UNL     1      24.747  42.882  51.021  1.00  0.00     0.254 C 
HETATM   12  N   UNL     1      25.366  42.839  49.622  1.00  0.00    -0.072 N 
HETATM   13  C   UNL     1      25.528  41.437  49.121  1.00  0.00     0.269 C 
HETATM   14  H   UNL     1      24.717  43.323  48.988  1.00  0.00     0.279 HD
HETATM   15  C   UNL     1      26.686  43.618  49.586  1.00  0.00     0.254 C 
HETATM   16  C   UNL     1      26.458  45.067  50.066  1.00  0.00     0.150 C 
ENDBRANCH   1   9
BRANCH   5  17
HETATM   17  N   UNL     1      28.911  45.970  56.059  1.00  0.00    -0.114 N 
HETATM   18  O   UNL     1      30.131  46.082  55.898  1.00  0.00    -0.532 OA
HETATM   19  O   UNL     1      28.309  45.952  57.139  1.00  0.00    -0.532 OA
ENDBRANCH   5  17
TORSDOF 2
ENDMDL
