MODEL 1
REMARK VINA RESULT:      -8.7      0.000      0.000
REMARK  4 active torsions:
REMARK  status: ('A' for Active; 'I' for Inactive)
REMARK    1  A    between atoms: C_2  and  N_3 
REMARK    2  A    between atoms: C_2  and  C_14 
REMARK    3  A    between atoms: N_3  and  C_6 
REMARK    4  A    between atoms: C_6  and  C_7 
ROOT
HETATM    1  C   UNL     1      28.449  41.014  51.346  1.00  0.00     0.048 C 
HETATM    2  C   UNL     1      27.742  41.466  52.616  1.00  0.00     0.251 C 
ENDROOT
BRANCH   2   3
HETATM    3  N   UNL     1      28.769  41.581  53.715  1.00  0.00    -0.060 N 
HETATM    4  H   UNL     1      28.338  41.745  54.632  1.00  0.00     0.278 HD
HETATM    5  H   UNL     1      29.236  40.660  53.767  1.00  0.00     0.278 HD
BRANCH   3   6
HETATM    6  C   UNL     1      29.836  42.594  53.482  1.00  0.00     0.271 C 
BRANCH   6   7
HETATM    7  C   UNL     1      29.991  43.488  54.680  1.00  0.00    -0.033 A 
HETATM    8  C   UNL     1      29.195  44.638  54.816  1.00  0.00     0.010 A 
HETATM    9  C   UNL     1      29.365  45.489  55.912  1.00  0.00     0.024 A 
HETATM   10  C   UNL     1      30.328  45.199  56.875  1.00  0.00     0.034 A 
HETATM   11 CL   UNL     1      30.535  46.247  58.220  1.00  0.00    -0.084 Cl
HETATM   12  C   UNL     1      31.126  44.064  56.751  1.00  0.00     0.024 A 
HETATM   13  C   UNL     1      30.962  43.212  55.655  1.00  0.00     0.010 A 
ENDBRANCH   6   7
ENDBRANCH   3   6
ENDBRANCH   2   3
BRANCH   2  14
HETATM   14  C   UNL     1      27.069  42.824  52.385  1.00  0.00     0.138 A 
HETATM   15  N   UNL     1      27.363  43.481  51.305  1.00  0.00    -0.232 NA
HETATM   16  C   UNL     1      26.725  44.724  51.106  1.00  0.00     0.074 A 
HETATM   17  C   UNL     1      25.819  45.261  52.028  1.00  0.00     0.061 A 
HETATM   18  C   UNL     1      27.007  45.451  49.949  1.00  0.00     0.032 A 
HETATM   19  C   UNL     1      25.533  44.469  53.234  1.00  0.00     0.259 A 
HETATM   20  C   UNL     1      25.205  46.497  51.815  1.00  0.00     0.019 A 
HETATM   21  O   UNL     1      24.769  44.844  54.113  1.00  0.00    -0.267 OA
HETATM   22  N   UNL     1      26.187  43.265  53.329  1.00  0.00    -0.309 N 
HETATM   23  H   UNL     1      25.958  42.744  54.165  1.00  0.00     0.170 HD
HETATM   24  C   UNL     1      25.499  47.212  50.657  1.00  0.00     0.001 A 
HETATM   25  C   UNL     1      26.397  46.690  49.724  1.00  0.00     0.002 A 
ENDBRANCH   2  14
TORSDOF 4
ENDMDL
MODEL 2
REMARK VINA RESULT:      -8.3      3.524      7.374
REMARK  4 active torsions:
REMARK  status: ('A' for Active; 'I' for Inactive)
REMARK    1  A    between atoms: C_2  and  N_3 
REMARK    2  A    between atoms: C_2  and  C_14 
REMARK    3  A    between atoms: N_3  and  C_6 
REMARK    4  A    between atoms: C_6  and  C_7 
ROOT
HETATM    1  C   UNL     1      25.785  47.304  53.355  1.00  0.00     0.048 C 
HETATM    2  C   UNL     1      25.682  45.823  53.020  1.00  0.00     0.251 C 
ENDROOT
BRANCH   2   3
HETATM    3  N   UNL     1      25.598  45.682  51.520  1.00  0.00    -0.060 N 
HETATM    4  H   UNL     1      25.744  44.713  51.214  1.00  0.00     0.278 HD
HETATM    5  H   UNL     1      24.627  45.930  51.264  1.00  0.00     0.278 HD
BRANCH   3   6
HETATM    6  C   UNL     1      26.493  46.587  50.746  1.00  0.00     0.271 C 
BRANCH   6   7
HETATM    7  C   UNL     1      25.689  47.585  49.962  1.00  0.00    -0.033 A 
HETATM    8  C   UNL     1      26.329  48.636  49.284  1.00  0.00     0.010 A 
HETATM    9  C   UNL     1      25.579  49.586  48.584  1.00  0.00     0.024 A 
HETATM   10  C   UNL     1      24.190  49.493  48.558  1.00  0.00     0.034 A 
HETATM   11 CL   UNL     1      23.270  50.662  47.699  1.00  0.00    -0.084 Cl
HETATM   12  C   UNL     1      23.542  48.458  49.228  1.00  0.00     0.024 A 
HETATM   13  C   UNL     1      24.288  47.508  49.932  1.00  0.00     0.010 A 
ENDBRANCH   6   7
ENDBRANCH   3   6
ENDBRANCH   2   3
BRANCH   2  14
HETATM   14  C   UNL     1      26.916  45.080  53.546  1.00  0.00     0.138 A 
HETATM   15  N   UNL     1      27.632  45.650  54.467  1.00  0.00    -0.232 NA
HETATM   16  C   UNL     1      28.756  44.945  54.945  1.00  0.00     0.074 A 
HETATM   17  C   UNL     1      29.121  43.686  54.453  1.00  0.00     0.061 A 
HETATM   18  C   UNL     1      29.541  45.522  55.945  1.00  0.00     0.032 A 
HETATM   19  C   UNL     1      28.270  43.097  53.407  1.00  0.00     0.259 A 
HETATM   20  C   UNL     1      30.243  43.009  54.935  1.00  0.00     0.019 A 
HETATM   21  O   UNL     1      28.498  42.010  52.895  1.00  0.00    -0.267 OA
HETATM   22  N   UNL     1      27.188  43.850  53.021  1.00  0.00    -0.309 N 
HETATM   23  H   UNL     1      26.621  43.409  52.308  1.00  0.00     0.170 HD
HETATM   24  C   UNL     1      31.018  43.599  55.931  1.00  0.00     0.001 A 
HETATM   25  C   UNL     1      30.667  44.852  56.436  1.00  0.00     0.002 A 
ENDBRANCH   2  14
TORSDOF 4
ENDMDL
MODEL 3
REMARK VINA RESULT:      -8.3      3.090      4.634
REMARK  4 active torsions:
REMARK  status: ('A' for Active; 'I' for Inactive)
REMARK    1  A    between atoms: C_2  and  N_3 
REMARK    2  A    between atoms: C_2  and  C_14 
REMARK    3  A    between atoms: N_3  and  C_6 
REMARK    4  A    between atoms: C_6  and  C_7 
ROOT
HETATM    1  C   UNL     1      24.556  44.517  50.999  1.00  0.00     0.048 C 
HETATM    2  C   UNL     1      25.668  45.519  51.274  1.00  0.00     0.251 C 
ENDROOT
BRANCH   2   3
HETATM    3  N   UNL     1      26.986  44.871  50.928  1.00  0.00    -0.060 N 
HETATM    4  H   UNL     1      27.153  44.850  49.915  1.00  0.00     0.278 HD
HETATM    5  H   UNL     1      27.718  45.477  51.336  1.00  0.00     0.278 HD
BRANCH   3   6
HETATM    6  C   UNL     1      27.190  43.508  51.492  1.00  0.00     0.271 C 
BRANCH   6   7
HETATM    7  C   UNL     1      28.187  43.541  52.616  1.00  0.00    -0.033 A 
HETATM    8  C   UNL     1      29.370  42.787  52.538  1.00  0.00     0.010 A 
HETATM    9  C   UNL     1      30.280  42.789  53.600  1.00  0.00     0.024 A 
HETATM   10  C   UNL     1      30.014  43.541  54.742  1.00  0.00     0.034 A 
HETATM   11 CL   UNL     1      31.133  43.542  56.045  1.00  0.00    -0.084 Cl
HETATM   12  C   UNL     1      28.844  44.291  54.833  1.00  0.00     0.024 A 
HETATM   13  C   UNL     1      27.929  44.289  53.775  1.00  0.00     0.010 A 
ENDBRANCH   6   7
ENDBRANCH   3   6
ENDBRANCH   2   3
BRANCH   2  14
HETATM   14  C   UNL     1      25.463  46.775  50.419  1.00  0.00     0.138 A 
HETATM   15  N   UNL     1      24.249  47.125  50.119  1.00  0.00    -0.232 NA
HETATM   16  C   UNL     1      24.082  48.290  49.341  1.00  0.00     0.074 A 
HETATM   17  C   UNL     1      25.164  49.049  48.880  1.00  0.00     0.061 A 
HETATM   18  C   UNL     1      22.791  48.703  49.011  1.00  0.00     0.032 A 
HETATM   19  C   UNL     1      26.514  48.596  49.251  1.00  0.00     0.259 A 
HETATM   20  C   UNL     1      24.976  50.195  48.104  1.00  0.00     0.019 A 
HETATM   21  O   UNL     1      27.532  49.173  48.895  1.00  0.00    -0.267 OA
HETATM   22  N   UNL     1      26.574  47.464  50.026  1.00  0.00    -0.309 N 
HETATM   23  H   UNL     1      27.517  47.190  50.269  1.00  0.00     0.170 HD
HETATM   24  C   UNL     1      23.681  50.593  47.781  1.00  0.00     0.001 A 
HETATM   25  C   UNL     1      22.590  49.850  48.235  1.00  0.00     0.002 A 
ENDBRANCH   2  14
TORSDOF 4
ENDMDL
MODEL 4
REMARK VINA RESULT:      -8.3      2.700      3.848
REMARK  4 active torsions:
REMARK  status: ('A' for Active; 'I' for Inactive)
REMARK    1  A    between atoms: C_2  and  N_3 
REMARK    2  A    between atoms: C_2  and  C_14 
REMARK    3  A    between atoms: N_3  and  C_6 
REMARK    4  A    between atoms: C_6  and  C_7 
ROOT
HETATM    1  C   UNL     1      24.931  43.721  50.842  1.00  0.00     0.048 C 
HETATM    2  C   UNL     1      24.969  44.985  51.691  1.00  0.00     0.251 C 
ENDROOT
BRANCH   2   3
HETATM    3  N   UNL     1      26.242  44.973  52.501  1.00  0.00    -0.060 N 
HETATM    4  H   UNL     1      27.003  45.480  52.035  1.00  0.00     0.278 HD
HETATM    5  H   UNL     1      26.031  45.489  53.371  1.00  0.00     0.278 HD
BRANCH   3   6
HETATM    6  C   UNL     1      26.723  43.622  52.906  1.00  0.00     0.271 C 
BRANCH   6   7
HETATM    7  C   UNL     1      27.907  43.734  53.825  1.00  0.00    -0.033 A 
HETATM    8  C   UNL     1      28.098  44.891  54.599  1.00  0.00     0.010 A 
HETATM    9  C   UNL     1      29.219  45.010  55.426  1.00  0.00     0.024 A 
HETATM   10  C   UNL     1      30.153  43.979  55.485  1.00  0.00     0.034 A 
HETATM   11 CL   UNL     1      31.530  44.129  56.501  1.00  0.00    -0.084 Cl
HETATM   12  C   UNL     1      29.977  42.829  54.720  1.00  0.00     0.024 A 
HETATM   13  C   UNL     1      28.860  42.706  53.889  1.00  0.00     0.010 A 
ENDBRANCH   6   7
ENDBRANCH   3   6
ENDBRANCH   2   3
BRANCH   2  14
HETATM   14  C   UNL     1      24.937  46.223  50.787  1.00  0.00     0.138 A 
HETATM   15  N   UNL     1      26.053  46.843  50.551  1.00  0.00    -0.232 NA
HETATM   16  C   UNL     1      26.003  47.973  49.708  1.00  0.00     0.074 A 
HETATM   17  C   UNL     1      24.809  48.443  49.148  1.00  0.00     0.061 A 
HETATM   18  C   UNL     1      27.186  48.656  49.422  1.00  0.00     0.032 A 
HETATM   19  C   UNL     1      23.579  47.698  49.459  1.00  0.00     0.259 A 
HETATM   20  C   UNL     1      24.781  49.569  48.323  1.00  0.00     0.019 A 
HETATM   21  O   UNL     1      22.478  48.023  49.036  1.00  0.00    -0.267 OA
HETATM   22  N   UNL     1      23.731  46.602  50.271  1.00  0.00    -0.309 N 
HETATM   23  H   UNL     1      22.866  46.109  50.454  1.00  0.00     0.170 HD
HETATM   24  C   UNL     1      25.970  50.241  48.049  1.00  0.00     0.001 A 
HETATM   25  C   UNL     1      27.170  49.785  48.596  1.00  0.00     0.002 A 
ENDBRANCH   2  14
TORSDOF 4
ENDMDL
MODEL 5
REMARK VINA RESULT:      -8.2      3.366      5.435
REMARK  4 active torsions:
REMARK  status: ('A' for Active; 'I' for Inactive)
REMARK    1  A    between atoms: C_2  and  N_3 
REMARK    2  A    between atoms: C_2  and  C_14 
REMARK    3  A    between atoms: N_3  and  C_6 
REMARK    4  A    between atoms: C_6  and  C_7 
ROOT
HETATM    1  C   UNL     1      28.110  40.659  53.604  1.00  0.00     0.048 C 
HETATM    2  C   UNL     1      28.156  41.422  52.288  1.00  0.00     0.251 C 
ENDROOT
BRANCH   2   3
HETATM    3  N   UNL     1      29.282  42.424  52.361  1.00  0.00    -0.060 N 
HETATM    4  H   UNL     1      30.072  42.079  52.918  1.00  0.00     0.278 HD
HETATM    5  H   UNL     1      29.628  42.535  51.393  1.00  0.00     0.278 HD
BRANCH   3   6
HETATM    6  C   UNL     1      28.894  43.781  52.838  1.00  0.00     0.271 C 
BRANCH   6   7
HETATM    7  C   UNL     1      29.500  44.064  54.184  1.00  0.00    -0.033 A 
HETATM    8  C   UNL     1      30.470  43.200  54.721  1.00  0.00     0.010 A 
HETATM    9  C   UNL     1      31.007  43.443  55.989  1.00  0.00     0.024 A 
HETATM   10  C   UNL     1      30.580  44.545  56.726  1.00  0.00     0.034 A 
HETATM   11 CL   UNL     1      31.240  44.840  58.285  1.00  0.00    -0.084 Cl
HETATM   12  C   UNL     1      29.617  45.407  56.207  1.00  0.00     0.024 A 
HETATM   13  C   UNL     1      29.074  45.166  54.941  1.00  0.00     0.010 A 
ENDBRANCH   6   7
ENDBRANCH   3   6
ENDBRANCH   2   3
BRANCH   2  14
HETATM   14  C   UNL     1      28.396  40.450  51.127  1.00  0.00     0.138 A 
HETATM   15  N   UNL     1      27.815  40.690  49.992  1.00  0.00    -0.232 NA
HETATM   16  C   UNL     1      28.058  39.789  48.934  1.00  0.00     0.074 A 
HETATM   17  C   UNL     1      28.874  38.662  49.077  1.00  0.00     0.061 A 
HETATM   18  C   UNL     1      27.460  40.025  47.695  1.00  0.00     0.032 A 
HETATM   19  C   UNL     1      29.499  38.443  50.391  1.00  0.00     0.259 A 
HETATM   20  C   UNL     1      29.094  37.778  48.019  1.00  0.00     0.019 A 
HETATM   21  O   UNL     1      30.221  37.486  50.636  1.00  0.00    -0.267 OA
HETATM   22  N   UNL     1      29.219  39.384  51.351  1.00  0.00    -0.309 N 
HETATM   23  H   UNL     1      29.675  39.206  52.237  1.00  0.00     0.170 HD
HETATM   24  C   UNL     1      28.488  38.025  46.789  1.00  0.00     0.001 A 
HETATM   25  C   UNL     1      27.674  39.147  46.626  1.00  0.00     0.002 A 
ENDBRANCH   2  14
TORSDOF 4
ENDMDL
MODEL 6
REMARK VINA RESULT:      -8.2      2.576      6.268
REMARK  4 active torsions:
REMARK  status: ('A' for Active; 'I' for Inactive)
REMARK    1  A    between atoms: C_2  and  N_3 
REMARK    2  A    between atoms: C_2  and  C_14 
REMARK    3  A    between atoms: N_3  and  C_6 
REMARK    4  A    between atoms: C_6  and  C_7 
ROOT
HETATM    1  C   UNL     1      28.735  42.214  52.218  1.00  0.00     0.048 C 
HETATM    2  C   UNL     1      27.984  43.477  52.618  1.00  0.00     0.251 C 
ENDROOT
BRANCH   2   3
HETATM    3  N   UNL     1      26.539  43.114  52.853  1.00  0.00    -0.060 N 
HETATM    4  H   UNL     1      26.427  42.135  53.139  1.00  0.00     0.278 HD
HETATM    5  H   UNL     1      26.225  43.693  53.650  1.00  0.00     0.278 HD
BRANCH   3   6
HETATM    6  C   UNL     1      25.619  43.407  51.718  1.00  0.00     0.271 C 
BRANCH   6   7
HETATM    7  C   UNL     1      25.904  44.764  51.140  1.00  0.00    -0.033 A 
HETATM    8  C   UNL     1      26.706  44.893  49.993  1.00  0.00     0.010 A 
HETATM    9  C   UNL     1      27.001  46.158  49.476  1.00  0.00     0.024 A 
HETATM   10  C   UNL     1      26.500  47.298  50.100  1.00  0.00     0.034 A 
HETATM   11 CL   UNL     1      26.866  48.852  49.464  1.00  0.00    -0.084 Cl
HETATM   12  C   UNL     1      25.707  47.185  51.239  1.00  0.00     0.024 A 
HETATM   13  C   UNL     1      25.412  45.922  51.762  1.00  0.00     0.010 A 
ENDBRANCH   6   7
ENDBRANCH   3   6
ENDBRANCH   2   3
BRANCH   2  14
HETATM   14  C   UNL     1      28.591  44.063  53.898  1.00  0.00     0.138 A 
HETATM   15  N   UNL     1      29.529  43.395  54.497  1.00  0.00    -0.232 NA
HETATM   16  C   UNL     1      30.080  43.957  55.668  1.00  0.00     0.074 A 
HETATM   17  C   UNL     1      29.642  45.177  56.196  1.00  0.00     0.061 A 
HETATM   18  C   UNL     1      31.100  43.273  56.331  1.00  0.00     0.032 A 
HETATM   19  C   UNL     1      28.573  45.882  55.472  1.00  0.00     0.259 A 
HETATM   20  C   UNL     1      30.197  45.712  57.361  1.00  0.00     0.019 A 
HETATM   21  O   UNL     1      28.103  46.947  55.847  1.00  0.00    -0.267 OA
HETATM   22  N   UNL     1      28.114  45.265  54.334  1.00  0.00    -0.309 N 
HETATM   23  H   UNL     1      27.387  45.784  53.858  1.00  0.00     0.170 HD
HETATM   24  C   UNL     1      31.212  45.015  58.013  1.00  0.00     0.001 A 
HETATM   25  C   UNL     1      31.665  43.799  57.498  1.00  0.00     0.002 A 
ENDBRANCH   2  14
TORSDOF 4
ENDMDL
MODEL 7
REMARK VINA RESULT:      -8.2      1.750      1.982
REMARK  4 active torsions:
REMARK  status: ('A' for Active; 'I' for Inactive)
REMARK    1  A    between atoms: C_2  and  N_3 
REMARK    2  A    between atoms: C_2  and  C_14 
REMARK    3  A    between atoms: N_3  and  C_6 
REMARK    4  A    between atoms: C_6  and  C_7 
ROOT
HETATM    1  C   UNL     1      28.116  40.728  50.242  1.00  0.00     0.048 C 
HETATM    2  C   UNL     1      26.908  40.896  51.153  1.00  0.00     0.251 C 
ENDROOT
BRANCH   2   3
HETATM    3  N   UNL     1      27.383  40.843  52.584  1.00  0.00    -0.060 N 
HETATM    4  H   UNL     1      26.813  41.431  53.203  1.00  0.00     0.278 HD
HETATM    5  H   UNL     1      27.246  39.866  52.894  1.00  0.00     0.278 HD
BRANCH   3   6
HETATM    6  C   UNL     1      28.824  41.161  52.787  1.00  0.00     0.271 C 
BRANCH   6   7
HETATM    7  C   UNL     1      28.982  42.367  53.669  1.00  0.00    -0.033 A 
HETATM    8  C   UNL     1      27.892  43.223  53.904  1.00  0.00     0.010 A 
HETATM    9  C   UNL     1      28.049  44.366  54.695  1.00  0.00     0.024 A 
HETATM   10  C   UNL     1      29.290  44.660  55.253  1.00  0.00     0.034 A 
HETATM   11 CL   UNL     1      29.481  46.065  56.223  1.00  0.00    -0.084 Cl
HETATM   12  C   UNL     1      30.379  43.822  55.026  1.00  0.00     0.024 A 
HETATM   13  C   UNL     1      30.229  42.681  54.233  1.00  0.00     0.010 A 
ENDBRANCH   6   7
ENDBRANCH   3   6
ENDBRANCH   2   3
BRANCH   2  14
HETATM   14  C   UNL     1      26.230  42.243  50.878  1.00  0.00     0.138 A 
HETATM   15  N   UNL     1      26.977  43.255  50.557  1.00  0.00    -0.232 NA
HETATM   16  C   UNL     1      26.331  44.483  50.297  1.00  0.00     0.074 A 
HETATM   17  C   UNL     1      24.943  44.639  50.390  1.00  0.00     0.061 A 
HETATM   18  C   UNL     1      27.103  45.589  49.937  1.00  0.00     0.032 A 
HETATM   19  C   UNL     1      24.154  43.454  50.763  1.00  0.00     0.259 A 
HETATM   20  C   UNL     1      24.326  45.865  50.137  1.00  0.00     0.019 A 
HETATM   21  O   UNL     1      22.938  43.475  50.887  1.00  0.00    -0.267 OA
HETATM   22  N   UNL     1      24.870  42.301  50.977  1.00  0.00    -0.309 N 
HETATM   23  H   UNL     1      24.293  41.506  51.220  1.00  0.00     0.170 HD
HETATM   24  C   UNL     1      25.110  46.960  49.781  1.00  0.00     0.001 A 
HETATM   25  C   UNL     1      26.495  46.823  49.679  1.00  0.00     0.002 A 
ENDBRANCH   2  14
TORSDOF 4
ENDMDL
MODEL 8
REMARK VINA RESULT:      -7.9      6.247      9.977
REMARK  4 active torsions:
REMARK  status: ('A' for Active; 'I' for Inactive)
REMARK    1  A    between atoms: C_2  and  N_3 
REMARK    2  A    between atoms: C_2  and  C_14 
REMARK    3  A    between atoms: N_3  and  C_6 
REMARK    4  A    between atoms: C_6  and  C_7 
ROOT
HETATM    1  C   UNL     1      22.305  47.783  47.970  1.00  0.00     0.048 C 
HETATM    2  C   UNL     1      23.273  48.439  48.944  1.00  0.00     0.251 C 
ENDROOT
BRANCH   2   3
HETATM    3  N   UNL     1      22.511  49.456  49.757  1.00  0.00    -0.060 N 
HETATM    4  H   UNL     1      21.672  49.054  50.192  1.00  0.00     0.278 HD
HETATM    5  H   UNL     1      23.141  49.733  50.529  1.00  0.00     0.278 HD
BRANCH   3   6
HETATM    6  C   UNL     1      22.144  50.703  49.031  1.00  0.00     0.271 C 
BRANCH   6   7
HETATM    7  C   UNL     1      20.685  51.013  49.213  1.00  0.00    -0.033 A 
HETATM    8  C   UNL     1      19.897  50.239  50.081  1.00  0.00     0.010 A 
HETATM    9  C   UNL     1      18.531  50.504  50.222  1.00  0.00     0.024 A 
HETATM   10  C   UNL     1      17.946  51.540  49.499  1.00  0.00     0.034 A 
HETATM   11 CL   UNL     1      16.268  51.864  49.673  1.00  0.00    -0.084 Cl
HETATM   12  C   UNL     1      18.715  52.314  48.633  1.00  0.00     0.024 A 
HETATM   13  C   UNL     1      20.080  52.050  48.485  1.00  0.00     0.010 A 
ENDBRANCH   6   7
ENDBRANCH   3   6
ENDBRANCH   2   3
BRANCH   2  14
HETATM   14  C   UNL     1      23.882  47.379  49.870  1.00  0.00     0.138 A 
HETATM   15  N   UNL     1      24.699  47.769  50.799  1.00  0.00    -0.232 NA
HETATM   16  C   UNL     1      25.239  46.779  51.647  1.00  0.00     0.074 A 
HETATM   17  C   UNL     1      24.938  45.419  51.505  1.00  0.00     0.061 A 
HETATM   18  C   UNL     1      26.112  47.164  52.666  1.00  0.00     0.032 A 
HETATM   19  C   UNL     1      24.008  45.043  50.429  1.00  0.00     0.259 A 
HETATM   20  C   UNL     1      25.490  44.455  52.351  1.00  0.00     0.019 A 
HETATM   21  O   UNL     1      23.682  43.885  50.204  1.00  0.00    -0.267 OA
HETATM   22  N   UNL     1      23.520  46.078  49.670  1.00  0.00    -0.309 N 
HETATM   23  H   UNL     1      22.876  45.781  48.947  1.00  0.00     0.170 HD
HETATM   24  C   UNL     1      26.362  44.855  53.361  1.00  0.00     0.001 A 
HETATM   25  C   UNL     1      26.671  46.207  53.520  1.00  0.00     0.002 A 
ENDBRANCH   2  14
TORSDOF 4
ENDMDL
MODEL 9
REMARK VINA RESULT:      -7.9      3.163      6.281
REMARK  4 active torsions:
REMARK  status: ('A' for Active; 'I' for Inactive)
REMARK    1  A    between atoms: C_2  and  N_3 
REMARK    2  A    between atoms: C_2  and  C_14 
REMARK    3  A    between atoms: N_3  and  C_6 
REMARK    4  A    between atoms: C_6  and  C_7 
ROOT
HETATM    1  C   UNL     1      25.569  45.402  51.334  1.00  0.00     0.048 C 
HETATM    2  C   UNL     1      25.564  44.377  52.460  1.00  0.00     0.251 C 
ENDROOT
BRANCH   2   3
HETATM    3  N   UNL     1      25.693  43.003  51.851  1.00  0.00    -0.060 N 
HETATM    4  H   UNL     1      26.393  42.429  52.334  1.00  0.00     0.278 HD
HETATM    5  H   UNL     1      24.780  42.540  51.996  1.00  0.00     0.278 HD
BRANCH   3   6
HETATM    6  C   UNL     1      25.960  42.981  50.385  1.00  0.00     0.271 C 
BRANCH   6   7
HETATM    7  C   UNL     1      26.916  41.876  50.036  1.00  0.00    -0.033 A 
HETATM    8  C   UNL     1      27.182  41.565  48.692  1.00  0.00     0.010 A 
HETATM    9  C   UNL     1      28.043  40.513  48.367  1.00  0.00     0.024 A 
HETATM   10  C   UNL     1      28.642  39.767  49.379  1.00  0.00     0.034 A 
HETATM   11 CL   UNL     1      29.699  38.473  48.978  1.00  0.00    -0.084 Cl
HETATM   12  C   UNL     1      28.385  40.062  50.716  1.00  0.00     0.024 A 
HETATM   13  C   UNL     1      27.521  41.111  51.046  1.00  0.00     0.010 A 
ENDBRANCH   6   7
ENDBRANCH   3   6
ENDBRANCH   2   3
BRANCH   2  14
HETATM   14  C   UNL     1      26.738  44.639  53.411  1.00  0.00     0.138 A 
HETATM   15  N   UNL     1      27.619  43.701  53.575  1.00  0.00    -0.232 NA
HETATM   16  C   UNL     1      28.697  43.966  54.446  1.00  0.00     0.074 A 
HETATM   17  C   UNL     1      28.828  45.178  55.134  1.00  0.00     0.061 A 
HETATM   18  C   UNL     1      29.670  42.984  54.635  1.00  0.00     0.032 A 
HETATM   19  C   UNL     1      27.793  46.199  54.908  1.00  0.00     0.259 A 
HETATM   20  C   UNL     1      29.899  45.417  55.998  1.00  0.00     0.019 A 
HETATM   21  O   UNL     1      27.798  47.288  55.464  1.00  0.00    -0.267 OA
HETATM   22  N   UNL     1      26.795  45.855  54.029  1.00  0.00    -0.309 N 
HETATM   23  H   UNL     1      26.108  46.585  53.891  1.00  0.00     0.170 HD
HETATM   24  C   UNL     1      30.861  44.426  56.179  1.00  0.00     0.001 A 
HETATM   25  C   UNL     1      30.748  43.213  55.498  1.00  0.00     0.002 A 
ENDBRANCH   2  14
TORSDOF 4
ENDMDL
MODEL 10
REMARK VINA RESULT:      -7.8      4.731      8.369
REMARK  4 active torsions:
REMARK  status: ('A' for Active; 'I' for Inactive)
REMARK    1  A    between atoms: C_2  and  N_3 
REMARK    2  A    between atoms: C_2  and  C_14 
REMARK    3  A    between atoms: N_3  and  C_6 
REMARK    4  A    between atoms: C_6  and  C_7 
ROOT
HETATM    1  C   UNL     1      23.919  44.655  50.673  1.00  0.00     0.048 C 
HETATM    2  C   UNL     1      24.811  45.886  50.594  1.00  0.00     0.251 C 
ENDROOT
BRANCH   2   3
HETATM    3  N   UNL     1      23.932  47.097  50.395  1.00  0.00    -0.060 N 
HETATM    4  H   UNL     1      23.186  47.154  51.099  1.00  0.00     0.278 HD
HETATM    5  H   UNL     1      24.541  47.919  50.542  1.00  0.00     0.278 HD
BRANCH   3   6
HETATM    6  C   UNL     1      23.340  47.235  49.035  1.00  0.00     0.271 C 
BRANCH   6   7
HETATM    7  C   UNL     1      22.474  48.460  48.954  1.00  0.00    -0.033 A 
HETATM    8  C   UNL     1      21.079  48.337  48.836  1.00  0.00     0.010 A 
HETATM    9  C   UNL     1      20.276  49.476  48.724  1.00  0.00     0.024 A 
HETATM   10  C   UNL     1      20.859  50.741  48.728  1.00  0.00     0.034 A 
HETATM   11 CL   UNL     1      19.871  52.139  48.589  1.00  0.00    -0.084 Cl
HETATM   12  C   UNL     1      22.240  50.877  48.842  1.00  0.00     0.024 A 
HETATM   13  C   UNL     1      23.048  49.741  48.951  1.00  0.00     0.010 A 
ENDBRANCH   6   7
ENDBRANCH   3   6
ENDBRANCH   2   3
BRANCH   2  14
HETATM   14  C   UNL     1      25.616  46.033  51.890  1.00  0.00     0.138 A 
HETATM   15  N   UNL     1      26.517  45.138  52.161  1.00  0.00    -0.232 NA
HETATM   16  C   UNL     1      27.254  45.297  53.353  1.00  0.00     0.074 A 
HETATM   17  C   UNL     1      27.033  46.358  54.239  1.00  0.00     0.061 A 
HETATM   18  C   UNL     1      28.239  44.361  53.668  1.00  0.00     0.032 A 
HETATM   19  C   UNL     1      25.995  47.336  53.877  1.00  0.00     0.259 A 
HETATM   20  C   UNL     1      27.769  46.492  55.418  1.00  0.00     0.019 A 
HETATM   21  O   UNL     1      25.708  48.295  54.579  1.00  0.00    -0.267 OA
HETATM   22  N   UNL     1      25.346  47.107  52.688  1.00  0.00    -0.309 N 
HETATM   23  H   UNL     1      24.647  47.805  52.468  1.00  0.00     0.170 HD
HETATM   24  C   UNL     1      28.747  45.548  55.720  1.00  0.00     0.001 A 
HETATM   25  C   UNL     1      28.984  44.485  54.847  1.00  0.00     0.002 A 
ENDBRANCH   2  14
TORSDOF 4
ENDMDL
