MODEL 1
REMARK VINA RESULT:      -8.0      0.000      0.000
REMARK  8 active torsions:
REMARK  status: ('A' for Active; 'I' for Inactive)
REMARK    1  A    between atoms: C_2  and  C_3 
REMARK    2  A    between atoms: C_3  and  N_4 
REMARK    3  A    between atoms: C_7  and  C_8 
REMARK       I    between atoms: C_8  and  N_9 
REMARK    4  A    between atoms: N_9  and  N_10 
REMARK       I    between atoms: N_10  and  C_11 
REMARK    5  A    between atoms: C_11  and  C_12 
REMARK    6  A    between atoms: C_15  and  O_16 
REMARK    7  A    between atoms: O_16  and  C_17 
REMARK    8  A    between atoms: C_23  and  C_24 
ROOT
HETATM    1  C   UNL     1      24.681  46.261  49.847  1.00  0.00     0.273 C 
HETATM    2  N   UNL     1      24.573  46.058  51.206  1.00  0.00    -0.263 N 
HETATM    3  O   UNL     1      25.774  46.246  49.280  1.00  0.00    -0.266 OA
HETATM    4  H   UNL     1      23.711  46.156  51.730  1.00  0.00     0.190 HD
ENDROOT
BRANCH   2   5
HETATM    5  N   UNL     1      25.769  45.874  51.920  1.00  0.00    -0.263 N 
HETATM    6  C   UNL     1      26.010  46.677  53.020  1.00  0.00     0.270 C 
HETATM    7  O   UNL     1      25.397  47.710  53.261  1.00  0.00    -0.266 OA
HETATM    8  H   UNL     1      26.072  44.898  51.951  1.00  0.00     0.190 HD
BRANCH   6   9
HETATM    9  C   UNL     1      27.057  46.159  53.949  1.00  0.00     0.033 A 
HETATM   10  C   UNL     1      27.606  46.967  54.953  1.00  0.00     0.020 A 
HETATM   11  C   UNL     1      28.660  46.487  55.733  1.00  0.00     0.038 A 
HETATM   12  C   UNL     1      29.174  45.205  55.526  1.00  0.00     0.068 A 
HETATM   13  C   UNL     1      28.584  44.377  54.571  1.00  0.00     0.038 A 
HETATM   14  C   UNL     1      27.528  44.852  53.783  1.00  0.00     0.020 A 
BRANCH  12  15
HETATM   15  O   UNL     1      30.239  44.888  56.320  1.00  0.00    -0.352 OA
BRANCH  15  16
HETATM   16  C   UNL     1      31.014  43.752  55.941  1.00  0.00     0.171 C 
HETATM   17  C   UNL     1      31.795  43.295  57.162  1.00  0.00     0.034 C 
ENDBRANCH  15  16
ENDBRANCH  12  15
ENDBRANCH   6   9
ENDBRANCH   2   5
BRANCH   1  18
HETATM   18  C   UNL     1      23.466  46.625  49.161  1.00  0.00     0.077 A 
HETATM   19  C   UNL     1      22.478  45.678  48.808  1.00  0.00     0.158 A 
HETATM   20  N   UNL     1      21.403  46.228  48.256  1.00  0.00    -0.183 NA
HETATM   21  N   UNL     1      21.670  47.548  48.275  1.00  0.00    -0.268 N 
HETATM   22  C   UNL     1      22.905  47.851  48.826  1.00  0.00     0.052 A 
BRANCH  21  23
HETATM   23  C   UNL     1      20.626  48.483  47.849  1.00  0.00     0.106 C 
HETATM   24  C   UNL     1      19.790  48.906  49.060  1.00  0.00     0.034 C 
BRANCH  23  25
HETATM   25  C   UNL     1      19.706  47.938  46.735  1.00  0.00     0.022 C 
HETATM   26  C   UNL     1      18.639  48.933  46.299  1.00  0.00     0.007 C 
ENDBRANCH  23  25
ENDBRANCH  21  23
BRANCH  22  27
HETATM   27  C   UNL     1      23.390  49.279  49.086  1.00  0.00     0.038 A 
HETATM   28  C   UNL     1      24.676  49.765  48.454  1.00  0.00     0.011 A 
HETATM   29  C   UNL     1      23.373  50.342  48.015  1.00  0.00     0.011 A 
ENDBRANCH  22  27
ENDBRANCH   1  18
TORSDOF 8
ENDMDL
MODEL 2
REMARK VINA RESULT:      -7.9      2.995      9.822
REMARK  8 active torsions:
REMARK  status: ('A' for Active; 'I' for Inactive)
REMARK    1  A    between atoms: C_2  and  C_3 
REMARK    2  A    between atoms: C_3  and  N_4 
REMARK    3  A    between atoms: C_7  and  C_8 
REMARK       I    between atoms: C_8  and  N_9 
REMARK    4  A    between atoms: N_9  and  N_10 
REMARK       I    between atoms: N_10  and  C_11 
REMARK    5  A    between atoms: C_11  and  C_12 
REMARK    6  A    between atoms: C_15  and  O_16 
REMARK    7  A    between atoms: O_16  and  C_17 
REMARK    8  A    between atoms: C_23  and  C_24 
ROOT
HETATM    1  C   UNL     1      25.181  47.249  50.263  1.00  0.00     0.273 C 
HETATM    2  N   UNL     1      23.808  47.190  50.165  1.00  0.00    -0.263 N 
HETATM    3  O   UNL     1      25.801  48.278  49.994  1.00  0.00    -0.266 OA
HETATM    4  H   UNL     1      23.264  46.341  50.283  1.00  0.00     0.190 HD
ENDROOT
BRANCH   2   5
HETATM    5  N   UNL     1      23.151  48.343  49.704  1.00  0.00    -0.263 N 
HETATM    6  C   UNL     1      22.502  48.289  48.484  1.00  0.00     0.270 C 
HETATM    7  O   UNL     1      22.680  47.406  47.653  1.00  0.00    -0.266 OA
HETATM    8  H   UNL     1      22.733  48.894  50.457  1.00  0.00     0.190 HD
BRANCH   6   9
HETATM    9  C   UNL     1      21.503  49.375  48.264  1.00  0.00     0.033 A 
HETATM   10  C   UNL     1      21.708  50.668  48.760  1.00  0.00     0.020 A 
HETATM   11  C   UNL     1      20.705  51.631  48.631  1.00  0.00     0.038 A 
HETATM   12  C   UNL     1      19.495  51.320  48.008  1.00  0.00     0.068 A 
HETATM   13  C   UNL     1      19.315  50.050  47.455  1.00  0.00     0.038 A 
HETATM   14  C   UNL     1      20.317  49.079  47.583  1.00  0.00     0.020 A 
BRANCH  12  15
HETATM   15  O   UNL     1      18.584  52.337  48.002  1.00  0.00    -0.352 OA
BRANCH  15  16
HETATM   16  C   UNL     1      17.258  52.022  48.426  1.00  0.00     0.171 C 
HETATM   17  C   UNL     1      17.111  52.482  49.867  1.00  0.00     0.034 C 
ENDBRANCH  15  16
ENDBRANCH  12  15
ENDBRANCH   6   9
ENDBRANCH   2   5
BRANCH   1  18
HETATM   18  C   UNL     1      25.850  46.007  50.565  1.00  0.00     0.077 A 
HETATM   19  C   UNL     1      26.519  45.244  49.581  1.00  0.00     0.158 A 
HETATM   20  N   UNL     1      27.137  44.180  50.079  1.00  0.00    -0.183 NA
HETATM   21  N   UNL     1      26.901  44.259  51.403  1.00  0.00    -0.268 N 
HETATM   22  C   UNL     1      26.135  45.357  51.759  1.00  0.00     0.052 A 
BRANCH  21  23
HETATM   23  C   UNL     1      27.553  43.295  52.292  1.00  0.00     0.106 C 
HETATM   24  C   UNL     1      29.028  43.669  52.462  1.00  0.00     0.034 C 
BRANCH  23  25
HETATM   25  C   UNL     1      27.429  41.826  51.832  1.00  0.00     0.022 C 
HETATM   26  C   UNL     1      28.511  40.924  52.410  1.00  0.00     0.007 C 
ENDBRANCH  23  25
ENDBRANCH  21  23
BRANCH  22  27
HETATM   27  C   UNL     1      25.838  45.749  53.209  1.00  0.00     0.038 A 
HETATM   28  C   UNL     1      26.925  46.367  54.060  1.00  0.00     0.011 A 
HETATM   29  C   UNL     1      25.749  47.188  53.652  1.00  0.00     0.011 A 
ENDBRANCH  22  27
ENDBRANCH   1  18
TORSDOF 8
ENDMDL
MODEL 3
REMARK VINA RESULT:      -7.9      2.487      3.785
REMARK  8 active torsions:
REMARK  status: ('A' for Active; 'I' for Inactive)
REMARK    1  A    between atoms: C_2  and  C_3 
REMARK    2  A    between atoms: C_3  and  N_4 
REMARK    3  A    between atoms: C_7  and  C_8 
REMARK       I    between atoms: C_8  and  N_9 
REMARK    4  A    between atoms: N_9  and  N_10 
REMARK       I    between atoms: N_10  and  C_11 
REMARK    5  A    between atoms: C_11  and  C_12 
REMARK    6  A    between atoms: C_15  and  O_16 
REMARK    7  A    between atoms: O_16  and  C_17 
REMARK    8  A    between atoms: C_23  and  C_24 
ROOT
HETATM    1  C   UNL     1      21.795  47.565  48.177  1.00  0.00     0.273 C 
HETATM    2  N   UNL     1      22.313  47.398  49.444  1.00  0.00    -0.263 N 
HETATM    3  O   UNL     1      22.288  47.000  47.202  1.00  0.00    -0.266 OA
HETATM    4  H   UNL     1      22.002  47.915  50.259  1.00  0.00     0.190 HD
ENDROOT
BRANCH   2   5
HETATM    5  N   UNL     1      23.453  46.585  49.564  1.00  0.00    -0.263 N 
HETATM    6  C   UNL     1      24.599  47.135  50.107  1.00  0.00     0.270 C 
HETATM    7  O   UNL     1      24.784  48.339  50.242  1.00  0.00    -0.266 OA
HETATM    8  H   UNL     1      23.230  45.610  49.775  1.00  0.00     0.190 HD
BRANCH   6   9
HETATM    9  C   UNL     1      25.602  46.137  50.583  1.00  0.00     0.033 A 
HETATM   10  C   UNL     1      26.292  45.311  49.687  1.00  0.00     0.020 A 
HETATM   11  C   UNL     1      27.140  44.314  50.172  1.00  0.00     0.038 A 
HETATM   12  C   UNL     1      27.313  44.131  51.545  1.00  0.00     0.068 A 
HETATM   13  C   UNL     1      26.676  44.995  52.437  1.00  0.00     0.038 A 
HETATM   14  C   UNL     1      25.822  45.997  51.958  1.00  0.00     0.020 A 
BRANCH  12  15
HETATM   15  O   UNL     1      28.125  43.085  51.878  1.00  0.00    -0.352 OA
BRANCH  15  16
HETATM   16  C   UNL     1      28.655  43.072  53.203  1.00  0.00     0.171 C 
HETATM   17  C   UNL     1      30.154  42.847  53.101  1.00  0.00     0.034 C 
ENDBRANCH  15  16
ENDBRANCH  12  15
ENDBRANCH   6   9
ENDBRANCH   2   5
BRANCH   1  18
HETATM   18  C   UNL     1      20.739  48.539  48.047  1.00  0.00     0.077 A 
HETATM   19  C   UNL     1      19.373  48.203  48.171  1.00  0.00     0.158 A 
HETATM   20  N   UNL     1      18.569  49.257  48.098  1.00  0.00    -0.183 NA
HETATM   21  N   UNL     1      19.411  50.297  47.956  1.00  0.00    -0.268 N 
HETATM   22  C   UNL     1      20.746  49.924  47.932  1.00  0.00     0.052 A 
BRANCH  21  23
HETATM   23  C   UNL     1      18.861  51.655  47.969  1.00  0.00     0.106 C 
HETATM   24  C   UNL     1      18.681  52.122  49.417  1.00  0.00     0.034 C 
BRANCH  23  25
HETATM   25  C   UNL     1      17.534  51.807  47.195  1.00  0.00     0.022 C 
HETATM   26  C   UNL     1      17.711  51.750  45.684  1.00  0.00     0.007 C 
ENDBRANCH  23  25
ENDBRANCH  21  23
BRANCH  22  27
HETATM   27  C   UNL     1      21.905  50.923  47.913  1.00  0.00     0.038 A 
HETATM   28  C   UNL     1      22.810  51.050  49.119  1.00  0.00     0.011 A 
HETATM   29  C   UNL     1      23.347  50.483  47.848  1.00  0.00     0.011 A 
ENDBRANCH  22  27
ENDBRANCH   1  18
TORSDOF 8
ENDMDL
MODEL 4
REMARK VINA RESULT:      -7.9      2.862      9.561
REMARK  8 active torsions:
REMARK  status: ('A' for Active; 'I' for Inactive)
REMARK    1  A    between atoms: C_2  and  C_3 
REMARK    2  A    between atoms: C_3  and  N_4 
REMARK    3  A    between atoms: C_7  and  C_8 
REMARK       I    between atoms: C_8  and  N_9 
REMARK    4  A    between atoms: N_9  and  N_10 
REMARK       I    between atoms: N_10  and  C_11 
REMARK    5  A    between atoms: C_11  and  C_12 
REMARK    6  A    between atoms: C_15  and  O_16 
REMARK    7  A    between atoms: O_16  and  C_17 
REMARK    8  A    between atoms: C_23  and  C_24 
ROOT
HETATM    1  C   UNL     1      24.650  44.642  50.707  1.00  0.00     0.273 C 
HETATM    2  N   UNL     1      24.941  45.870  50.155  1.00  0.00    -0.263 N 
HETATM    3  O   UNL     1      23.523  44.376  51.125  1.00  0.00    -0.266 OA
HETATM    4  H   UNL     1      25.873  46.167  49.886  1.00  0.00     0.190 HD
ENDROOT
BRANCH   2   5
HETATM    5  N   UNL     1      23.905  46.818  50.126  1.00  0.00    -0.263 N 
HETATM    6  C   UNL     1      24.195  48.098  49.691  1.00  0.00     0.270 C 
HETATM    7  O   UNL     1      25.332  48.544  49.584  1.00  0.00    -0.266 OA
HETATM    8  H   UNL     1      22.998  46.413  49.887  1.00  0.00     0.190 HD
BRANCH   6   9
HETATM    9  C   UNL     1      23.003  48.904  49.295  1.00  0.00     0.033 A 
HETATM   10  C   UNL     1      21.776  48.298  49.001  1.00  0.00     0.020 A 
HETATM   11  C   UNL     1      20.714  49.070  48.528  1.00  0.00     0.038 A 
HETATM   12  C   UNL     1      20.858  50.446  48.347  1.00  0.00     0.068 A 
HETATM   13  C   UNL     1      22.060  51.062  48.702  1.00  0.00     0.038 A 
HETATM   14  C   UNL     1      23.131  50.293  49.175  1.00  0.00     0.020 A 
BRANCH  12  15
HETATM   15  O   UNL     1      19.759  51.067  47.826  1.00  0.00    -0.352 OA
BRANCH  15  16
HETATM   16  C   UNL     1      19.368  52.302  48.424  1.00  0.00     0.171 C 
HETATM   17  C   UNL     1      18.658  51.981  49.728  1.00  0.00     0.034 C 
ENDBRANCH  15  16
ENDBRANCH  12  15
ENDBRANCH   6   9
ENDBRANCH   2   5
BRANCH   1  18
HETATM   18  C   UNL     1      25.767  43.747  50.891  1.00  0.00     0.077 A 
HETATM   19  C   UNL     1      26.404  43.093  49.813  1.00  0.00     0.158 A 
HETATM   20  N   UNL     1      27.458  42.378  50.186  1.00  0.00    -0.183 NA
HETATM   21  N   UNL     1      27.536  42.588  51.515  1.00  0.00    -0.268 N 
HETATM   22  C   UNL     1      26.541  43.423  51.997  1.00  0.00     0.052 A 
BRANCH  21  23
HETATM   23  C   UNL     1      28.680  42.040  52.247  1.00  0.00     0.106 C 
HETATM   24  C   UNL     1      28.181  41.204  53.429  1.00  0.00     0.034 C 
BRANCH  23  25
HETATM   25  C   UNL     1      29.684  43.105  52.740  1.00  0.00     0.022 C 
HETATM   26  C   UNL     1      30.003  42.989  54.224  1.00  0.00     0.007 C 
ENDBRANCH  23  25
ENDBRANCH  21  23
BRANCH  22  27
HETATM   27  C   UNL     1      26.483  43.924  53.443  1.00  0.00     0.038 A 
HETATM   28  C   UNL     1      26.942  45.328  53.773  1.00  0.00     0.011 A 
HETATM   29  C   UNL     1      25.498  44.975  53.892  1.00  0.00     0.011 A 
ENDBRANCH  22  27
ENDBRANCH   1  18
TORSDOF 8
ENDMDL
MODEL 5
REMARK VINA RESULT:      -7.5      2.316      3.763
REMARK  8 active torsions:
REMARK  status: ('A' for Active; 'I' for Inactive)
REMARK    1  A    between atoms: C_2  and  C_3 
REMARK    2  A    between atoms: C_3  and  N_4 
REMARK    3  A    between atoms: C_7  and  C_8 
REMARK       I    between atoms: C_8  and  N_9 
REMARK    4  A    between atoms: N_9  and  N_10 
REMARK       I    between atoms: N_10  and  C_11 
REMARK    5  A    between atoms: C_11  and  C_12 
REMARK    6  A    between atoms: C_15  and  O_16 
REMARK    7  A    between atoms: O_16  and  C_17 
REMARK    8  A    between atoms: C_23  and  C_24 
ROOT
HETATM    1  C   UNL     1      22.580  47.478  48.989  1.00  0.00     0.273 C 
HETATM    2  N   UNL     1      23.418  47.659  50.068  1.00  0.00    -0.263 N 
HETATM    3  O   UNL     1      22.598  46.439  48.329  1.00  0.00    -0.266 OA
HETATM    4  H   UNL     1      23.507  48.530  50.580  1.00  0.00     0.190 HD
ENDROOT
BRANCH   2   5
HETATM    5  N   UNL     1      24.321  46.622  50.355  1.00  0.00    -0.263 N 
HETATM    6  C   UNL     1      25.614  46.954  50.713  1.00  0.00     0.270 C 
HETATM    7  O   UNL     1      26.110  48.062  50.539  1.00  0.00    -0.266 OA
HETATM    8  H   UNL     1      23.878  45.819  50.808  1.00  0.00     0.190 HD
BRANCH   6   9
HETATM    9  C   UNL     1      26.370  45.863  51.395  1.00  0.00     0.033 A 
HETATM   10  C   UNL     1      27.068  44.893  50.666  1.00  0.00     0.020 A 
HETATM   11  C   UNL     1      27.673  43.824  51.330  1.00  0.00     0.038 A 
HETATM   12  C   UNL     1      27.593  43.712  52.720  1.00  0.00     0.068 A 
HETATM   13  C   UNL     1      26.954  44.714  53.452  1.00  0.00     0.038 A 
HETATM   14  C   UNL     1      26.343  45.787  52.792  1.00  0.00     0.020 A 
BRANCH  12  15
HETATM   15  O   UNL     1      28.179  42.590  53.231  1.00  0.00    -0.352 OA
BRANCH  15  16
HETATM   16  C   UNL     1      29.583  42.440  53.025  1.00  0.00     0.171 C 
HETATM   17  C   UNL     1      30.295  43.049  54.222  1.00  0.00     0.034 C 
ENDBRANCH  15  16
ENDBRANCH  12  15
ENDBRANCH   6   9
ENDBRANCH   2   5
BRANCH   1  18
HETATM   18  C   UNL     1      21.789  48.619  48.600  1.00  0.00     0.077 A 
HETATM   19  C   UNL     1      22.322  49.701  47.864  1.00  0.00     0.158 A 
HETATM   20  N   UNL     1      21.410  50.610  47.540  1.00  0.00    -0.183 NA
HETATM   21  N   UNL     1      20.263  50.109  48.037  1.00  0.00    -0.268 N 
HETATM   22  C   UNL     1      20.429  48.893  48.681  1.00  0.00     0.052 A 
BRANCH  21  23
HETATM   23  C   UNL     1      19.008  50.805  47.748  1.00  0.00     0.106 C 
HETATM   24  C   UNL     1      18.760  50.812  46.237  1.00  0.00     0.034 C 
BRANCH  23  25
HETATM   25  C   UNL     1      18.940  52.245  48.302  1.00  0.00     0.022 C 
HETATM   26  C   UNL     1      18.315  52.326  49.688  1.00  0.00     0.007 C 
ENDBRANCH  23  25
ENDBRANCH  21  23
BRANCH  22  27
HETATM   27  C   UNL     1      19.267  48.052  49.216  1.00  0.00     0.038 A 
HETATM   28  C   UNL     1      18.705  48.331  50.593  1.00  0.00     0.011 A 
HETATM   29  C   UNL     1      17.878  48.613  49.385  1.00  0.00     0.011 A 
ENDBRANCH  22  27
ENDBRANCH   1  18
TORSDOF 8
ENDMDL
MODEL 6
REMARK VINA RESULT:      -7.3     12.457     13.884
REMARK  8 active torsions:
REMARK  status: ('A' for Active; 'I' for Inactive)
REMARK    1  A    between atoms: C_2  and  C_3 
REMARK    2  A    between atoms: C_3  and  N_4 
REMARK    3  A    between atoms: C_7  and  C_8 
REMARK       I    between atoms: C_8  and  N_9 
REMARK    4  A    between atoms: N_9  and  N_10 
REMARK       I    between atoms: N_10  and  C_11 
REMARK    5  A    between atoms: C_11  and  C_12 
REMARK    6  A    between atoms: C_15  and  O_16 
REMARK    7  A    between atoms: O_16  and  C_17 
REMARK    8  A    between atoms: C_23  and  C_24 
ROOT
HETATM    1  C   UNL     1      32.685  51.439  43.738  1.00  0.00     0.273 C 
HETATM    2  N   UNL     1      33.911  51.729  43.181  1.00  0.00    -0.263 N 
HETATM    3  O   UNL     1      32.444  51.677  44.922  1.00  0.00    -0.266 OA
HETATM    4  H   UNL     1      34.187  51.465  42.242  1.00  0.00     0.190 HD
ENDROOT
BRANCH   2   5
HETATM    5  N   UNL     1      34.887  52.270  44.035  1.00  0.00    -0.263 N 
HETATM    6  C   UNL     1      36.198  52.306  43.597  1.00  0.00     0.270 C 
HETATM    7  O   UNL     1      36.620  51.662  42.643  1.00  0.00    -0.266 OA
HETATM    8  H   UNL     1      34.539  53.047  44.601  1.00  0.00     0.190 HD
BRANCH   6   9
HETATM    9  C   UNL     1      37.079  53.247  44.349  1.00  0.00     0.033 A 
HETATM   10  C   UNL     1      37.453  52.996  45.675  1.00  0.00     0.020 A 
HETATM   11  C   UNL     1      38.186  53.950  46.384  1.00  0.00     0.038 A 
HETATM   12  C   UNL     1      38.555  55.155  45.784  1.00  0.00     0.068 A 
HETATM   13  C   UNL     1      38.239  55.378  44.443  1.00  0.00     0.038 A 
HETATM   14  C   UNL     1      37.502  54.426  43.726  1.00  0.00     0.020 A 
BRANCH  12  15
HETATM   15  O   UNL     1      39.218  56.017  46.609  1.00  0.00    -0.352 OA
BRANCH  15  16
HETATM   16  C   UNL     1      40.466  56.530  46.143  1.00  0.00     0.171 C 
HETATM   17  C   UNL     1      41.566  55.631  46.680  1.00  0.00     0.034 C 
ENDBRANCH  15  16
ENDBRANCH  12  15
ENDBRANCH   6   9
ENDBRANCH   2   5
BRANCH   1  18
HETATM   18  C   UNL     1      31.758  50.722  42.897  1.00  0.00     0.077 A 
HETATM   19  C   UNL     1      31.655  49.313  42.905  1.00  0.00     0.158 A 
HETATM   20  N   UNL     1      30.687  48.857  42.118  1.00  0.00    -0.183 NA
HETATM   21  N   UNL     1      30.129  49.974  41.612  1.00  0.00    -0.268 N 
HETATM   22  C   UNL     1      30.730  51.139  42.061  1.00  0.00     0.052 A 
BRANCH  21  23
HETATM   23  C   UNL     1      28.927  49.846  40.785  1.00  0.00     0.106 C 
HETATM   24  C   UNL     1      27.870  49.033  41.536  1.00  0.00     0.034 C 
BRANCH  23  25
HETATM   25  C   UNL     1      29.180  49.227  39.393  1.00  0.00     0.022 C 
HETATM   26  C   UNL     1      30.493  49.675  38.766  1.00  0.00     0.007 C 
ENDBRANCH  23  25
ENDBRANCH  21  23
BRANCH  22  27
HETATM   27  C   UNL     1      30.203  52.541  41.743  1.00  0.00     0.038 A 
HETATM   28  C   UNL     1      31.081  53.527  41.004  1.00  0.00     0.011 A 
HETATM   29  C   UNL     1      29.866  52.975  40.338  1.00  0.00     0.011 A 
ENDBRANCH  22  27
ENDBRANCH   1  18
TORSDOF 8
ENDMDL
MODEL 7
REMARK VINA RESULT:      -7.3      6.393      8.812
REMARK  8 active torsions:
REMARK  status: ('A' for Active; 'I' for Inactive)
REMARK    1  A    between atoms: C_2  and  C_3 
REMARK    2  A    between atoms: C_3  and  N_4 
REMARK    3  A    between atoms: C_7  and  C_8 
REMARK       I    between atoms: C_8  and  N_9 
REMARK    4  A    between atoms: N_9  and  N_10 
REMARK       I    between atoms: N_10  and  C_11 
REMARK    5  A    between atoms: C_11  and  C_12 
REMARK    6  A    between atoms: C_15  and  O_16 
REMARK    7  A    between atoms: O_16  and  C_17 
REMARK    8  A    between atoms: C_23  and  C_24 
ROOT
HETATM    1  C   UNL     1      27.248  40.723  50.236  1.00  0.00     0.273 C 
HETATM    2  N   UNL     1      26.843  40.361  51.503  1.00  0.00    -0.263 N 
HETATM    3  O   UNL     1      27.622  41.868  49.984  1.00  0.00    -0.266 OA
HETATM    4  H   UNL     1      26.438  39.460  51.735  1.00  0.00     0.190 HD
ENDROOT
BRANCH   2   5
HETATM    5  N   UNL     1      26.838  41.367  52.483  1.00  0.00    -0.263 N 
HETATM    6  C   UNL     1      27.935  41.481  53.317  1.00  0.00     0.270 C 
HETATM    7  O   UNL     1      28.787  40.610  53.449  1.00  0.00    -0.266 OA
HETATM    8  H   UNL     1      26.364  42.220  52.178  1.00  0.00     0.190 HD
BRANCH   6   9
HETATM    9  C   UNL     1      28.044  42.790  54.024  1.00  0.00     0.033 A 
HETATM   10  C   UNL     1      26.933  43.626  54.190  1.00  0.00     0.020 A 
HETATM   11  C   UNL     1      27.093  44.892  54.758  1.00  0.00     0.038 A 
HETATM   12  C   UNL     1      28.352  45.335  55.167  1.00  0.00     0.068 A 
HETATM   13  C   UNL     1      29.448  44.477  55.063  1.00  0.00     0.038 A 
HETATM   14  C   UNL     1      29.296  43.207  54.492  1.00  0.00     0.020 A 
BRANCH  12  15
HETATM   15  O   UNL     1      28.371  46.612  55.652  1.00  0.00    -0.352 OA
BRANCH  15  16
HETATM   16  C   UNL     1      27.832  47.632  54.812  1.00  0.00     0.171 C 
HETATM   17  C   UNL     1      26.712  48.317  55.577  1.00  0.00     0.034 C 
ENDBRANCH  15  16
ENDBRANCH  12  15
ENDBRANCH   6   9
ENDBRANCH   2   5
BRANCH   1  18
HETATM   18  C   UNL     1      27.079  39.727  49.206  1.00  0.00     0.077 A 
HETATM   19  C   UNL     1      26.280  39.945  48.061  1.00  0.00     0.158 A 
HETATM   20  N   UNL     1      26.321  38.937  47.198  1.00  0.00    -0.183 NA
HETATM   21  N   UNL     1      27.177  38.063  47.763  1.00  0.00    -0.268 N 
HETATM   22  C   UNL     1      27.681  38.496  48.979  1.00  0.00     0.052 A 
BRANCH  21  23
HETATM   23  C   UNL     1      27.562  36.868  47.008  1.00  0.00     0.106 C 
HETATM   24  C   UNL     1      28.597  37.244  45.944  1.00  0.00     0.034 C 
BRANCH  23  25
HETATM   25  C   UNL     1      26.377  36.124  46.355  1.00  0.00     0.022 C 
HETATM   26  C   UNL     1      25.451  35.464  47.367  1.00  0.00     0.007 C 
ENDBRANCH  23  25
ENDBRANCH  21  23
BRANCH  22  27
HETATM   27  C   UNL     1      28.769  37.754  49.758  1.00  0.00     0.038 A 
HETATM   28  C   UNL     1      30.228  38.018  49.454  1.00  0.00     0.011 A 
HETATM   29  C   UNL     1      29.656  38.447  50.763  1.00  0.00     0.011 A 
ENDBRANCH  22  27
ENDBRANCH   1  18
TORSDOF 8
ENDMDL
MODEL 8
REMARK VINA RESULT:      -7.2      2.254     10.086
REMARK  8 active torsions:
REMARK  status: ('A' for Active; 'I' for Inactive)
REMARK    1  A    between atoms: C_2  and  C_3 
REMARK    2  A    between atoms: C_3  and  N_4 
REMARK    3  A    between atoms: C_7  and  C_8 
REMARK       I    between atoms: C_8  and  N_9 
REMARK    4  A    between atoms: N_9  and  N_10 
REMARK       I    between atoms: N_10  and  C_11 
REMARK    5  A    between atoms: C_11  and  C_12 
REMARK    6  A    between atoms: C_15  and  O_16 
REMARK    7  A    between atoms: O_16  and  C_17 
REMARK    8  A    between atoms: C_23  and  C_24 
ROOT
HETATM    1  C   UNL     1      26.147  45.961  53.194  1.00  0.00     0.273 C 
HETATM    2  N   UNL     1      26.116  47.032  52.327  1.00  0.00    -0.263 N 
HETATM    3  O   UNL     1      25.230  45.140  53.234  1.00  0.00    -0.266 OA
HETATM    4  H   UNL     1      26.798  47.782  52.325  1.00  0.00     0.190 HD
ENDROOT
BRANCH   2   5
HETATM    5  N   UNL     1      24.973  47.168  51.522  1.00  0.00    -0.263 N 
HETATM    6  C   UNL     1      25.144  47.416  50.172  1.00  0.00     0.270 C 
HETATM    7  O   UNL     1      26.198  47.793  49.673  1.00  0.00    -0.266 OA
HETATM    8  H   UNL     1      24.202  46.564  51.815  1.00  0.00     0.190 HD
BRANCH   6   9
HETATM    9  C   UNL     1      23.943  47.133  49.332  1.00  0.00     0.033 A 
HETATM   10  C   UNL     1      23.210  48.165  48.735  1.00  0.00     0.020 A 
HETATM   11  C   UNL     1      22.031  47.874  48.047  1.00  0.00     0.038 A 
HETATM   12  C   UNL     1      21.572  46.559  47.944  1.00  0.00     0.068 A 
HETATM   13  C   UNL     1      22.337  45.523  48.482  1.00  0.00     0.038 A 
HETATM   14  C   UNL     1      23.520  45.808  49.176  1.00  0.00     0.020 A 
BRANCH  12  15
HETATM   15  O   UNL     1      20.379  46.426  47.294  1.00  0.00    -0.352 OA
BRANCH  15  16
HETATM   16  C   UNL     1      19.198  46.463  48.094  1.00  0.00     0.171 C 
HETATM   17  C   UNL     1      18.240  45.414  47.556  1.00  0.00     0.034 C 
ENDBRANCH  15  16
ENDBRANCH  12  15
ENDBRANCH   6   9
ENDBRANCH   2   5
BRANCH   1  18
HETATM   18  C   UNL     1      27.239  45.936  54.135  1.00  0.00     0.077 A 
HETATM   19  C   UNL     1      27.701  47.096  54.797  1.00  0.00     0.158 A 
HETATM   20  N   UNL     1      28.659  46.845  55.681  1.00  0.00    -0.183 NA
HETATM   21  N   UNL     1      28.809  45.508  55.624  1.00  0.00    -0.268 N 
HETATM   22  C   UNL     1      27.962  44.899  54.711  1.00  0.00     0.052 A 
BRANCH  21  23
HETATM   23  C   UNL     1      29.714  44.861  56.576  1.00  0.00     0.106 C 
HETATM   24  C   UNL     1      29.928  45.776  57.785  1.00  0.00     0.034 C 
BRANCH  23  25
HETATM   25  C   UNL     1      31.076  44.451  55.976  1.00  0.00     0.022 C 
HETATM   26  C   UNL     1      31.806  43.403  56.805  1.00  0.00     0.007 C 
ENDBRANCH  23  25
ENDBRANCH  21  23
BRANCH  22  27
HETATM   27  C   UNL     1      27.839  43.382  54.551  1.00  0.00     0.038 A 
HETATM   28  C   UNL     1      27.805  42.770  53.167  1.00  0.00     0.011 A 
HETATM   29  C   UNL     1      28.980  42.530  54.053  1.00  0.00     0.011 A 
ENDBRANCH  22  27
ENDBRANCH   1  18
TORSDOF 8
ENDMDL
MODEL 9
REMARK VINA RESULT:      -7.1      2.467      9.944
REMARK  8 active torsions:
REMARK  status: ('A' for Active; 'I' for Inactive)
REMARK    1  A    between atoms: C_2  and  C_3 
REMARK    2  A    between atoms: C_3  and  N_4 
REMARK    3  A    between atoms: C_7  and  C_8 
REMARK       I    between atoms: C_8  and  N_9 
REMARK    4  A    between atoms: N_9  and  N_10 
REMARK       I    between atoms: N_10  and  C_11 
REMARK    5  A    between atoms: C_11  and  C_12 
REMARK    6  A    between atoms: C_15  and  O_16 
REMARK    7  A    between atoms: O_16  and  C_17 
REMARK    8  A    between atoms: C_23  and  C_24 
ROOT
HETATM    1  C   UNL     1      25.839  45.027  52.930  1.00  0.00     0.273 C 
HETATM    2  N   UNL     1      26.048  45.834  51.833  1.00  0.00    -0.263 N 
HETATM    3  O   UNL     1      24.728  44.564  53.185  1.00  0.00    -0.266 OA
HETATM    4  H   UNL     1      26.919  46.315  51.637  1.00  0.00     0.190 HD
ENDROOT
BRANCH   2   5
HETATM    5  N   UNL     1      24.927  46.137  51.042  1.00  0.00    -0.263 N 
HETATM    6  C   UNL     1      24.809  45.529  49.806  1.00  0.00     0.270 C 
HETATM    7  O   UNL     1      25.731  44.959  49.232  1.00  0.00    -0.266 OA
HETATM    8  H   UNL     1      24.080  46.297  51.591  1.00  0.00     0.190 HD
BRANCH   6   9
HETATM    9  C   UNL     1      23.435  45.564  49.224  1.00  0.00     0.033 A 
HETATM   10  C   UNL     1      22.686  44.394  49.050  1.00  0.00     0.020 A 
HETATM   11  C   UNL     1      21.450  44.449  48.403  1.00  0.00     0.038 A 
HETATM   12  C   UNL     1      20.947  45.662  47.929  1.00  0.00     0.068 A 
HETATM   13  C   UNL     1      21.663  46.838  48.160  1.00  0.00     0.038 A 
HETATM   14  C   UNL     1      22.905  46.790  48.807  1.00  0.00     0.020 A 
BRANCH  12  15
HETATM   15  O   UNL     1      19.757  45.561  47.267  1.00  0.00    -0.352 OA
BRANCH  15  16
HETATM   16  C   UNL     1      18.787  46.577  47.519  1.00  0.00     0.171 C 
HETATM   17  C   UNL     1      17.540  45.901  48.064  1.00  0.00     0.034 C 
ENDBRANCH  15  16
ENDBRANCH  12  15
ENDBRANCH   6   9
ENDBRANCH   2   5
BRANCH   1  18
HETATM   18  C   UNL     1      26.958  44.873  53.828  1.00  0.00     0.077 A 
HETATM   19  C   UNL     1      27.650  43.651  53.979  1.00  0.00     0.158 A 
HETATM   20  N   UNL     1      28.697  43.743  54.791  1.00  0.00    -0.183 NA
HETATM   21  N   UNL     1      28.714  45.040  55.152  1.00  0.00    -0.268 N 
HETATM   22  C   UNL     1      27.688  45.780  54.586  1.00  0.00     0.052 A 
BRANCH  21  23
HETATM   23  C   UNL     1      29.832  45.531  55.960  1.00  0.00     0.106 C 
HETATM   24  C   UNL     1      30.962  44.497  55.956  1.00  0.00     0.034 C 
BRANCH  23  25
HETATM   25  C   UNL     1      29.452  45.892  57.413  1.00  0.00     0.022 C 
HETATM   26  C   UNL     1      30.436  45.355  58.442  1.00  0.00     0.007 C 
ENDBRANCH  23  25
ENDBRANCH  21  23
BRANCH  22  27
HETATM   27  C   UNL     1      27.561  47.299  54.728  1.00  0.00     0.038 A 
HETATM   28  C   UNL     1      26.200  47.954  54.629  1.00  0.00     0.011 A 
HETATM   29  C   UNL     1      26.923  47.944  55.933  1.00  0.00     0.011 A 
ENDBRANCH  22  27
ENDBRANCH   1  18
TORSDOF 8
ENDMDL
MODEL 10
REMARK VINA RESULT:      -6.9      2.338      9.757
REMARK  8 active torsions:
REMARK  status: ('A' for Active; 'I' for Inactive)
REMARK    1  A    between atoms: C_2  and  C_3 
REMARK    2  A    between atoms: C_3  and  N_4 
REMARK    3  A    between atoms: C_7  and  C_8 
REMARK       I    between atoms: C_8  and  N_9 
REMARK    4  A    between atoms: N_9  and  N_10 
REMARK       I    between atoms: N_10  and  C_11 
REMARK    5  A    between atoms: C_11  and  C_12 
REMARK    6  A    between atoms: C_15  and  O_16 
REMARK    7  A    between atoms: O_16  and  C_17 
REMARK    8  A    between atoms: C_23  and  C_24 
ROOT
HETATM    1  C   UNL     1      25.070  45.242  51.824  1.00  0.00     0.273 C 
HETATM    2  N   UNL     1      25.243  46.461  51.205  1.00  0.00    -0.263 N 
HETATM    3  O   UNL     1      23.970  44.691  51.862  1.00  0.00    -0.266 OA
HETATM    4  H   UNL     1      26.105  46.996  51.232  1.00  0.00     0.190 HD
ENDROOT
BRANCH   2   5
HETATM    5  N   UNL     1      24.100  47.066  50.656  1.00  0.00    -0.263 N 
HETATM    6  C   UNL     1      24.271  48.076  49.727  1.00  0.00     0.270 C 
HETATM    7  O   UNL     1      25.328  48.668  49.547  1.00  0.00    -0.266 OA
HETATM    8  H   UNL     1      23.322  46.414  50.533  1.00  0.00     0.190 HD
BRANCH   6   9
HETATM    9  C   UNL     1      23.065  48.368  48.898  1.00  0.00     0.033 A 
HETATM   10  C   UNL     1      22.770  49.668  48.470  1.00  0.00     0.020 A 
HETATM   11  C   UNL     1      21.578  49.923  47.791  1.00  0.00     0.038 A 
HETATM   12  C   UNL     1      20.673  48.893  47.528  1.00  0.00     0.068 A 
HETATM   13  C   UNL     1      20.996  47.586  47.896  1.00  0.00     0.038 A 
HETATM   14  C   UNL     1      22.190  47.323  48.580  1.00  0.00     0.020 A 
BRANCH  12  15
HETATM   15  O   UNL     1      19.524  49.294  46.907  1.00  0.00    -0.352 OA
BRANCH  15  16
HETATM   16  C   UNL     1      18.740  50.284  47.572  1.00  0.00     0.171 C 
HETATM   17  C   UNL     1      17.980  49.596  48.694  1.00  0.00     0.034 C 
ENDBRANCH  15  16
ENDBRANCH  12  15
ENDBRANCH   6   9
ENDBRANCH   2   5
BRANCH   1  18
HETATM   18  C   UNL     1      26.212  44.723  52.536  1.00  0.00     0.077 A 
HETATM   19  C   UNL     1      26.672  43.397  52.374  1.00  0.00     0.158 A 
HETATM   20  N   UNL     1      27.783  43.144  53.056  1.00  0.00    -0.183 NA
HETATM   21  N   UNL     1      28.075  44.319  53.646  1.00  0.00    -0.268 N 
HETATM   22  C   UNL     1      27.162  45.321  53.355  1.00  0.00     0.052 A 
BRANCH  21  23
HETATM   23  C   UNL     1      29.330  44.439  54.390  1.00  0.00     0.106 C 
HETATM   24  C   UNL     1      30.221  43.229  54.095  1.00  0.00     0.034 C 
BRANCH  23  25
HETATM   25  C   UNL     1      29.149  44.603  55.915  1.00  0.00     0.022 C 
HETATM   26  C   UNL     1      30.285  45.371  56.575  1.00  0.00     0.007 C 
ENDBRANCH  23  25
ENDBRANCH  21  23
BRANCH  22  27
HETATM   27  C   UNL     1      27.337  46.778  53.789  1.00  0.00     0.038 A 
HETATM   28  C   UNL     1      26.154  47.549  54.334  1.00  0.00     0.011 A 
HETATM   29  C   UNL     1      27.287  47.197  55.238  1.00  0.00     0.011 A 
ENDBRANCH  22  27
ENDBRANCH   1  18
TORSDOF 8
ENDMDL
