MODEL 1
REMARK VINA RESULT:      -7.5      0.000      0.000
REMARK  10 active torsions:
REMARK  status: ('A' for Active; 'I' for Inactive)
REMARK    1  A    between atoms: C_2  and  C_3 
REMARK    2  A    between atoms: C_3  and  C_4 
REMARK       I    between atoms: C_4  and  N_5 
REMARK    3  A    between atoms: N_5  and  C_6 
REMARK    4  A    between atoms: C_6  and  N_7 
REMARK    5  A    between atoms: C_6  and  C_21 
REMARK    6  A    between atoms: N_7  and  C_8 
REMARK    7  A    between atoms: C_8  and  N_9 
REMARK    8  A    between atoms: N_9  and  N_10 
REMARK       I    between atoms: N_10  and  C_11 
REMARK    9  A    between atoms: C_11  and  C_12 
REMARK   10  A    between atoms: C_13  and  O_14 
ROOT
HETATM    1  C   UNL     1      22.831  46.397  48.640  1.00  0.00     0.188 C 
HETATM    2  S   UNL     1      21.867  46.122  47.298  1.00  0.00    -0.039 SA
ENDROOT
BRANCH   1   3
HETATM    3  N   UNL     1      23.796  45.488  48.921  1.00  0.00    -0.341 N 
HETATM    4  H   UNL     1      23.661  44.586  48.468  1.00  0.00     0.164 HD
BRANCH   3   5
HETATM    5  C   UNL     1      24.821  45.473  49.959  1.00  0.00     0.241 C 
BRANCH   5   6
HETATM    6  N   UNL     1      25.955  46.250  49.467  1.00  0.00    -0.336 N 
HETATM    7  C   UNL     1      26.240  47.525  49.875  1.00  0.00     0.219 C 
HETATM    8  O   UNL     1      25.563  48.120  50.704  1.00  0.00    -0.274 OA
HETATM    9  H   UNL     1      26.628  45.772  48.882  1.00  0.00     0.164 HD
BRANCH   7  10
HETATM   10  C   UNL     1      27.475  48.136  49.247  1.00  0.00     0.102 C 
BRANCH  10  11
HETATM   11  C   UNL     1      27.310  49.619  48.925  1.00  0.00     0.005 C 
HETATM   12  C   UNL     1      26.134  49.913  48.005  1.00  0.00     0.005 C 
ENDBRANCH  10  11
ENDBRANCH   7  10
ENDBRANCH   5   6
BRANCH   5  13
HETATM   13  C   UNL     1      25.126  44.039  50.588  1.00  0.00     0.226 C 
HETATM   14 CL   UNL     1      26.695  43.387  49.984  1.00  0.00    -0.080 Cl
HETATM   15 CL   UNL     1      25.300  44.203  52.387  1.00  0.00    -0.080 Cl
HETATM   16 CL   UNL     1      23.840  42.823  50.310  1.00  0.00    -0.080 Cl
ENDBRANCH   5  13
ENDBRANCH   3   5
ENDBRANCH   1   3
BRANCH   1  17
HETATM   17  N   UNL     1      22.701  47.471  49.477  1.00  0.00    -0.274 N 
HETATM   18  H   UNL     1      23.495  47.921  49.927  1.00  0.00     0.189 HD
BRANCH  17  19
HETATM   19  N   UNL     1      21.576  48.303  49.393  1.00  0.00    -0.264 N 
HETATM   20  C   UNL     1      21.761  49.663  49.528  1.00  0.00     0.272 C 
HETATM   21  O   UNL     1      22.858  50.159  49.786  1.00  0.00    -0.266 OA
HETATM   22  H   UNL     1      20.674  47.846  49.287  1.00  0.00     0.190 HD
BRANCH  20  23
HETATM   23  C   UNL     1      20.565  50.533  49.379  1.00  0.00     0.066 A 
HETATM   24  C   UNL     1      19.438  50.300  50.183  1.00  0.00     0.081 A 
HETATM   25  C   UNL     1      18.301  51.096  50.057  1.00  0.00     0.037 A 
HETATM   26  C   UNL     1      18.285  52.148  49.142  1.00  0.00     0.003 A 
HETATM   27  C   UNL     1      19.408  52.408  48.358  1.00  0.00     0.001 A 
HETATM   28  C   UNL     1      20.547  51.606  48.475  1.00  0.00     0.020 A 
BRANCH  24  29
HETATM   29  O   UNL     1      19.378  49.305  51.120  1.00  0.00    -0.360 OA
HETATM   30  H   UNL     1      18.654  48.691  50.868  1.00  0.00     0.217 HD
ENDBRANCH  24  29
ENDBRANCH  20  23
ENDBRANCH  17  19
ENDBRANCH   1  17
TORSDOF 10
ENDMDL
MODEL 2
REMARK VINA RESULT:      -7.4      6.167      7.866
REMARK  10 active torsions:
REMARK  status: ('A' for Active; 'I' for Inactive)
REMARK    1  A    between atoms: C_2  and  C_3 
REMARK    2  A    between atoms: C_3  and  C_4 
REMARK       I    between atoms: C_4  and  N_5 
REMARK    3  A    between atoms: N_5  and  C_6 
REMARK    4  A    between atoms: C_6  and  N_7 
REMARK    5  A    between atoms: C_6  and  C_21 
REMARK    6  A    between atoms: N_7  and  C_8 
REMARK    7  A    between atoms: C_8  and  N_9 
REMARK    8  A    between atoms: N_9  and  N_10 
REMARK       I    between atoms: N_10  and  C_11 
REMARK    9  A    between atoms: C_11  and  C_12 
REMARK   10  A    between atoms: C_13  and  O_14 
ROOT
HETATM    1  C   UNL     1      27.670  40.994  47.958  1.00  0.00     0.188 C 
HETATM    2  S   UNL     1      28.134  40.819  46.358  1.00  0.00    -0.039 SA
ENDROOT
BRANCH   1   3
HETATM    3  N   UNL     1      28.461  40.438  48.909  1.00  0.00    -0.341 N 
HETATM    4  H   UNL     1      29.458  40.533  48.726  1.00  0.00     0.164 HD
BRANCH   3   5
HETATM    5  C   UNL     1      28.149  39.498  49.980  1.00  0.00     0.241 C 
BRANCH   5   6
HETATM    6  N   UNL     1      28.696  40.048  51.218  1.00  0.00    -0.336 N 
HETATM    7  C   UNL     1      28.093  41.038  51.944  1.00  0.00     0.219 C 
HETATM    8  O   UNL     1      27.027  41.543  51.614  1.00  0.00    -0.274 OA
HETATM    9  H   UNL     1      29.503  39.586  51.615  1.00  0.00     0.164 HD
BRANCH   7  10
HETATM   10  C   UNL     1      28.827  41.445  53.205  1.00  0.00     0.102 C 
BRANCH  10  11
HETATM   11  C   UNL     1      29.795  42.604  52.984  1.00  0.00     0.005 C 
HETATM   12  C   UNL     1      30.313  43.216  54.278  1.00  0.00     0.005 C 
ENDBRANCH  10  11
ENDBRANCH   7  10
ENDBRANCH   5   6
BRANCH   5  13
HETATM   13  C   UNL     1      28.461  37.969  49.651  1.00  0.00     0.226 C 
HETATM   14 CL   UNL     1      26.942  37.002  49.569  1.00  0.00    -0.080 Cl
HETATM   15 CL   UNL     1      29.226  37.858  48.009  1.00  0.00    -0.080 Cl
HETATM   16 CL   UNL     1      29.594  37.184  50.795  1.00  0.00    -0.080 Cl
ENDBRANCH   5  13
ENDBRANCH   3   5
ENDBRANCH   1   3
BRANCH   1  17
HETATM   17  N   UNL     1      26.542  41.649  48.368  1.00  0.00    -0.274 N 
HETATM   18  H   UNL     1      25.649  41.181  48.505  1.00  0.00     0.189 HD
BRANCH  17  19
HETATM   19  N   UNL     1      26.640  42.857  49.073  1.00  0.00    -0.264 N 
HETATM   20  C   UNL     1      25.475  43.453  49.509  1.00  0.00     0.272 C 
HETATM   21  O   UNL     1      24.361  43.002  49.241  1.00  0.00    -0.266 OA
HETATM   22  H   UNL     1      27.571  43.252  49.179  1.00  0.00     0.190 HD
BRANCH  20  23
HETATM   23  C   UNL     1      25.603  44.702  50.303  1.00  0.00     0.066 A 
HETATM   24  C   UNL     1      25.255  44.694  51.663  1.00  0.00     0.081 A 
HETATM   25  C   UNL     1      25.357  45.855  52.428  1.00  0.00     0.037 A 
HETATM   26  C   UNL     1      25.830  47.032  51.848  1.00  0.00     0.003 A 
HETATM   27  C   UNL     1      26.205  47.046  50.506  1.00  0.00     0.001 A 
HETATM   28  C   UNL     1      26.095  45.886  49.733  1.00  0.00     0.020 A 
BRANCH  24  29
HETATM   29  O   UNL     1      24.805  43.578  52.316  1.00  0.00    -0.360 OA
HETATM   30  H   UNL     1      24.953  42.803  51.733  1.00  0.00     0.217 HD
ENDBRANCH  24  29
ENDBRANCH  20  23
ENDBRANCH  17  19
ENDBRANCH   1  17
TORSDOF 10
ENDMDL
MODEL 3
REMARK VINA RESULT:      -7.4      5.118      8.394
REMARK  10 active torsions:
REMARK  status: ('A' for Active; 'I' for Inactive)
REMARK    1  A    between atoms: C_2  and  C_3 
REMARK    2  A    between atoms: C_3  and  C_4 
REMARK       I    between atoms: C_4  and  N_5 
REMARK    3  A    between atoms: N_5  and  C_6 
REMARK    4  A    between atoms: C_6  and  N_7 
REMARK    5  A    between atoms: C_6  and  C_21 
REMARK    6  A    between atoms: N_7  and  C_8 
REMARK    7  A    between atoms: C_8  and  N_9 
REMARK    8  A    between atoms: N_9  and  N_10 
REMARK       I    between atoms: N_10  and  C_11 
REMARK    9  A    between atoms: C_11  and  C_12 
REMARK   10  A    between atoms: C_13  and  O_14 
ROOT
HETATM    1  C   UNL     1      26.554  42.433  50.579  1.00  0.00     0.188 C 
HETATM    2  S   UNL     1      25.987  40.860  50.503  1.00  0.00    -0.039 SA
ENDROOT
BRANCH   1   3
HETATM    3  N   UNL     1      25.649  43.437  50.475  1.00  0.00    -0.341 N 
HETATM    4  H   UNL     1      25.057  43.548  51.296  1.00  0.00     0.164 HD
BRANCH   3   5
HETATM    5  C   UNL     1      25.184  44.189  49.314  1.00  0.00     0.241 C 
BRANCH   5   6
HETATM    6  N   UNL     1      25.350  45.608  49.616  1.00  0.00    -0.336 N 
HETATM    7  C   UNL     1      26.565  46.230  49.712  1.00  0.00     0.219 C 
HETATM    8  O   UNL     1      27.625  45.640  49.541  1.00  0.00    -0.274 OA
HETATM    9  H   UNL     1      24.515  46.179  49.637  1.00  0.00     0.164 HD
BRANCH   7  10
HETATM   10  C   UNL     1      26.502  47.712  50.016  1.00  0.00     0.102 C 
BRANCH  10  11
HETATM   11  C   UNL     1      27.461  48.538  49.164  1.00  0.00     0.005 C 
HETATM   12  C   UNL     1      26.806  49.748  48.512  1.00  0.00     0.005 C 
ENDBRANCH  10  11
ENDBRANCH   7  10
ENDBRANCH   5   6
BRANCH   5  13
HETATM   13  C   UNL     1      23.780  43.719  48.721  1.00  0.00     0.226 C 
HETATM   14 CL   UNL     1      23.993  42.378  47.535  1.00  0.00    -0.080 Cl
HETATM   15 CL   UNL     1      22.759  43.054  50.066  1.00  0.00    -0.080 Cl
HETATM   16 CL   UNL     1      22.826  45.029  47.959  1.00  0.00    -0.080 Cl
ENDBRANCH   5  13
ENDBRANCH   3   5
ENDBRANCH   1   3
BRANCH   1  17
HETATM   17  N   UNL     1      27.871  42.774  50.726  1.00  0.00    -0.274 N 
HETATM   18  H   UNL     1      28.518  42.833  49.944  1.00  0.00     0.189 HD
BRANCH  17  19
HETATM   19  N   UNL     1      28.291  43.512  51.842  1.00  0.00    -0.264 N 
HETATM   20  C   UNL     1      28.778  42.823  52.932  1.00  0.00     0.272 C 
HETATM   21  O   UNL     1      28.790  41.593  52.987  1.00  0.00    -0.266 OA
HETATM   22  H   UNL     1      28.164  44.520  51.799  1.00  0.00     0.190 HD
BRANCH  20  23
HETATM   23  C   UNL     1      29.272  43.625  54.082  1.00  0.00     0.066 A 
HETATM   24  C   UNL     1      28.538  44.743  54.509  1.00  0.00     0.081 A 
HETATM   25  C   UNL     1      28.984  45.517  55.579  1.00  0.00     0.037 A 
HETATM   26  C   UNL     1      30.157  45.169  56.249  1.00  0.00     0.003 A 
HETATM   27  C   UNL     1      30.880  44.045  55.854  1.00  0.00     0.001 A 
HETATM   28  C   UNL     1      30.440  43.272  54.774  1.00  0.00     0.020 A 
BRANCH  24  29
HETATM   29  O   UNL     1      27.367  45.141  53.923  1.00  0.00    -0.360 OA
HETATM   30  H   UNL     1      26.660  45.116  54.605  1.00  0.00     0.217 HD
ENDBRANCH  24  29
ENDBRANCH  20  23
ENDBRANCH  17  19
ENDBRANCH   1  17
TORSDOF 10
ENDMDL
MODEL 4
REMARK VINA RESULT:      -7.3      3.759      8.091
REMARK  10 active torsions:
REMARK  status: ('A' for Active; 'I' for Inactive)
REMARK    1  A    between atoms: C_2  and  C_3 
REMARK    2  A    between atoms: C_3  and  C_4 
REMARK       I    between atoms: C_4  and  N_5 
REMARK    3  A    between atoms: N_5  and  C_6 
REMARK    4  A    between atoms: C_6  and  N_7 
REMARK    5  A    between atoms: C_6  and  C_21 
REMARK    6  A    between atoms: N_7  and  C_8 
REMARK    7  A    between atoms: C_8  and  N_9 
REMARK    8  A    between atoms: N_9  and  N_10 
REMARK       I    between atoms: N_10  and  C_11 
REMARK    9  A    between atoms: C_11  and  C_12 
REMARK   10  A    between atoms: C_13  and  O_14 
ROOT
HETATM    1  C   UNL     1      24.992  46.829  50.627  1.00  0.00     0.188 C 
HETATM    2  S   UNL     1      26.156  47.633  49.730  1.00  0.00    -0.039 SA
ENDROOT
BRANCH   1   3
HETATM    3  N   UNL     1      23.892  46.379  49.975  1.00  0.00    -0.341 N 
HETATM    4  H   UNL     1      23.762  45.371  50.030  1.00  0.00     0.164 HD
BRANCH   3   5
HETATM    5  C   UNL     1      23.033  47.027  48.990  1.00  0.00     0.241 C 
BRANCH   5   6
HETATM    6  N   UNL     1      22.701  48.354  49.503  1.00  0.00    -0.336 N 
HETATM    7  C   UNL     1      22.885  49.512  48.797  1.00  0.00     0.219 C 
HETATM    8  O   UNL     1      23.340  49.526  47.660  1.00  0.00    -0.274 OA
HETATM    9  H   UNL     1      22.200  48.402  50.380  1.00  0.00     0.164 HD
BRANCH   7  10
HETATM   10  C   UNL     1      22.455  50.773  49.515  1.00  0.00     0.102 C 
BRANCH  10  11
HETATM   11  C   UNL     1      20.941  50.881  49.679  1.00  0.00     0.005 C 
HETATM   12  C   UNL     1      20.254  51.583  48.516  1.00  0.00     0.005 C 
ENDBRANCH  10  11
ENDBRANCH   7  10
ENDBRANCH   5   6
BRANCH   5  13
HETATM   13  C   UNL     1      21.836  46.127  48.440  1.00  0.00     0.226 C 
HETATM   14 CL   UNL     1      20.245  46.934  48.704  1.00  0.00    -0.080 Cl
HETATM   15 CL   UNL     1      22.017  45.928  46.646  1.00  0.00    -0.080 Cl
HETATM   16 CL   UNL     1      21.777  44.476  49.133  1.00  0.00    -0.080 Cl
ENDBRANCH   5  13
ENDBRANCH   3   5
ENDBRANCH   1   3
BRANCH   1  17
HETATM   17  N   UNL     1      25.072  46.607  51.975  1.00  0.00    -0.274 N 
HETATM   18  H   UNL     1      24.252  46.521  52.571  1.00  0.00     0.189 HD
BRANCH  17  19
HETATM   19  N   UNL     1      26.216  46.017  52.529  1.00  0.00    -0.264 N 
HETATM   20  C   UNL     1      26.098  44.758  53.079  1.00  0.00     0.272 C 
HETATM   21  O   UNL     1      25.018  44.171  53.162  1.00  0.00    -0.266 OA
HETATM   22  H   UNL     1      27.064  46.578  52.538  1.00  0.00     0.190 HD
BRANCH  20  23
HETATM   23  C   UNL     1      27.333  44.125  53.610  1.00  0.00     0.066 A 
HETATM   24  C   UNL     1      27.619  42.790  53.286  1.00  0.00     0.081 A 
HETATM   25  C   UNL     1      28.767  42.171  53.779  1.00  0.00     0.037 A 
HETATM   26  C   UNL     1      29.653  42.886  54.583  1.00  0.00     0.003 A 
HETATM   27  C   UNL     1      29.396  44.221  54.889  1.00  0.00     0.001 A 
HETATM   28  C   UNL     1      28.241  44.843  54.404  1.00  0.00     0.020 A 
BRANCH  24  29
HETATM   29  O   UNL     1      26.816  42.023  52.485  1.00  0.00    -0.360 OA
HETATM   30  H   UNL     1      25.907  42.042  52.857  1.00  0.00     0.217 HD
ENDBRANCH  24  29
ENDBRANCH  20  23
ENDBRANCH  17  19
ENDBRANCH   1  17
TORSDOF 10
ENDMDL
MODEL 5
REMARK VINA RESULT:      -7.2      2.890      3.515
REMARK  10 active torsions:
REMARK  status: ('A' for Active; 'I' for Inactive)
REMARK    1  A    between atoms: C_2  and  C_3 
REMARK    2  A    between atoms: C_3  and  C_4 
REMARK       I    between atoms: C_4  and  N_5 
REMARK    3  A    between atoms: N_5  and  C_6 
REMARK    4  A    between atoms: C_6  and  N_7 
REMARK    5  A    between atoms: C_6  and  C_21 
REMARK    6  A    between atoms: N_7  and  C_8 
REMARK    7  A    between atoms: C_8  and  N_9 
REMARK    8  A    between atoms: N_9  and  N_10 
REMARK       I    between atoms: N_10  and  C_11 
REMARK    9  A    between atoms: C_11  and  C_12 
REMARK   10  A    between atoms: C_13  and  O_14 
ROOT
HETATM    1  C   UNL     1      25.533  47.505  49.945  1.00  0.00     0.188 C 
HETATM    2  S   UNL     1      26.321  48.751  49.151  1.00  0.00    -0.039 SA
ENDROOT
BRANCH   1   3
HETATM    3  N   UNL     1      26.255  46.750  50.808  1.00  0.00    -0.341 N 
HETATM    4  H   UNL     1      27.257  46.759  50.629  1.00  0.00     0.164 HD
BRANCH   3   5
HETATM    5  C   UNL     1      25.840  45.719  51.753  1.00  0.00     0.241 C 
BRANCH   5   6
HETATM    6  N   UNL     1      26.460  46.028  53.039  1.00  0.00    -0.336 N 
HETATM    7  C   UNL     1      26.139  47.122  53.797  1.00  0.00     0.219 C 
HETATM    8  O   UNL     1      25.288  47.934  53.456  1.00  0.00    -0.274 OA
HETATM    9  H   UNL     1      27.072  45.330  53.440  1.00  0.00     0.164 HD
BRANCH   7  10
HETATM   10  C   UNL     1      26.894  47.237  55.104  1.00  0.00     0.102 C 
BRANCH  10  11
HETATM   11  C   UNL     1      28.404  47.094  54.936  1.00  0.00     0.005 C 
HETATM   12  C   UNL     1      28.998  45.948  55.742  1.00  0.00     0.005 C 
ENDBRANCH  10  11
ENDBRANCH   7  10
ENDBRANCH   5   6
BRANCH   5  13
HETATM   13  C   UNL     1      25.960  44.221  51.217  1.00  0.00     0.226 C 
HETATM   14 CL   UNL     1      26.852  43.183  52.390  1.00  0.00    -0.080 Cl
HETATM   15 CL   UNL     1      24.298  43.509  51.065  1.00  0.00    -0.080 Cl
HETATM   16 CL   UNL     1      26.725  44.075  49.605  1.00  0.00    -0.080 Cl
ENDBRANCH   5  13
ENDBRANCH   3   5
ENDBRANCH   1   3
BRANCH   1  17
HETATM   17  N   UNL     1      24.212  47.192  49.772  1.00  0.00    -0.274 N 
HETATM   18  H   UNL     1      23.843  46.255  49.914  1.00  0.00     0.189 HD
BRANCH  17  19
HETATM   19  N   UNL     1      23.230  48.187  49.864  1.00  0.00    -0.264 N 
HETATM   20  C   UNL     1      22.449  48.435  48.754  1.00  0.00     0.272 C 
HETATM   21  O   UNL     1      22.631  47.867  47.677  1.00  0.00    -0.266 OA
HETATM   22  H   UNL     1      23.184  48.708  50.736  1.00  0.00     0.190 HD
BRANCH  20  23
HETATM   23  C   UNL     1      21.375  49.454  48.888  1.00  0.00     0.066 A 
HETATM   24  C   UNL     1      20.166  49.105  49.509  1.00  0.00     0.081 A 
HETATM   25  C   UNL     1      19.140  50.039  49.639  1.00  0.00     0.037 A 
HETATM   26  C   UNL     1      19.320  51.340  49.171  1.00  0.00     0.003 A 
HETATM   27  C   UNL     1      20.526  51.708  48.578  1.00  0.00     0.001 A 
HETATM   28  C   UNL     1      21.554  50.770  48.437  1.00  0.00     0.020 A 
BRANCH  24  29
HETATM   29  O   UNL     1      19.915  47.858  50.017  1.00  0.00    -0.360 OA
HETATM   30  H   UNL     1      20.437  47.207  49.499  1.00  0.00     0.217 HD
ENDBRANCH  24  29
ENDBRANCH  20  23
ENDBRANCH  17  19
ENDBRANCH   1  17
TORSDOF 10
ENDMDL
MODEL 6
REMARK VINA RESULT:      -7.1     10.890     12.948
REMARK  10 active torsions:
REMARK  status: ('A' for Active; 'I' for Inactive)
REMARK    1  A    between atoms: C_2  and  C_3 
REMARK    2  A    between atoms: C_3  and  C_4 
REMARK       I    between atoms: C_4  and  N_5 
REMARK    3  A    between atoms: N_5  and  C_6 
REMARK    4  A    between atoms: C_6  and  N_7 
REMARK    5  A    between atoms: C_6  and  C_21 
REMARK    6  A    between atoms: N_7  and  C_8 
REMARK    7  A    between atoms: C_8  and  N_9 
REMARK    8  A    between atoms: N_9  and  N_10 
REMARK       I    between atoms: N_10  and  C_11 
REMARK    9  A    between atoms: C_11  and  C_12 
REMARK   10  A    between atoms: C_13  and  O_14 
ROOT
HETATM    1  C   UNL     1      29.646  47.022  39.949  1.00  0.00     0.188 C 
HETATM    2  S   UNL     1      28.877  45.569  39.628  1.00  0.00    -0.039 SA
ENDROOT
BRANCH   1   3
HETATM    3  N   UNL     1      28.870  48.105  40.198  1.00  0.00    -0.341 N 
HETATM    4  H   UNL     1      28.466  48.120  41.133  1.00  0.00     0.164 HD
BRANCH   3   5
HETATM    5  C   UNL     1      28.288  49.092  39.295  1.00  0.00     0.241 C 
BRANCH   5   6
HETATM    6  N   UNL     1      28.634  50.414  39.808  1.00  0.00    -0.336 N 
HETATM    7  C   UNL     1      28.413  50.813  41.099  1.00  0.00     0.219 C 
HETATM    8  O   UNL     1      27.908  50.079  41.940  1.00  0.00    -0.274 OA
HETATM    9  H   UNL     1      29.172  51.022  39.205  1.00  0.00     0.164 HD
BRANCH   7  10
HETATM   10  C   UNL     1      28.866  52.222  41.419  1.00  0.00     0.102 C 
BRANCH  10  11
HETATM   11  C   UNL     1      29.849  52.780  40.394  1.00  0.00     0.005 C 
HETATM   12  C   UNL     1      30.956  53.622  41.011  1.00  0.00     0.005 C 
ENDBRANCH  10  11
ENDBRANCH   7  10
ENDBRANCH   5   6
BRANCH   5  13
HETATM   13  C   UNL     1      26.765  48.830  38.897  1.00  0.00     0.226 C 
HETATM   14 CL   UNL     1      25.977  50.344  38.317  1.00  0.00    -0.080 Cl
HETATM   15 CL   UNL     1      26.705  47.660  37.511  1.00  0.00    -0.080 Cl
HETATM   16 CL   UNL     1      25.773  48.118  40.207  1.00  0.00    -0.080 Cl
ENDBRANCH   5  13
ENDBRANCH   3   5
ENDBRANCH   1   3
BRANCH   1  17
HETATM   17  N   UNL     1      31.003  47.191  39.964  1.00  0.00    -0.274 N 
HETATM   18  H   UNL     1      31.584  47.083  39.136  1.00  0.00     0.189 HD
BRANCH  17  19
HETATM   19  N   UNL     1      31.608  47.973  40.959  1.00  0.00    -0.264 N 
HETATM   20  C   UNL     1      31.896  49.289  40.667  1.00  0.00     0.272 C 
HETATM   21  O   UNL     1      31.706  49.776  39.552  1.00  0.00    -0.266 OA
HETATM   22  H   UNL     1      31.848  47.504  41.829  1.00  0.00     0.190 HD
BRANCH  20  23
HETATM   23  C   UNL     1      32.485  50.117  41.752  1.00  0.00     0.066 A 
HETATM   24  C   UNL     1      33.805  50.578  41.629  1.00  0.00     0.081 A 
HETATM   25  C   UNL     1      34.384  51.348  42.636  1.00  0.00     0.037 A 
HETATM   26  C   UNL     1      33.642  51.685  43.768  1.00  0.00     0.003 A 
HETATM   27  C   UNL     1      32.321  51.257  43.890  1.00  0.00     0.001 A 
HETATM   28  C   UNL     1      31.740  50.477  42.885  1.00  0.00     0.020 A 
BRANCH  24  29
HETATM   29  O   UNL     1      34.595  50.313  40.542  1.00  0.00    -0.360 OA
HETATM   30  H   UNL     1      35.168  51.095  40.383  1.00  0.00     0.217 HD
ENDBRANCH  24  29
ENDBRANCH  20  23
ENDBRANCH  17  19
ENDBRANCH   1  17
TORSDOF 10
ENDMDL
MODEL 7
REMARK VINA RESULT:      -7.1      8.476     10.395
REMARK  10 active torsions:
REMARK  status: ('A' for Active; 'I' for Inactive)
REMARK    1  A    between atoms: C_2  and  C_3 
REMARK    2  A    between atoms: C_3  and  C_4 
REMARK       I    between atoms: C_4  and  N_5 
REMARK    3  A    between atoms: N_5  and  C_6 
REMARK    4  A    between atoms: C_6  and  N_7 
REMARK    5  A    between atoms: C_6  and  C_21 
REMARK    6  A    between atoms: N_7  and  C_8 
REMARK    7  A    between atoms: C_8  and  N_9 
REMARK    8  A    between atoms: N_9  and  N_10 
REMARK       I    between atoms: N_10  and  C_11 
REMARK    9  A    between atoms: C_11  and  C_12 
REMARK   10  A    between atoms: C_13  and  O_14 
ROOT
HETATM    1  C   UNL     1      26.752  41.550  51.363  1.00  0.00     0.188 C 
HETATM    2  S   UNL     1      27.046  43.050  50.678  1.00  0.00    -0.039 SA
ENDROOT
BRANCH   1   3
HETATM    3  N   UNL     1      25.998  40.671  50.660  1.00  0.00    -0.341 N 
HETATM    4  H   UNL     1      25.097  40.464  51.086  1.00  0.00     0.164 HD
BRANCH   3   5
HETATM    5  C   UNL     1      26.351  39.765  49.571  1.00  0.00     0.241 C 
BRANCH   5   6
HETATM    6  N   UNL     1      27.739  39.358  49.772  1.00  0.00    -0.336 N 
HETATM    7  C   UNL     1      28.215  38.106  49.489  1.00  0.00     0.219 C 
HETATM    8  O   UNL     1      27.506  37.219  49.030  1.00  0.00    -0.274 OA
HETATM    9  H   UNL     1      28.403  40.078  50.023  1.00  0.00     0.164 HD
BRANCH   7  10
HETATM   10  C   UNL     1      29.691  37.908  49.759  1.00  0.00     0.102 C 
BRANCH  10  11
HETATM   11  C   UNL     1      30.003  37.678  51.235  1.00  0.00     0.005 C 
HETATM   12  C   UNL     1      29.868  36.225  51.665  1.00  0.00     0.005 C 
ENDBRANCH  10  11
ENDBRANCH   7  10
ENDBRANCH   5   6
BRANCH   5  13
HETATM   13  C   UNL     1      25.931  40.263  48.114  1.00  0.00     0.226 C 
HETATM   14 CL   UNL     1      25.199  38.921  47.158  1.00  0.00    -0.080 Cl
HETATM   15 CL   UNL     1      24.651  41.539  48.268  1.00  0.00    -0.080 Cl
HETATM   16 CL   UNL     1      27.267  40.993  47.172  1.00  0.00    -0.080 Cl
ENDBRANCH   5  13
ENDBRANCH   3   5
ENDBRANCH   1   3
BRANCH   1  17
HETATM   17  N   UNL     1      27.213  41.157  52.590  1.00  0.00    -0.274 N 
HETATM   18  H   UNL     1      27.583  40.227  52.771  1.00  0.00     0.189 HD
BRANCH  17  19
HETATM   19  N   UNL     1      27.651  42.110  53.521  1.00  0.00    -0.264 N 
HETATM   20  C   UNL     1      28.999  42.399  53.572  1.00  0.00     0.272 C 
HETATM   21  O   UNL     1      29.829  41.803  52.885  1.00  0.00    -0.266 OA
HETATM   22  H   UNL     1      26.948  42.500  54.144  1.00  0.00     0.190 HD
BRANCH  20  23
HETATM   23  C   UNL     1      29.436  43.452  54.525  1.00  0.00     0.066 A 
HETATM   24  C   UNL     1      28.759  44.682  54.552  1.00  0.00     0.081 A 
HETATM   25  C   UNL     1      29.155  45.690  55.430  1.00  0.00     0.037 A 
HETATM   26  C   UNL     1      30.217  45.471  56.307  1.00  0.00     0.003 A 
HETATM   27  C   UNL     1      30.880  44.245  56.310  1.00  0.00     0.001 A 
HETATM   28  C   UNL     1      30.491  43.235  55.423  1.00  0.00     0.020 A 
BRANCH  24  29
HETATM   29  O   UNL     1      27.693  44.970  53.743  1.00  0.00    -0.360 OA
HETATM   30  H   UNL     1      27.941  44.746  52.820  1.00  0.00     0.217 HD
ENDBRANCH  24  29
ENDBRANCH  20  23
ENDBRANCH  17  19
ENDBRANCH   1  17
TORSDOF 10
ENDMDL
MODEL 8
REMARK VINA RESULT:      -7.0      7.815     10.914
REMARK  10 active torsions:
REMARK  status: ('A' for Active; 'I' for Inactive)
REMARK    1  A    between atoms: C_2  and  C_3 
REMARK    2  A    between atoms: C_3  and  C_4 
REMARK       I    between atoms: C_4  and  N_5 
REMARK    3  A    between atoms: N_5  and  C_6 
REMARK    4  A    between atoms: C_6  and  N_7 
REMARK    5  A    between atoms: C_6  and  C_21 
REMARK    6  A    between atoms: N_7  and  C_8 
REMARK    7  A    between atoms: C_8  and  N_9 
REMARK    8  A    between atoms: N_9  and  N_10 
REMARK       I    between atoms: N_10  and  C_11 
REMARK    9  A    between atoms: C_11  and  C_12 
REMARK   10  A    between atoms: C_13  and  O_14 
ROOT
HETATM    1  C   UNL     1      27.053  42.145  51.698  1.00  0.00     0.188 C 
HETATM    2  S   UNL     1      26.500  42.970  50.350  1.00  0.00    -0.039 SA
ENDROOT
BRANCH   1   3
HETATM    3  N   UNL     1      26.970  42.770  52.898  1.00  0.00    -0.341 N 
HETATM    4  H   UNL     1      26.242  42.401  53.508  1.00  0.00     0.164 HD
BRANCH   3   5
HETATM    5  C   UNL     1      27.531  44.035  53.358  1.00  0.00     0.241 C 
BRANCH   5   6
HETATM    6  N   UNL     1      28.601  43.724  54.302  1.00  0.00    -0.336 N 
HETATM    7  C   UNL     1      29.810  43.195  53.937  1.00  0.00     0.219 C 
HETATM    8  O   UNL     1      30.097  42.946  52.772  1.00  0.00    -0.274 OA
HETATM    9  H   UNL     1      28.480  44.026  55.259  1.00  0.00     0.164 HD
BRANCH   7  10
HETATM   10  C   UNL     1      30.779  42.967  55.078  1.00  0.00     0.102 C 
BRANCH  10  11
HETATM   11  C   UNL     1      30.819  44.128  56.068  1.00  0.00     0.005 C 
HETATM   12  C   UNL     1      31.558  43.800  57.357  1.00  0.00     0.005 C 
ENDBRANCH  10  11
ENDBRANCH   7  10
ENDBRANCH   5   6
BRANCH   5  13
HETATM   13  C   UNL     1      26.459  45.133  53.794  1.00  0.00     0.226 C 
HETATM   14 CL   UNL     1      27.179  46.321  54.943  1.00  0.00    -0.080 Cl
HETATM   15 CL   UNL     1      25.948  46.080  52.333  1.00  0.00    -0.080 Cl
HETATM   16 CL   UNL     1      24.963  44.457  54.511  1.00  0.00    -0.080 Cl
ENDBRANCH   5  13
ENDBRANCH   3   5
ENDBRANCH   1   3
BRANCH   1  17
HETATM   17  N   UNL     1      27.594  40.889  51.668  1.00  0.00    -0.274 N 
HETATM   18  H   UNL     1      27.871  40.385  52.507  1.00  0.00     0.189 HD
BRANCH  17  19
HETATM   19  N   UNL     1      27.361  40.043  50.574  1.00  0.00    -0.264 N 
HETATM   20  C   UNL     1      28.315  39.094  50.271  1.00  0.00     0.272 C 
HETATM   21  O   UNL     1      29.384  39.013  50.877  1.00  0.00    -0.266 OA
HETATM   22  H   UNL     1      26.517  40.214  50.034  1.00  0.00     0.190 HD
BRANCH  20  23
HETATM   23  C   UNL     1      28.024  38.170  49.144  1.00  0.00     0.066 A 
HETATM   24  C   UNL     1      26.920  37.308  49.226  1.00  0.00     0.081 A 
HETATM   25  C   UNL     1      26.630  36.425  48.187  1.00  0.00     0.037 A 
HETATM   26  C   UNL     1      27.429  36.410  47.044  1.00  0.00     0.003 A 
HETATM   27  C   UNL     1      28.512  37.281  46.937  1.00  0.00     0.001 A 
HETATM   28  C   UNL     1      28.810  38.161  47.982  1.00  0.00     0.020 A 
BRANCH  24  29
HETATM   29  O   UNL     1      26.072  37.274  50.300  1.00  0.00    -0.360 OA
HETATM   30  H   UNL     1      26.615  37.297  51.118  1.00  0.00     0.217 HD
ENDBRANCH  24  29
ENDBRANCH  20  23
ENDBRANCH  17  19
ENDBRANCH   1  17
TORSDOF 10
ENDMDL
MODEL 9
REMARK VINA RESULT:      -7.0     10.881     12.931
REMARK  10 active torsions:
REMARK  status: ('A' for Active; 'I' for Inactive)
REMARK    1  A    between atoms: C_2  and  C_3 
REMARK    2  A    between atoms: C_3  and  C_4 
REMARK       I    between atoms: C_4  and  N_5 
REMARK    3  A    between atoms: N_5  and  C_6 
REMARK    4  A    between atoms: C_6  and  N_7 
REMARK    5  A    between atoms: C_6  and  C_21 
REMARK    6  A    between atoms: N_7  and  C_8 
REMARK    7  A    between atoms: C_8  and  N_9 
REMARK    8  A    between atoms: N_9  and  N_10 
REMARK       I    between atoms: N_10  and  C_11 
REMARK    9  A    between atoms: C_11  and  C_12 
REMARK   10  A    between atoms: C_13  and  O_14 
ROOT
HETATM    1  C   UNL     1      29.929  47.304  39.427  1.00  0.00     0.188 C 
HETATM    2  S   UNL     1      29.428  45.738  39.106  1.00  0.00    -0.039 SA
ENDROOT
BRANCH   1   3
HETATM    3  N   UNL     1      29.013  48.170  39.924  1.00  0.00    -0.341 N 
HETATM    4  H   UNL     1      28.824  48.050  40.917  1.00  0.00     0.164 HD
BRANCH   3   5
HETATM    5  C   UNL     1      28.056  49.041  39.249  1.00  0.00     0.241 C 
BRANCH   5   6
HETATM    6  N   UNL     1      28.247  50.391  39.773  1.00  0.00    -0.336 N 
HETATM    7  C   UNL     1      28.258  50.697  41.107  1.00  0.00     0.219 C 
HETATM    8  O   UNL     1      28.116  49.850  41.980  1.00  0.00    -0.274 OA
HETATM    9  H   UNL     1      28.501  51.114  39.113  1.00  0.00     0.164 HD
BRANCH   7  10
HETATM   10  C   UNL     1      28.488  52.159  41.425  1.00  0.00     0.102 C 
BRANCH  10  11
HETATM   11  C   UNL     1      29.420  52.847  40.431  1.00  0.00     0.005 C 
HETATM   12  C   UNL     1      30.766  53.233  41.027  1.00  0.00     0.005 C 
ENDBRANCH  10  11
ENDBRANCH   7  10
ENDBRANCH   5   6
BRANCH   5  13
HETATM   13  C   UNL     1      26.564  48.480  39.179  1.00  0.00     0.226 C 
HETATM   14 CL   UNL     1      26.347  47.395  37.756  1.00  0.00    -0.080 Cl
HETATM   15 CL   UNL     1      26.239  47.468  40.649  1.00  0.00    -0.080 Cl
HETATM   16 CL   UNL     1      25.301  49.750  39.147  1.00  0.00    -0.080 Cl
ENDBRANCH   5  13
ENDBRANCH   3   5
ENDBRANCH   1   3
BRANCH   1  17
HETATM   17  N   UNL     1      31.197  47.770  39.209  1.00  0.00    -0.274 N 
HETATM   18  H   UNL     1      31.673  47.680  38.315  1.00  0.00     0.189 HD
BRANCH  17  19
HETATM   19  N   UNL     1      31.722  48.794  40.010  1.00  0.00    -0.264 N 
HETATM   20  C   UNL     1      32.673  48.460  40.952  1.00  0.00     0.272 C 
HETATM   21  O   UNL     1      33.019  47.296  41.159  1.00  0.00    -0.266 OA
HETATM   22  H   UNL     1      31.332  49.724  39.881  1.00  0.00     0.190 HD
BRANCH  20  23
HETATM   23  C   UNL     1      33.260  49.567  41.751  1.00  0.00     0.066 A 
HETATM   24  C   UNL     1      32.449  50.270  42.656  1.00  0.00     0.081 A 
HETATM   25  C   UNL     1      32.973  51.318  43.411  1.00  0.00     0.037 A 
HETATM   26  C   UNL     1      34.319  51.660  43.287  1.00  0.00     0.003 A 
HETATM   27  C   UNL     1      35.142  50.952  42.413  1.00  0.00     0.001 A 
HETATM   28  C   UNL     1      34.617  49.906  41.647  1.00  0.00     0.020 A 
BRANCH  24  29
HETATM   29  O   UNL     1      31.125  49.984  42.856  1.00  0.00    -0.360 OA
HETATM   30  H   UNL     1      30.853  49.315  42.191  1.00  0.00     0.217 HD
ENDBRANCH  24  29
ENDBRANCH  20  23
ENDBRANCH  17  19
ENDBRANCH   1  17
TORSDOF 10
ENDMDL
MODEL 10
REMARK VINA RESULT:      -7.0     11.730     13.301
REMARK  10 active torsions:
REMARK  status: ('A' for Active; 'I' for Inactive)
REMARK    1  A    between atoms: C_2  and  C_3 
REMARK    2  A    between atoms: C_3  and  C_4 
REMARK       I    between atoms: C_4  and  N_5 
REMARK    3  A    between atoms: N_5  and  C_6 
REMARK    4  A    between atoms: C_6  and  N_7 
REMARK    5  A    between atoms: C_6  and  C_21 
REMARK    6  A    between atoms: N_7  and  C_8 
REMARK    7  A    between atoms: C_8  and  N_9 
REMARK    8  A    between atoms: N_9  and  N_10 
REMARK       I    between atoms: N_10  and  C_11 
REMARK    9  A    between atoms: C_11  and  C_12 
REMARK   10  A    between atoms: C_13  and  O_14 
ROOT
HETATM    1  C   UNL     1      32.437  50.574  43.041  1.00  0.00     0.188 C 
HETATM    2  S   UNL     1      32.533  51.696  44.281  1.00  0.00    -0.039 SA
ENDROOT
BRANCH   1   3
HETATM    3  N   UNL     1      33.021  50.887  41.859  1.00  0.00    -0.341 N 
HETATM    4  H   UNL     1      33.864  50.352  41.658  1.00  0.00     0.164 HD
BRANCH   3   5
HETATM    5  C   UNL     1      32.826  52.026  40.969  1.00  0.00     0.241 C 
BRANCH   5   6
HETATM    6  N   UNL     1      31.388  52.183  40.765  1.00  0.00    -0.336 N 
HETATM    7  C   UNL     1      30.754  53.395  40.709  1.00  0.00     0.219 C 
HETATM    8  O   UNL     1      31.352  54.458  40.817  1.00  0.00    -0.274 OA
HETATM    9  H   UNL     1      30.857  51.353  40.537  1.00  0.00     0.164 HD
BRANCH   7  10
HETATM   10  C   UNL     1      29.260  53.324  40.473  1.00  0.00     0.102 C 
BRANCH  10  11
HETATM   11  C   UNL     1      28.765  51.905  40.206  1.00  0.00     0.005 C 
HETATM   12  C   UNL     1      27.682  51.448  41.174  1.00  0.00     0.005 C 
ENDBRANCH  10  11
ENDBRANCH   7  10
ENDBRANCH   5   6
BRANCH   5  13
HETATM   13  C   UNL     1      33.761  52.043  39.676  1.00  0.00     0.226 C 
HETATM   14 CL   UNL     1      35.198  50.979  39.903  1.00  0.00    -0.080 Cl
HETATM   15 CL   UNL     1      32.840  51.365  38.268  1.00  0.00    -0.080 Cl
HETATM   16 CL   UNL     1      34.311  53.675  39.186  1.00  0.00    -0.080 Cl
ENDBRANCH   5  13
ENDBRANCH   3   5
ENDBRANCH   1   3
BRANCH   1  17
HETATM   17  N   UNL     1      31.798  49.367  43.139  1.00  0.00    -0.274 N 
HETATM   18  H   UNL     1      31.931  48.733  43.923  1.00  0.00     0.189 HD
BRANCH  17  19
HETATM   19  N   UNL     1      30.598  49.143  42.451  1.00  0.00    -0.264 N 
HETATM   20  C   UNL     1      30.655  48.487  41.239  1.00  0.00     0.272 C 
HETATM   21  O   UNL     1      31.720  48.158  40.715  1.00  0.00    -0.266 OA
HETATM   22  H   UNL     1      29.752  49.526  42.866  1.00  0.00     0.190 HD
BRANCH  20  23
HETATM   23  C   UNL     1      29.367  48.208  40.552  1.00  0.00     0.066 A 
HETATM   24  C   UNL     1      29.256  48.445  39.173  1.00  0.00     0.081 A 
HETATM   25  C   UNL     1      28.057  48.200  38.506  1.00  0.00     0.037 A 
HETATM   26  C   UNL     1      26.961  47.695  39.206  1.00  0.00     0.003 A 
HETATM   27  C   UNL     1      27.067  47.429  40.570  1.00  0.00     0.001 A 
HETATM   28  C   UNL     1      28.266  47.682  41.244  1.00  0.00     0.020 A 
BRANCH  24  29
HETATM   29  O   UNL     1      30.287  48.917  38.406  1.00  0.00    -0.360 OA
HETATM   30  H   UNL     1      30.695  48.155  37.940  1.00  0.00     0.217 HD
ENDBRANCH  24  29
ENDBRANCH  20  23
ENDBRANCH  17  19
ENDBRANCH   1  17
TORSDOF 10
ENDMDL
