MODEL 1
REMARK VINA RESULT:      -9.9      0.000      0.000
REMARK  4 active torsions:
REMARK  status: ('A' for Active; 'I' for Inactive)
REMARK    1  A    between atoms: C_6  and  C_7 
REMARK    2  A    between atoms: C_14  and  C_15 
REMARK       I    between atoms: C_15  and  N_16 
REMARK    3  A    between atoms: N_16  and  N_17 
REMARK       I    between atoms: N_17  and  C_18 
REMARK       I    between atoms: C_18  and  N_19 
REMARK    4  A    between atoms: N_19  and  C_20 
ROOT
HETATM    1  C   UNL     1      24.600  43.858  50.796  1.00  0.00     0.271 C 
HETATM    2  N   UNL     1      24.802  44.759  49.776  1.00  0.00    -0.262 N 
HETATM    3  O   UNL     1      23.493  43.463  51.143  1.00  0.00    -0.266 OA
HETATM    4  H   UNL     1      25.715  45.093  49.465  1.00  0.00     0.190 HD
ENDROOT
BRANCH   1   5
HETATM    5  C   UNL     1      25.837  43.389  51.461  1.00  0.00     0.048 A 
HETATM    6  C   UNL     1      26.475  42.196  51.060  1.00  0.00     0.009 A 
HETATM    7  C   UNL     1      26.023  41.336  50.026  1.00  0.00     0.015 A 
HETATM    8  C   UNL     1      27.662  41.877  51.742  1.00  0.00     0.068 A 
HETATM    9  C   UNL     1      26.735  40.188  49.684  1.00  0.00     0.001 A 
HETATM   10  C   UNL     1      27.905  39.883  50.364  1.00  0.00     0.002 A 
HETATM   11  C   UNL     1      28.353  40.729  51.381  1.00  0.00     0.032 A 
HETATM   12  N   UNL     1      28.167  42.643  52.726  1.00  0.00    -0.248 NA
HETATM   13  C   UNL     1      27.524  43.772  53.113  1.00  0.00     0.070 A 
HETATM   14  C   UNL     1      26.356  44.178  52.492  1.00  0.00     0.050 A 
BRANCH  13  15
HETATM   15  C   UNL     1      28.168  44.525  54.204  1.00  0.00     0.010 A 
HETATM   16  C   UNL     1      27.630  45.697  54.741  1.00  0.00     0.130 A 
HETATM   17  N   UNL     1      28.190  46.435  55.732  1.00  0.00    -0.272 NA
HETATM   18  C   UNL     1      29.355  45.982  56.239  1.00  0.00     0.116 A 
HETATM   19  C   UNL     1      29.980  44.829  55.803  1.00  0.00     0.020 A 
HETATM   20  C   UNL     1      29.376  44.099  54.779  1.00  0.00     0.017 A 
ENDBRANCH  13  15
ENDBRANCH   1   5
BRANCH   2  21
HETATM   21  N   UNL     1      23.690  45.250  49.078  1.00  0.00    -0.249 N 
HETATM   22  C   UNL     1      23.335  46.567  49.329  1.00  0.00     0.339 C 
HETATM   23  N   UNL     1      22.194  46.923  48.644  1.00  0.00    -0.308 N 
HETATM   24  O   UNL     1      24.024  47.287  50.044  1.00  0.00    -0.245 OA
HETATM   25  H   UNL     1      21.868  46.248  47.967  1.00  0.00     0.170 HD
HETATM   26  H   UNL     1      22.967  44.555  48.900  1.00  0.00     0.192 HD
BRANCH  23  27
HETATM   27  C   UNL     1      21.544  48.174  48.658  1.00  0.00     0.038 A 
HETATM   28  C   UNL     1      20.380  48.440  49.384  1.00  0.00     0.055 A 
HETATM   29  C   UNL     1      19.798  49.714  49.359  1.00  0.00     0.058 A 
HETATM   30 CL   UNL     1      18.359  49.963  50.286  1.00  0.00    -0.082 Cl
HETATM   31  C   UNL     1      20.379  50.735  48.599  1.00  0.00     0.055 A 
HETATM   32 CL   UNL     1      19.723  52.330  48.524  1.00  0.00    -0.083 Cl
HETATM   33  C   UNL     1      21.535  50.472  47.863  1.00  0.00     0.028 A 
HETATM   34  C   UNL     1      22.112  49.198  47.890  1.00  0.00     0.031 A 
ENDBRANCH  23  27
ENDBRANCH   2  21
TORSDOF 4
ENDMDL
MODEL 2
REMARK VINA RESULT:      -9.8      4.668     10.066
REMARK  4 active torsions:
REMARK  status: ('A' for Active; 'I' for Inactive)
REMARK    1  A    between atoms: C_6  and  C_7 
REMARK    2  A    between atoms: C_14  and  C_15 
REMARK       I    between atoms: C_15  and  N_16 
REMARK    3  A    between atoms: N_16  and  N_17 
REMARK       I    between atoms: N_17  and  C_18 
REMARK       I    between atoms: C_18  and  N_19 
REMARK    4  A    between atoms: N_19  and  C_20 
ROOT
HETATM    1  C   UNL     1      25.042  45.886  50.417  1.00  0.00     0.271 C 
HETATM    2  N   UNL     1      24.986  46.042  51.783  1.00  0.00    -0.262 N 
HETATM    3  O   UNL     1      25.553  44.917  49.865  1.00  0.00    -0.266 OA
HETATM    4  H   UNL     1      24.558  46.835  52.262  1.00  0.00     0.190 HD
ENDROOT
BRANCH   1   5
HETATM    5  C   UNL     1      24.434  46.991  49.642  1.00  0.00     0.048 A 
HETATM    6  C   UNL     1      25.206  48.088  49.207  1.00  0.00     0.009 A 
HETATM    7  C   UNL     1      26.591  48.264  49.457  1.00  0.00     0.015 A 
HETATM    8  C   UNL     1      24.523  49.054  48.447  1.00  0.00     0.068 A 
HETATM    9  C   UNL     1      27.276  49.373  48.964  1.00  0.00     0.001 A 
HETATM   10  C   UNL     1      26.592  50.320  48.216  1.00  0.00     0.002 A 
HETATM   11  C   UNL     1      25.228  50.149  47.967  1.00  0.00     0.032 A 
HETATM   12  N   UNL     1      23.214  48.960  48.152  1.00  0.00    -0.248 NA
HETATM   13  C   UNL     1      22.485  47.909  48.602  1.00  0.00     0.070 A 
HETATM   14  C   UNL     1      23.071  46.899  49.346  1.00  0.00     0.050 A 
BRANCH  13  15
HETATM   15  C   UNL     1      21.061  47.917  48.224  1.00  0.00     0.010 A 
HETATM   16  C   UNL     1      20.028  48.080  49.149  1.00  0.00     0.130 A 
HETATM   17  N   UNL     1      18.703  48.077  48.855  1.00  0.00    -0.272 NA
HETATM   18  C   UNL     1      18.372  47.917  47.557  1.00  0.00     0.116 A 
HETATM   19  C   UNL     1      19.303  47.761  46.547  1.00  0.00     0.020 A 
HETATM   20  C   UNL     1      20.654  47.764  46.888  1.00  0.00     0.017 A 
ENDBRANCH  13  15
ENDBRANCH   1   5
BRANCH   2  21
HETATM   21  N   UNL     1      25.525  45.039  52.601  1.00  0.00    -0.249 N 
HETATM   22  C   UNL     1      26.725  45.333  53.230  1.00  0.00     0.339 C 
HETATM   23  N   UNL     1      27.196  44.258  53.952  1.00  0.00    -0.308 N 
HETATM   24  O   UNL     1      27.228  46.450  53.153  1.00  0.00    -0.245 OA
HETATM   25  H   UNL     1      26.555  43.482  54.038  1.00  0.00     0.170 HD
HETATM   26  H   UNL     1      25.341  44.091  52.277  1.00  0.00     0.192 HD
BRANCH  23  27
HETATM   27  C   UNL     1      28.381  44.193  54.712  1.00  0.00     0.038 A 
HETATM   28  C   UNL     1      28.700  45.087  55.738  1.00  0.00     0.055 A 
HETATM   29  C   UNL     1      29.894  44.950  56.459  1.00  0.00     0.058 A 
HETATM   30 CL   UNL     1      30.214  46.096  57.714  1.00  0.00    -0.082 Cl
HETATM   31  C   UNL     1      30.782  43.913  56.153  1.00  0.00     0.055 A 
HETATM   32 CL   UNL     1      32.267  43.678  57.002  1.00  0.00    -0.083 Cl
HETATM   33  C   UNL     1      30.473  43.024  55.123  1.00  0.00     0.028 A 
HETATM   34  C   UNL     1      29.282  43.166  54.405  1.00  0.00     0.031 A 
ENDBRANCH  23  27
ENDBRANCH   2  21
TORSDOF 4
ENDMDL
MODEL 3
REMARK VINA RESULT:      -9.7      1.097      1.607
REMARK  4 active torsions:
REMARK  status: ('A' for Active; 'I' for Inactive)
REMARK    1  A    between atoms: C_6  and  C_7 
REMARK    2  A    between atoms: C_14  and  C_15 
REMARK       I    between atoms: C_15  and  N_16 
REMARK    3  A    between atoms: N_16  and  N_17 
REMARK       I    between atoms: N_17  and  C_18 
REMARK       I    between atoms: C_18  and  N_19 
REMARK    4  A    between atoms: N_19  and  C_20 
ROOT
HETATM    1  C   UNL     1      24.975  43.258  50.956  1.00  0.00     0.271 C 
HETATM    2  N   UNL     1      25.091  43.991  49.798  1.00  0.00    -0.262 N 
HETATM    3  O   UNL     1      23.909  43.062  51.531  1.00  0.00    -0.266 OA
HETATM    4  H   UNL     1      25.965  44.158  49.299  1.00  0.00     0.190 HD
ENDROOT
BRANCH   1   5
HETATM    5  C   UNL     1      26.250  42.712  51.474  1.00  0.00     0.048 A 
HETATM    6  C   UNL     1      26.803  41.525  50.949  1.00  0.00     0.009 A 
HETATM    7  C   UNL     1      26.225  40.741  49.917  1.00  0.00     0.015 A 
HETATM    8  C   UNL     1      28.036  41.130  51.497  1.00  0.00     0.068 A 
HETATM    9  C   UNL     1      26.860  39.593  49.446  1.00  0.00     0.001 A 
HETATM   10  C   UNL     1      28.076  39.213  49.994  1.00  0.00     0.002 A 
HETATM   11  C   UNL     1      28.647  39.983  51.009  1.00  0.00     0.032 A 
HETATM   12  N   UNL     1      28.659  41.820  52.468  1.00  0.00    -0.248 NA
HETATM   13  C   UNL     1      28.097  42.945  52.977  1.00  0.00     0.070 A 
HETATM   14  C   UNL     1      26.891  43.423  52.492  1.00  0.00     0.050 A 
BRANCH  13  15
HETATM   15  C   UNL     1      28.867  43.613  54.041  1.00  0.00     0.010 A 
HETATM   16  C   UNL     1      28.512  44.855  54.572  1.00  0.00     0.130 A 
HETATM   17  N   UNL     1      29.195  45.519  55.539  1.00  0.00    -0.272 NA
HETATM   18  C   UNL     1      30.296  44.912  56.026  1.00  0.00     0.116 A 
HETATM   19  C   UNL     1      30.741  43.677  55.593  1.00  0.00     0.020 A 
HETATM   20  C   UNL     1      30.017  43.027  54.595  1.00  0.00     0.017 A 
ENDBRANCH  13  15
ENDBRANCH   1   5
BRANCH   2  21
HETATM   21  N   UNL     1      23.934  44.537  49.224  1.00  0.00    -0.249 N 
HETATM   22  C   UNL     1      23.779  45.910  49.334  1.00  0.00     0.339 C 
HETATM   23  N   UNL     1      22.582  46.330  48.798  1.00  0.00    -0.308 N 
HETATM   24  O   UNL     1      24.661  46.614  49.816  1.00  0.00    -0.245 OA
HETATM   25  H   UNL     1      22.066  45.626  48.289  1.00  0.00     0.170 HD
HETATM   26  H   UNL     1      23.118  43.929  49.269  1.00  0.00     0.192 HD
BRANCH  23  27
HETATM   27  C   UNL     1      22.089  47.649  48.735  1.00  0.00     0.038 A 
HETATM   28  C   UNL     1      22.881  48.765  48.450  1.00  0.00     0.055 A 
HETATM   29  C   UNL     1      22.315  50.046  48.393  1.00  0.00     0.058 A 
HETATM   30 CL   UNL     1      23.362  51.374  48.031  1.00  0.00    -0.082 Cl
HETATM   31  C   UNL     1      20.948  50.219  48.627  1.00  0.00     0.055 A 
HETATM   32 CL   UNL     1      20.180  51.765  48.567  1.00  0.00    -0.083 Cl
HETATM   33  C   UNL     1      20.154  49.110  48.923  1.00  0.00     0.028 A 
HETATM   34  C   UNL     1      20.723  47.833  48.981  1.00  0.00     0.031 A 
ENDBRANCH  23  27
ENDBRANCH   2  21
TORSDOF 4
ENDMDL
MODEL 4
REMARK VINA RESULT:      -9.4      1.745      2.372
REMARK  4 active torsions:
REMARK  status: ('A' for Active; 'I' for Inactive)
REMARK    1  A    between atoms: C_6  and  C_7 
REMARK    2  A    between atoms: C_14  and  C_15 
REMARK       I    between atoms: C_15  and  N_16 
REMARK    3  A    between atoms: N_16  and  N_17 
REMARK       I    between atoms: N_17  and  C_18 
REMARK       I    between atoms: C_18  and  N_19 
REMARK    4  A    between atoms: N_19  and  C_20 
ROOT
HETATM    1  C   UNL     1      25.948  46.733  51.812  1.00  0.00     0.271 C 
HETATM    2  N   UNL     1      26.054  46.995  50.466  1.00  0.00    -0.262 N 
HETATM    3  O   UNL     1      25.370  47.470  52.604  1.00  0.00    -0.266 OA
HETATM    4  H   UNL     1      26.521  46.391  49.789  1.00  0.00     0.190 HD
ENDROOT
BRANCH   1   5
HETATM    5  C   UNL     1      26.593  45.475  52.251  1.00  0.00     0.048 A 
HETATM    6  C   UNL     1      26.293  44.245  51.629  1.00  0.00     0.009 A 
HETATM    7  C   UNL     1      25.371  44.070  50.565  1.00  0.00     0.015 A 
HETATM    8  C   UNL     1      26.999  43.128  52.109  1.00  0.00     0.068 A 
HETATM    9  C   UNL     1      25.158  42.816  49.998  1.00  0.00     0.001 A 
HETATM   10  C   UNL     1      25.860  41.721  50.480  1.00  0.00     0.002 A 
HETATM   11  C   UNL     1      26.769  41.889  51.526  1.00  0.00     0.032 A 
HETATM   12  N   UNL     1      27.900  43.206  53.105  1.00  0.00    -0.248 NA
HETATM   13  C   UNL     1      28.155  44.395  53.706  1.00  0.00     0.070 A 
HETATM   14  C   UNL     1      27.521  45.554  53.294  1.00  0.00     0.050 A 
BRANCH  13  15
HETATM   15  C   UNL     1      29.155  44.356  54.788  1.00  0.00     0.010 A 
HETATM   16  C   UNL     1      29.266  45.356  55.757  1.00  0.00     0.130 A 
HETATM   17  N   UNL     1      30.178  45.376  56.762  1.00  0.00    -0.272 NA
HETATM   18  C   UNL     1      31.031  44.334  56.826  1.00  0.00     0.116 A 
HETATM   19  C   UNL     1      31.011  43.277  55.935  1.00  0.00     0.020 A 
HETATM   20  C   UNL     1      30.064  43.293  54.913  1.00  0.00     0.017 A 
ENDBRANCH  13  15
ENDBRANCH   1   5
BRANCH   2  21
HETATM   21  N   UNL     1      25.461  48.158  49.955  1.00  0.00    -0.249 N 
HETATM   22  C   UNL     1      24.138  48.052  49.554  1.00  0.00     0.339 C 
HETATM   23  N   UNL     1      23.677  49.230  49.008  1.00  0.00    -0.308 N 
HETATM   24  O   UNL     1      23.498  47.021  49.737  1.00  0.00    -0.245 OA
HETATM   25  H   UNL     1      24.297  50.021  49.104  1.00  0.00     0.170 HD
HETATM   26  H   UNL     1      26.099  48.763  49.441  1.00  0.00     0.192 HD
BRANCH  23  27
HETATM   27  C   UNL     1      22.390  49.488  48.495  1.00  0.00     0.038 A 
HETATM   28  C   UNL     1      21.690  50.679  48.707  1.00  0.00     0.055 A 
HETATM   29  C   UNL     1      20.417  50.867  48.153  1.00  0.00     0.058 A 
HETATM   30 CL   UNL     1      19.617  52.370  48.460  1.00  0.00    -0.082 Cl
HETATM   31  C   UNL     1      19.831  49.857  47.383  1.00  0.00     0.055 A 
HETATM   32 CL   UNL     1      18.270  50.019  46.665  1.00  0.00    -0.083 Cl
HETATM   33  C   UNL     1      20.521  48.661  47.178  1.00  0.00     0.028 A 
HETATM   34  C   UNL     1      21.791  48.477  47.734  1.00  0.00     0.031 A 
ENDBRANCH  23  27
ENDBRANCH   2  21
TORSDOF 4
ENDMDL
MODEL 5
REMARK VINA RESULT:      -9.4      2.687      3.708
REMARK  4 active torsions:
REMARK  status: ('A' for Active; 'I' for Inactive)
REMARK    1  A    between atoms: C_6  and  C_7 
REMARK    2  A    between atoms: C_14  and  C_15 
REMARK       I    between atoms: C_15  and  N_16 
REMARK    3  A    between atoms: N_16  and  N_17 
REMARK       I    between atoms: N_17  and  C_18 
REMARK       I    between atoms: C_18  and  N_19 
REMARK    4  A    between atoms: N_19  and  C_20 
ROOT
HETATM    1  C   UNL     1      24.599  47.913  50.011  1.00  0.00     0.271 C 
HETATM    2  N   UNL     1      23.253  48.186  49.928  1.00  0.00    -0.262 N 
HETATM    3  O   UNL     1      25.463  48.588  49.461  1.00  0.00    -0.266 OA
HETATM    4  H   UNL     1      22.519  47.644  50.384  1.00  0.00     0.190 HD
ENDROOT
BRANCH   1   5
HETATM    5  C   UNL     1      24.941  46.724  50.824  1.00  0.00     0.048 A 
HETATM    6  C   UNL     1      24.452  45.444  50.487  1.00  0.00     0.009 A 
HETATM    7  C   UNL     1      23.604  45.157  49.387  1.00  0.00     0.015 A 
HETATM    8  C   UNL     1      24.878  44.389  51.313  1.00  0.00     0.068 A 
HETATM    9  C   UNL     1      23.190  43.853  49.119  1.00  0.00     0.001 A 
HETATM   10  C   UNL     1      23.617  42.820  49.942  1.00  0.00     0.002 A 
HETATM   11  C   UNL     1      24.452  43.100  51.025  1.00  0.00     0.032 A 
HETATM   12  N   UNL     1      25.691  44.571  52.369  1.00  0.00    -0.248 NA
HETATM   13  C   UNL     1      26.129  45.814  52.690  1.00  0.00     0.070 A 
HETATM   14  C   UNL     1      25.777  46.915  51.928  1.00  0.00     0.050 A 
BRANCH  13  15
HETATM   15  C   UNL     1      27.009  45.891  53.870  1.00  0.00     0.010 A 
HETATM   16  C   UNL     1      26.975  46.952  54.776  1.00  0.00     0.130 A 
HETATM   17  N   UNL     1      27.773  47.079  55.867  1.00  0.00    -0.272 NA
HETATM   18  C   UNL     1      28.657  46.085  56.087  1.00  0.00     0.116 A 
HETATM   19  C   UNL     1      28.777  44.975  55.271  1.00  0.00     0.020 A 
HETATM   20  C   UNL     1      27.943  44.883  54.158  1.00  0.00     0.017 A 
ENDBRANCH  13  15
ENDBRANCH   1   5
BRANCH   2  21
HETATM   21  N   UNL     1      22.834  49.302  49.190  1.00  0.00    -0.249 N 
HETATM   22  C   UNL     1      21.469  49.422  48.974  1.00  0.00     0.339 C 
HETATM   23  N   UNL     1      21.174  50.512  48.185  1.00  0.00    -0.308 N 
HETATM   24  O   UNL     1      20.672  48.648  49.493  1.00  0.00    -0.245 OA
HETATM   25  H   UNL     1      21.950  51.133  48.000  1.00  0.00     0.170 HD
HETATM   26  H   UNL     1      23.489  49.597  48.469  1.00  0.00     0.192 HD
BRANCH  23  27
HETATM   27  C   UNL     1      19.901  50.941  47.761  1.00  0.00     0.038 A 
HETATM   28  C   UNL     1      19.244  50.441  46.633  1.00  0.00     0.055 A 
HETATM   29  C   UNL     1      17.971  50.910  46.282  1.00  0.00     0.058 A 
HETATM   30 CL   UNL     1      17.225  50.239  44.873  1.00  0.00    -0.082 Cl
HETATM   31  C   UNL     1      17.346  51.890  47.059  1.00  0.00     0.055 A 
HETATM   32 CL   UNL     1      15.777  52.510  46.692  1.00  0.00    -0.083 Cl
HETATM   33  C   UNL     1      18.002  52.401  48.181  1.00  0.00     0.028 A 
HETATM   34  C   UNL     1      19.273  51.932  48.527  1.00  0.00     0.031 A 
ENDBRANCH  23  27
ENDBRANCH   2  21
TORSDOF 4
ENDMDL
MODEL 6
REMARK VINA RESULT:      -9.3      5.711      9.630
REMARK  4 active torsions:
REMARK  status: ('A' for Active; 'I' for Inactive)
REMARK    1  A    between atoms: C_6  and  C_7 
REMARK    2  A    between atoms: C_14  and  C_15 
REMARK       I    between atoms: C_15  and  N_16 
REMARK    3  A    between atoms: N_16  and  N_17 
REMARK       I    between atoms: N_17  and  C_18 
REMARK       I    between atoms: C_18  and  N_19 
REMARK    4  A    between atoms: N_19  and  C_20 
ROOT
HETATM    1  C   UNL     1      28.630  41.295  52.890  1.00  0.00     0.271 C 
HETATM    2  N   UNL     1      28.897  41.071  51.558  1.00  0.00    -0.262 N 
HETATM    3  O   UNL     1      28.546  40.401  53.725  1.00  0.00    -0.266 OA
HETATM    4  H   UNL     1      28.980  41.801  50.850  1.00  0.00     0.190 HD
ENDROOT
BRANCH   1   5
HETATM    5  C   UNL     1      28.446  42.719  53.253  1.00  0.00     0.048 A 
HETATM    6  C   UNL     1      29.190  43.308  54.297  1.00  0.00     0.009 A 
HETATM    7  C   UNL     1      30.151  42.636  55.096  1.00  0.00     0.015 A 
HETATM    8  C   UNL     1      28.953  44.675  54.522  1.00  0.00     0.068 A 
HETATM    9  C   UNL     1      30.855  43.310  56.092  1.00  0.00     0.001 A 
HETATM   10  C   UNL     1      30.613  44.659  56.304  1.00  0.00     0.002 A 
HETATM   11  C   UNL     1      29.668  45.323  55.520  1.00  0.00     0.032 A 
HETATM   12  N   UNL     1      28.069  45.391  53.804  1.00  0.00    -0.248 NA
HETATM   13  C   UNL     1      27.346  44.799  52.821  1.00  0.00     0.070 A 
HETATM   14  C   UNL     1      27.519  43.460  52.515  1.00  0.00     0.050 A 
BRANCH  13  15
HETATM   15  C   UNL     1      26.405  45.680  52.108  1.00  0.00     0.010 A 
HETATM   16  C   UNL     1      25.886  46.851  52.666  1.00  0.00     0.130 A 
HETATM   17  N   UNL     1      25.005  47.686  52.059  1.00  0.00    -0.272 NA
HETATM   18  C   UNL     1      24.619  47.353  50.811  1.00  0.00     0.116 A 
HETATM   19  C   UNL     1      25.072  46.229  50.146  1.00  0.00     0.020 A 
HETATM   20  C   UNL     1      25.972  45.392  50.803  1.00  0.00     0.017 A 
ENDBRANCH  13  15
ENDBRANCH   1   5
BRANCH   2  21
HETATM   21  N   UNL     1      29.100  39.755  51.122  1.00  0.00    -0.249 N 
HETATM   22  C   UNL     1      28.445  39.383  49.957  1.00  0.00     0.339 C 
HETATM   23  N   UNL     1      28.660  38.055  49.657  1.00  0.00    -0.308 N 
HETATM   24  O   UNL     1      27.811  40.197  49.295  1.00  0.00    -0.245 OA
HETATM   25  H   UNL     1      29.355  37.591  50.226  1.00  0.00     0.170 HD
HETATM   26  H   UNL     1      29.221  39.079  51.874  1.00  0.00     0.192 HD
BRANCH  23  27
HETATM   27  C   UNL     1      28.154  37.335  48.556  1.00  0.00     0.038 A 
HETATM   28  C   UNL     1      28.738  37.338  47.287  1.00  0.00     0.055 A 
HETATM   29  C   UNL     1      28.183  36.586  46.243  1.00  0.00     0.058 A 
HETATM   30 CL   UNL     1      28.967  36.642  44.703  1.00  0.00    -0.082 Cl
HETATM   31  C   UNL     1      27.031  35.825  46.464  1.00  0.00     0.055 A 
HETATM   32 CL   UNL     1      26.294  34.869  45.230  1.00  0.00    -0.083 Cl
HETATM   33  C   UNL     1      26.436  35.827  47.727  1.00  0.00     0.028 A 
HETATM   34  C   UNL     1      26.993  36.580  48.766  1.00  0.00     0.031 A 
ENDBRANCH  23  27
ENDBRANCH   2  21
TORSDOF 4
ENDMDL
MODEL 7
REMARK VINA RESULT:      -9.2      2.613      3.217
REMARK  4 active torsions:
REMARK  status: ('A' for Active; 'I' for Inactive)
REMARK    1  A    between atoms: C_6  and  C_7 
REMARK    2  A    between atoms: C_14  and  C_15 
REMARK       I    between atoms: C_15  and  N_16 
REMARK    3  A    between atoms: N_16  and  N_17 
REMARK       I    between atoms: N_17  and  C_18 
REMARK       I    between atoms: C_18  and  N_19 
REMARK    4  A    between atoms: N_19  and  C_20 
ROOT
HETATM    1  C   UNL     1      26.563  44.494  50.542  1.00  0.00     0.271 C 
HETATM    2  N   UNL     1      25.246  44.547  50.937  1.00  0.00    -0.262 N 
HETATM    3  O   UNL     1      27.007  45.106  49.577  1.00  0.00    -0.266 OA
HETATM    4  H   UNL     1      24.859  44.054  51.742  1.00  0.00     0.190 HD
ENDROOT
BRANCH   1   5
HETATM    5  C   UNL     1      27.426  43.628  51.378  1.00  0.00     0.048 A 
HETATM    6  C   UNL     1      27.688  42.291  51.015  1.00  0.00     0.009 A 
HETATM    7  C   UNL     1      27.171  41.640  49.866  1.00  0.00     0.015 A 
HETATM    8  C   UNL     1      28.552  41.583  51.869  1.00  0.00     0.068 A 
HETATM    9  C   UNL     1      27.506  40.318  49.577  1.00  0.00     0.001 A 
HETATM   10  C   UNL     1      28.360  39.629  50.427  1.00  0.00     0.002 A 
HETATM   11  C   UNL     1      28.871  40.268  51.559  1.00  0.00     0.032 A 
HETATM   12  N   UNL     1      29.096  42.127  52.972  1.00  0.00    -0.248 NA
HETATM   13  C   UNL     1      28.811  43.407  53.316  1.00  0.00     0.070 A 
HETATM   14  C   UNL     1      27.981  44.190  52.531  1.00  0.00     0.050 A 
BRANCH  13  15
HETATM   15  C   UNL     1      29.458  43.892  54.548  1.00  0.00     0.010 A 
HETATM   16  C   UNL     1      29.053  45.050  55.216  1.00  0.00     0.130 A 
HETATM   17  N   UNL     1      29.625  45.547  56.342  1.00  0.00    -0.272 NA
HETATM   18  C   UNL     1      30.660  44.850  56.853  1.00  0.00     0.116 A 
HETATM   19  C   UNL     1      31.144  43.682  56.292  1.00  0.00     0.020 A 
HETATM   20  C   UNL     1      30.533  43.205  55.134  1.00  0.00     0.017 A 
ENDBRANCH  13  15
ENDBRANCH   1   5
BRANCH   2  21
HETATM   21  N   UNL     1      24.356  45.353  50.214  1.00  0.00    -0.249 N 
HETATM   22  C   UNL     1      23.242  44.719  49.682  1.00  0.00     0.339 C 
HETATM   23  N   UNL     1      22.473  45.586  48.938  1.00  0.00    -0.308 N 
HETATM   24  O   UNL     1      23.003  43.541  49.925  1.00  0.00    -0.245 OA
HETATM   25  H   UNL     1      22.738  46.559  48.999  1.00  0.00     0.170 HD
HETATM   26  H   UNL     1      24.800  46.112  49.701  1.00  0.00     0.192 HD
BRANCH  23  27
HETATM   27  C   UNL     1      21.276  45.294  48.253  1.00  0.00     0.038 A 
HETATM   28  C   UNL     1      20.023  45.785  48.627  1.00  0.00     0.055 A 
HETATM   29  C   UNL     1      18.878  45.460  47.887  1.00  0.00     0.058 A 
HETATM   30 CL   UNL     1      17.365  46.110  48.415  1.00  0.00    -0.082 Cl
HETATM   31  C   UNL     1      18.981  44.632  46.765  1.00  0.00     0.055 A 
HETATM   32 CL   UNL     1      17.617  44.194  45.802  1.00  0.00    -0.083 Cl
HETATM   33  C   UNL     1      20.229  44.130  46.393  1.00  0.00     0.028 A 
HETATM   34  C   UNL     1      21.369  44.456  47.135  1.00  0.00     0.031 A 
ENDBRANCH  23  27
ENDBRANCH   2  21
TORSDOF 4
ENDMDL
MODEL 8
REMARK VINA RESULT:      -9.2      4.546      9.067
REMARK  4 active torsions:
REMARK  status: ('A' for Active; 'I' for Inactive)
REMARK    1  A    between atoms: C_6  and  C_7 
REMARK    2  A    between atoms: C_14  and  C_15 
REMARK       I    between atoms: C_15  and  N_16 
REMARK    3  A    between atoms: N_16  and  N_17 
REMARK       I    between atoms: N_17  and  C_18 
REMARK       I    between atoms: C_18  and  N_19 
REMARK    4  A    between atoms: N_19  and  C_20 
ROOT
HETATM    1  C   UNL     1      24.700  44.035  50.576  1.00  0.00     0.271 C 
HETATM    2  N   UNL     1      26.057  44.239  50.468  1.00  0.00    -0.262 N 
HETATM    3  O   UNL     1      24.185  43.345  51.449  1.00  0.00    -0.266 OA
HETATM    4  H   UNL     1      26.504  44.817  49.757  1.00  0.00     0.190 HD
ENDROOT
BRANCH   1   5
HETATM    5  C   UNL     1      23.887  44.717  49.543  1.00  0.00     0.048 A 
HETATM    6  C   UNL     1      23.206  43.984  48.549  1.00  0.00     0.009 A 
HETATM    7  C   UNL     1      23.224  42.572  48.418  1.00  0.00     0.015 A 
HETATM    8  C   UNL     1      22.437  44.742  47.649  1.00  0.00     0.068 A 
HETATM    9  C   UNL     1      22.497  41.933  47.415  1.00  0.00     0.001 A 
HETATM   10  C   UNL     1      21.742  42.692  46.532  1.00  0.00     0.002 A 
HETATM   11  C   UNL     1      21.721  44.082  46.659  1.00  0.00     0.032 A 
HETATM   12  N   UNL     1      22.353  46.083  47.709  1.00  0.00    -0.248 NA
HETATM   13  C   UNL     1      23.037  46.770  48.657  1.00  0.00     0.070 A 
HETATM   14  C   UNL     1      23.811  46.112  49.598  1.00  0.00     0.050 A 
BRANCH  13  15
HETATM   15  C   UNL     1      22.875  48.235  48.621  1.00  0.00     0.010 A 
HETATM   16  C   UNL     1      23.813  49.118  49.159  1.00  0.00     0.130 A 
HETATM   17  N   UNL     1      23.702  50.471  49.166  1.00  0.00    -0.272 NA
HETATM   18  C   UNL     1      22.599  50.990  48.592  1.00  0.00     0.116 A 
HETATM   19  C   UNL     1      21.607  50.222  48.012  1.00  0.00     0.020 A 
HETATM   20  C   UNL     1      21.752  48.836  48.028  1.00  0.00     0.017 A 
ENDBRANCH  13  15
ENDBRANCH   1   5
BRANCH   2  21
HETATM   21  N   UNL     1      26.907  43.644  51.411  1.00  0.00    -0.249 N 
HETATM   22  C   UNL     1      27.328  44.450  52.458  1.00  0.00     0.339 C 
HETATM   23  N   UNL     1      28.209  43.788  53.285  1.00  0.00    -0.308 N 
HETATM   24  O   UNL     1      26.893  45.588  52.601  1.00  0.00    -0.245 OA
HETATM   25  H   UNL     1      28.310  42.799  53.104  1.00  0.00     0.170 HD
HETATM   26  H   UNL     1      27.537  42.945  51.023  1.00  0.00     0.192 HD
BRANCH  23  27
HETATM   27  C   UNL     1      28.839  44.291  54.440  1.00  0.00     0.038 A 
HETATM   28  C   UNL     1      29.954  43.700  55.042  1.00  0.00     0.055 A 
HETATM   29  C   UNL     1      30.534  44.268  56.184  1.00  0.00     0.058 A 
HETATM   30 CL   UNL     1      31.912  43.477  56.867  1.00  0.00    -0.082 Cl
HETATM   31  C   UNL     1      29.996  45.434  56.737  1.00  0.00     0.055 A 
HETATM   32 CL   UNL     1      30.660  46.193  58.139  1.00  0.00    -0.083 Cl
HETATM   33  C   UNL     1      28.876  46.022  56.148  1.00  0.00     0.028 A 
HETATM   34  C   UNL     1      28.300  45.452  55.008  1.00  0.00     0.031 A 
ENDBRANCH  23  27
ENDBRANCH   2  21
TORSDOF 4
ENDMDL
MODEL 9
REMARK VINA RESULT:      -9.1      2.007      4.801
REMARK  4 active torsions:
REMARK  status: ('A' for Active; 'I' for Inactive)
REMARK    1  A    between atoms: C_6  and  C_7 
REMARK    2  A    between atoms: C_14  and  C_15 
REMARK       I    between atoms: C_15  and  N_16 
REMARK    3  A    between atoms: N_16  and  N_17 
REMARK       I    between atoms: N_17  and  C_18 
REMARK       I    between atoms: C_18  and  N_19 
REMARK    4  A    between atoms: N_19  and  C_20 
ROOT
HETATM    1  C   UNL     1      26.104  45.124  52.345  1.00  0.00     0.271 C 
HETATM    2  N   UNL     1      26.329  46.074  51.376  1.00  0.00    -0.262 N 
HETATM    3  O   UNL     1      25.209  45.205  53.179  1.00  0.00    -0.266 OA
HETATM    4  H   UNL     1      27.062  46.022  50.667  1.00  0.00     0.190 HD
ENDROOT
BRANCH   1   5
HETATM    5  C   UNL     1      27.037  43.975  52.314  1.00  0.00     0.048 A 
HETATM    6  C   UNL     1      28.108  43.880  53.227  1.00  0.00     0.009 A 
HETATM    7  C   UNL     1      28.414  44.834  54.231  1.00  0.00     0.015 A 
HETATM    8  C   UNL     1      28.901  42.723  53.122  1.00  0.00     0.068 A 
HETATM    9  C   UNL     1      29.483  44.641  55.104  1.00  0.00     0.001 A 
HETATM   10  C   UNL     1      30.258  43.496  54.991  1.00  0.00     0.002 A 
HETATM   11  C   UNL     1      29.959  42.554  54.005  1.00  0.00     0.032 A 
HETATM   12  N   UNL     1      28.674  41.762  52.208  1.00  0.00    -0.248 NA
HETATM   13  C   UNL     1      27.653  41.886  51.323  1.00  0.00     0.070 A 
HETATM   14  C   UNL     1      26.808  42.983  51.356  1.00  0.00     0.050 A 
BRANCH  13  15
HETATM   15  C   UNL     1      27.506  40.776  50.365  1.00  0.00     0.010 A 
HETATM   16  C   UNL     1      28.447  39.752  50.236  1.00  0.00     0.130 A 
HETATM   17  N   UNL     1      28.367  38.719  49.360  1.00  0.00    -0.272 NA
HETATM   18  C   UNL     1      27.279  38.684  48.565  1.00  0.00     0.116 A 
HETATM   19  C   UNL     1      26.271  39.629  48.608  1.00  0.00     0.020 A 
HETATM   20  C   UNL     1      26.391  40.679  49.518  1.00  0.00     0.017 A 
ENDBRANCH  13  15
ENDBRANCH   1   5
BRANCH   2  21
HETATM   21  N   UNL     1      25.487  47.193  51.318  1.00  0.00    -0.249 N 
HETATM   22  C   UNL     1      24.582  47.231  50.267  1.00  0.00     0.339 C 
HETATM   23  N   UNL     1      23.853  48.401  50.268  1.00  0.00    -0.308 N 
HETATM   24  O   UNL     1      24.461  46.284  49.497  1.00  0.00    -0.245 OA
HETATM   25  H   UNL     1      23.972  48.983  51.085  1.00  0.00     0.170 HD
HETATM   26  H   UNL     1      25.913  48.056  51.651  1.00  0.00     0.192 HD
BRANCH  23  27
HETATM   27  C   UNL     1      22.851  48.783  49.354  1.00  0.00     0.038 A 
HETATM   28  C   UNL     1      22.154  47.886  48.540  1.00  0.00     0.055 A 
HETATM   29  C   UNL     1      21.160  48.341  47.664  1.00  0.00     0.058 A 
HETATM   30 CL   UNL     1      20.342  47.168  46.691  1.00  0.00    -0.082 Cl
HETATM   31  C   UNL     1      20.858  49.705  47.594  1.00  0.00     0.055 A 
HETATM   32 CL   UNL     1      19.643  50.338  46.544  1.00  0.00    -0.083 Cl
HETATM   33  C   UNL     1      21.559  50.607  48.397  1.00  0.00     0.028 A 
HETATM   34  C   UNL     1      22.551  50.148  49.269  1.00  0.00     0.031 A 
ENDBRANCH  23  27
ENDBRANCH   2  21
TORSDOF 4
ENDMDL
MODEL 10
REMARK VINA RESULT:      -9.0      5.660      7.985
REMARK  4 active torsions:
REMARK  status: ('A' for Active; 'I' for Inactive)
REMARK    1  A    between atoms: C_6  and  C_7 
REMARK    2  A    between atoms: C_14  and  C_15 
REMARK       I    between atoms: C_15  and  N_16 
REMARK    3  A    between atoms: N_16  and  N_17 
REMARK       I    between atoms: N_17  and  C_18 
REMARK       I    between atoms: C_18  and  N_19 
REMARK    4  A    between atoms: N_19  and  C_20 
ROOT
HETATM    1  C   UNL     1      27.756  41.787  51.914  1.00  0.00     0.271 C 
HETATM    2  N   UNL     1      28.648  41.717  50.868  1.00  0.00    -0.262 N 
HETATM    3  O   UNL     1      26.928  40.916  52.158  1.00  0.00    -0.266 OA
HETATM    4  H   UNL     1      29.350  42.425  50.653  1.00  0.00     0.190 HD
ENDROOT
BRANCH   1   5
HETATM    5  C   UNL     1      27.865  43.010  52.740  1.00  0.00     0.048 A 
HETATM    6  C   UNL     1      27.045  44.132  52.496  1.00  0.00     0.009 A 
HETATM    7  C   UNL     1      26.070  44.223  51.469  1.00  0.00     0.015 A 
HETATM    8  C   UNL     1      27.216  45.218  53.372  1.00  0.00     0.068 A 
HETATM    9  C   UNL     1      25.289  45.368  51.320  1.00  0.00     0.001 A 
HETATM   10  C   UNL     1      25.467  46.433  52.191  1.00  0.00     0.002 A 
HETATM   11  C   UNL     1      26.425  46.345  53.203  1.00  0.00     0.032 A 
HETATM   12  N   UNL     1      28.108  45.210  54.379  1.00  0.00    -0.248 NA
HETATM   13  C   UNL     1      28.904  44.131  54.581  1.00  0.00     0.070 A 
HETATM   14  C   UNL     1      28.800  43.007  53.780  1.00  0.00     0.050 A 
BRANCH  13  15
HETATM   15  C   UNL     1      29.846  44.240  55.709  1.00  0.00     0.010 A 
HETATM   16  C   UNL     1      29.836  45.308  56.609  1.00  0.00     0.130 A 
HETATM   17  N   UNL     1      30.690  45.464  57.651  1.00  0.00    -0.272 NA
HETATM   18  C   UNL     1      31.611  44.495  57.829  1.00  0.00     0.116 A 
HETATM   19  C   UNL     1      31.713  43.382  57.015  1.00  0.00     0.020 A 
HETATM   20  C   UNL     1      30.820  43.259  55.951  1.00  0.00     0.017 A 
ENDBRANCH  13  15
ENDBRANCH   1   5
BRANCH   2  21
HETATM   21  N   UNL     1      28.629  40.588  50.038  1.00  0.00    -0.249 N 
HETATM   22  C   UNL     1      28.033  40.745  48.796  1.00  0.00     0.339 C 
HETATM   23  N   UNL     1      28.009  39.561  48.091  1.00  0.00    -0.308 N 
HETATM   24  O   UNL     1      27.640  41.842  48.412  1.00  0.00    -0.245 OA
HETATM   25  H   UNL     1      28.539  38.805  48.501  1.00  0.00     0.170 HD
HETATM   26  H   UNL     1      28.540  39.704  50.535  1.00  0.00     0.192 HD
BRANCH  23  27
HETATM   27  C   UNL     1      27.483  39.344  46.802  1.00  0.00     0.038 A 
HETATM   28  C   UNL     1      28.026  39.889  45.635  1.00  0.00     0.055 A 
HETATM   29  C   UNL     1      27.453  39.617  44.386  1.00  0.00     0.058 A 
HETATM   30 CL   UNL     1      28.186  40.328  42.990  1.00  0.00    -0.082 Cl
HETATM   31  C   UNL     1      26.323  38.797  44.297  1.00  0.00     0.055 A 
HETATM   32 CL   UNL     1      25.567  38.412  42.793  1.00  0.00    -0.083 Cl
HETATM   33  C   UNL     1      25.770  38.259  45.460  1.00  0.00     0.028 A 
HETATM   34  C   UNL     1      26.345  38.534  46.705  1.00  0.00     0.031 A 
ENDBRANCH  23  27
ENDBRANCH   2  21
TORSDOF 4
ENDMDL
