MODEL 1
REMARK VINA RESULT:      -9.5      0.000      0.000
REMARK  6 active torsions:
REMARK  status: ('A' for Active; 'I' for Inactive)
REMARK    1  A    between atoms: C_2  and  C_3 
REMARK    2  A    between atoms: C_2  and  C_9 
REMARK    3  A    between atoms: C_9  and  C_10 
REMARK    4  A    between atoms: C_10  and  C_11 
REMARK       I    between atoms: C_11  and  N_12 
REMARK    5  A    between atoms: N_12  and  C_13 
REMARK    6  A    between atoms: C_20  and  C_21 
REMARK       I    between atoms: C_21  and  N_22 
ROOT
HETATM    1  C   UNL     1      26.530  43.480  50.855  1.00  0.00     0.035 A 
HETATM    2  C   UNL     1      26.992  44.677  50.302  1.00  0.00     0.046 A 
HETATM    3  C   UNL     1      26.219  45.854  50.413  1.00  0.00     0.030 A 
HETATM    4  C   UNL     1      25.000  45.802  51.071  1.00  0.00     0.063 A 
HETATM    5  N   UNL     1      24.504  47.076  51.016  1.00  0.00    -0.277 N 
HETATM    6  H   UNL     1      23.628  47.411  51.401  1.00  0.00     0.189 HD
HETATM    7  N   UNL     1      25.292  47.952  50.369  1.00  0.00    -0.168 NA
HETATM    8  C   UNL     1      26.357  47.210  49.988  1.00  0.00     0.156 A 
HETATM    9  C   UNL     1      24.493  44.628  51.628  1.00  0.00     0.034 A 
HETATM   10  C   UNL     1      25.281  43.475  51.499  1.00  0.00     0.032 A 
ENDROOT
BRANCH   1  11
HETATM   11  N   UNL     1      27.207  42.244  50.815  1.00  0.00    -0.327 N 
HETATM   12  C   UNL     1      27.971  41.538  51.699  1.00  0.00     0.222 C 
HETATM   13  O   UNL     1      28.433  40.462  51.305  1.00  0.00    -0.273 OA
HETATM   14  H   UNL     1      27.105  41.714  49.957  1.00  0.00     0.169 HD
BRANCH  12  15
HETATM   15  C   UNL     1      28.218  42.043  53.102  1.00  0.00     0.103 C 
BRANCH  15  16
HETATM   16  C   UNL     1      29.338  43.082  53.221  1.00  0.00     0.018 C 
BRANCH  16  17
HETATM   17  C   UNL     1      29.010  44.350  54.040  1.00  0.00     0.015 C 
HETATM   18  C   UNL     1      27.515  44.517  54.342  1.00  0.00     0.015 C 
BRANCH  17  19
HETATM   19  C   UNL     1      29.822  44.353  55.331  1.00  0.00    -0.054 A 
HETATM   20  C   UNL     1      29.712  45.393  56.267  1.00  0.00     0.007 A 
HETATM   21  C   UNL     1      30.456  45.372  57.449  1.00  0.00     0.001 A 
HETATM   22  C   UNL     1      31.318  44.311  57.711  1.00  0.00     0.000 A 
HETATM   23  C   UNL     1      31.435  43.269  56.793  1.00  0.00     0.001 A 
HETATM   24  C   UNL     1      30.691  43.288  55.612  1.00  0.00     0.007 A 
ENDBRANCH  17  19
ENDBRANCH  16  17
ENDBRANCH  15  16
ENDBRANCH  12  15
ENDBRANCH   1  11
BRANCH   8  25
HETATM   25  C   UNL     1      27.475  47.795  49.236  1.00  0.00     0.270 C 
HETATM   26  N   UNL     1      27.476  49.162  49.204  1.00  0.00    -0.365 N 
HETATM   27  H   UNL     1      26.735  49.661  49.682  1.00  0.00     0.159 HD
HETATM   28  H   UNL     1      28.203  49.653  48.707  1.00  0.00     0.159 HD
HETATM   29  O   UNL     1      28.346  47.142  48.671  1.00  0.00    -0.266 OA
ENDBRANCH   8  25
TORSDOF 6
ENDMDL
MODEL 2
REMARK VINA RESULT:      -9.2      1.050      2.215
REMARK  6 active torsions:
REMARK  status: ('A' for Active; 'I' for Inactive)
REMARK    1  A    between atoms: C_2  and  C_3 
REMARK    2  A    between atoms: C_2  and  C_9 
REMARK    3  A    between atoms: C_9  and  C_10 
REMARK    4  A    between atoms: C_10  and  C_11 
REMARK       I    between atoms: C_11  and  N_12 
REMARK    5  A    between atoms: N_12  and  C_13 
REMARK    6  A    between atoms: C_20  and  C_21 
REMARK       I    between atoms: C_21  and  N_22 
ROOT
HETATM    1  C   UNL     1      26.492  43.494  50.395  1.00  0.00     0.035 A 
HETATM    2  C   UNL     1      26.922  44.749  49.955  1.00  0.00     0.046 A 
HETATM    3  C   UNL     1      26.123  45.892  50.184  1.00  0.00     0.030 A 
HETATM    4  C   UNL     1      24.912  45.749  50.844  1.00  0.00     0.063 A 
HETATM    5  N   UNL     1      24.387  47.009  50.916  1.00  0.00    -0.277 N 
HETATM    6  H   UNL     1      23.508  47.286  51.338  1.00  0.00     0.189 HD
HETATM    7  N   UNL     1      25.148  47.962  50.349  1.00  0.00    -0.168 NA
HETATM    8  C   UNL     1      26.225  47.285  49.890  1.00  0.00     0.156 A 
HETATM    9  C   UNL     1      24.438  44.515  51.291  1.00  0.00     0.034 A 
HETATM   10  C   UNL     1      25.251  43.399  51.046  1.00  0.00     0.032 A 
ENDROOT
BRANCH   1  11
HETATM   11  N   UNL     1      27.197  42.285  50.232  1.00  0.00    -0.327 N 
HETATM   12  C   UNL     1      27.902  41.463  51.063  1.00  0.00     0.222 C 
HETATM   13  O   UNL     1      28.417  40.462  50.557  1.00  0.00    -0.273 OA
HETATM   14  H   UNL     1      27.176  41.885  49.300  1.00  0.00     0.169 HD
BRANCH  12  15
HETATM   15  C   UNL     1      28.023  41.758  52.540  1.00  0.00     0.103 C 
BRANCH  15  16
HETATM   16  C   UNL     1      29.076  42.812  52.900  1.00  0.00     0.018 C 
BRANCH  16  17
HETATM   17  C   UNL     1      29.102  43.279  54.372  1.00  0.00     0.015 C 
HETATM   18  C   UNL     1      30.503  43.270  54.995  1.00  0.00     0.015 C 
BRANCH  17  19
HETATM   19  C   UNL     1      28.474  44.664  54.482  1.00  0.00    -0.054 A 
HETATM   20  C   UNL     1      27.345  45.022  53.728  1.00  0.00     0.007 A 
HETATM   21  C   UNL     1      26.777  46.292  53.851  1.00  0.00     0.001 A 
HETATM   22  C   UNL     1      27.328  47.219  54.730  1.00  0.00     0.000 A 
HETATM   23  C   UNL     1      28.446  46.878  55.489  1.00  0.00     0.001 A 
HETATM   24  C   UNL     1      29.014  45.609  55.367  1.00  0.00     0.007 A 
ENDBRANCH  17  19
ENDBRANCH  16  17
ENDBRANCH  15  16
ENDBRANCH  12  15
ENDBRANCH   1  11
BRANCH   8  25
HETATM   25  C   UNL     1      27.322  47.966  49.188  1.00  0.00     0.270 C 
HETATM   26  N   UNL     1      27.178  49.323  49.104  1.00  0.00    -0.365 N 
HETATM   27  H   UNL     1      26.358  49.752  49.515  1.00  0.00     0.159 HD
HETATM   28  H   UNL     1      27.881  49.875  48.635  1.00  0.00     0.159 HD
HETATM   29  O   UNL     1      28.294  47.395  48.704  1.00  0.00    -0.266 OA
ENDBRANCH   8  25
TORSDOF 6
ENDMDL
MODEL 3
REMARK VINA RESULT:      -8.7      2.704      4.027
REMARK  6 active torsions:
REMARK  status: ('A' for Active; 'I' for Inactive)
REMARK    1  A    between atoms: C_2  and  C_3 
REMARK    2  A    between atoms: C_2  and  C_9 
REMARK    3  A    between atoms: C_9  and  C_10 
REMARK    4  A    between atoms: C_10  and  C_11 
REMARK       I    between atoms: C_11  and  N_12 
REMARK    5  A    between atoms: N_12  and  C_13 
REMARK    6  A    between atoms: C_20  and  C_21 
REMARK       I    between atoms: C_21  and  N_22 
ROOT
HETATM    1  C   UNL     1      25.201  47.050  50.927  1.00  0.00     0.035 A 
HETATM    2  C   UNL     1      24.224  47.646  50.125  1.00  0.00     0.046 A 
HETATM    3  C   UNL     1      24.593  48.594  49.144  1.00  0.00     0.030 A 
HETATM    4  C   UNL     1      25.932  48.924  48.994  1.00  0.00     0.063 A 
HETATM    5  N   UNL     1      25.966  49.844  47.983  1.00  0.00    -0.277 N 
HETATM    6  H   UNL     1      26.784  50.305  47.599  1.00  0.00     0.189 HD
HETATM    7  N   UNL     1      24.763  50.150  47.467  1.00  0.00    -0.168 NA
HETATM    8  C   UNL     1      23.903  49.385  48.177  1.00  0.00     0.156 A 
HETATM    9  C   UNL     1      26.939  48.364  49.779  1.00  0.00     0.034 A 
HETATM   10  C   UNL     1      26.542  47.429  50.746  1.00  0.00     0.032 A 
ENDROOT
BRANCH   1  11
HETATM   11  N   UNL     1      24.962  46.092  51.932  1.00  0.00    -0.327 N 
HETATM   12  C   UNL     1      25.354  44.801  52.144  1.00  0.00     0.222 C 
HETATM   13  O   UNL     1      24.925  44.244  53.158  1.00  0.00    -0.273 OA
HETATM   14  H   UNL     1      24.393  46.404  52.711  1.00  0.00     0.169 HD
BRANCH  12  15
HETATM   15  C   UNL     1      26.291  44.099  51.188  1.00  0.00     0.103 C 
BRANCH  15  16
HETATM   16  C   UNL     1      27.741  43.993  51.673  1.00  0.00     0.018 C 
BRANCH  16  17
HETATM   17  C   UNL     1      28.021  42.938  52.767  1.00  0.00     0.015 C 
HETATM   18  C   UNL     1      28.726  41.681  52.242  1.00  0.00     0.015 C 
BRANCH  17  19
HETATM   19  C   UNL     1      28.823  43.572  53.899  1.00  0.00    -0.054 A 
HETATM   20  C   UNL     1      29.996  42.978  54.391  1.00  0.00     0.007 A 
HETATM   21  C   UNL     1      30.723  43.580  55.420  1.00  0.00     0.001 A 
HETATM   22  C   UNL     1      30.288  44.782  55.970  1.00  0.00     0.000 A 
HETATM   23  C   UNL     1      29.127  45.385  55.490  1.00  0.00     0.001 A 
HETATM   24  C   UNL     1      28.400  44.786  54.460  1.00  0.00     0.007 A 
ENDBRANCH  17  19
ENDBRANCH  16  17
ENDBRANCH  15  16
ENDBRANCH  12  15
ENDBRANCH   1  11
BRANCH   8  25
HETATM   25  C   UNL     1      22.456  49.418  47.928  1.00  0.00     0.270 C 
HETATM   26  N   UNL     1      21.820  50.509  48.452  1.00  0.00    -0.365 N 
HETATM   27  H   UNL     1      22.367  51.195  48.957  1.00  0.00     0.159 HD
HETATM   28  H   UNL     1      20.824  50.615  48.335  1.00  0.00     0.159 HD
HETATM   29  O   UNL     1      21.840  48.555  47.310  1.00  0.00    -0.266 OA
ENDBRANCH   8  25
TORSDOF 6
ENDMDL
MODEL 4
REMARK VINA RESULT:      -8.6      3.031      5.919
REMARK  6 active torsions:
REMARK  status: ('A' for Active; 'I' for Inactive)
REMARK    1  A    between atoms: C_2  and  C_3 
REMARK    2  A    between atoms: C_2  and  C_9 
REMARK    3  A    between atoms: C_9  and  C_10 
REMARK    4  A    between atoms: C_10  and  C_11 
REMARK       I    between atoms: C_11  and  N_12 
REMARK    5  A    between atoms: N_12  and  C_13 
REMARK    6  A    between atoms: C_20  and  C_21 
REMARK       I    between atoms: C_21  and  N_22 
ROOT
HETATM    1  C   UNL     1      26.269  41.431  50.227  1.00  0.00     0.035 A 
HETATM    2  C   UNL     1      27.079  40.325  50.499  1.00  0.00     0.046 A 
HETATM    3  C   UNL     1      27.703  39.626  49.441  1.00  0.00     0.030 A 
HETATM    4  C   UNL     1      27.495  40.049  48.137  1.00  0.00     0.063 A 
HETATM    5  N   UNL     1      28.222  39.191  47.359  1.00  0.00    -0.277 N 
HETATM    6  H   UNL     1      28.309  39.202  46.348  1.00  0.00     0.189 HD
HETATM    7  N   UNL     1      28.877  38.238  48.044  1.00  0.00    -0.168 NA
HETATM    8  C   UNL     1      28.564  38.493  49.334  1.00  0.00     0.156 A 
HETATM    9  C   UNL     1      26.687  41.140  47.818  1.00  0.00     0.034 A 
HETATM   10  C   UNL     1      26.078  41.811  48.888  1.00  0.00     0.032 A 
ENDROOT
BRANCH   1  11
HETATM   11  N   UNL     1      25.597  42.211  51.190  1.00  0.00    -0.327 N 
HETATM   12  C   UNL     1      25.860  43.391  51.825  1.00  0.00     0.222 C 
HETATM   13  O   UNL     1      25.029  43.780  52.650  1.00  0.00    -0.273 OA
HETATM   14  H   UNL     1      24.693  41.862  51.486  1.00  0.00     0.169 HD
BRANCH  12  15
HETATM   15  C   UNL     1      27.103  44.191  51.511  1.00  0.00     0.103 C 
BRANCH  15  16
HETATM   16  C   UNL     1      28.405  43.596  52.058  1.00  0.00     0.018 C 
BRANCH  16  17
HETATM   17  C   UNL     1      28.318  42.922  53.446  1.00  0.00     0.015 C 
HETATM   18  C   UNL     1      28.805  41.468  53.456  1.00  0.00     0.015 C 
BRANCH  17  19
HETATM   19  C   UNL     1      29.087  43.753  54.469  1.00  0.00    -0.054 A 
HETATM   20  C   UNL     1      28.644  45.025  54.865  1.00  0.00     0.007 A 
HETATM   21  C   UNL     1      29.355  45.766  55.812  1.00  0.00     0.001 A 
HETATM   22  C   UNL     1      30.517  45.245  56.374  1.00  0.00     0.000 A 
HETATM   23  C   UNL     1      30.967  43.983  55.993  1.00  0.00     0.001 A 
HETATM   24  C   UNL     1      30.257  43.240  55.048  1.00  0.00     0.007 A 
ENDBRANCH  17  19
ENDBRANCH  16  17
ENDBRANCH  15  16
ENDBRANCH  12  15
ENDBRANCH   1  11
BRANCH   8  25
HETATM   25  C   UNL     1      29.082  37.665  50.432  1.00  0.00     0.270 C 
HETATM   26  N   UNL     1      28.355  36.533  50.674  1.00  0.00    -0.365 N 
HETATM   27  H   UNL     1      27.539  36.348  50.103  1.00  0.00     0.159 HD
HETATM   28  H   UNL     1      28.633  35.905  51.412  1.00  0.00     0.159 HD
HETATM   29  O   UNL     1      30.077  37.940  51.095  1.00  0.00    -0.266 OA
ENDBRANCH   8  25
TORSDOF 6
ENDMDL
MODEL 5
REMARK VINA RESULT:      -8.6      3.200      7.031
REMARK  6 active torsions:
REMARK  status: ('A' for Active; 'I' for Inactive)
REMARK    1  A    between atoms: C_2  and  C_3 
REMARK    2  A    between atoms: C_2  and  C_9 
REMARK    3  A    between atoms: C_9  and  C_10 
REMARK    4  A    between atoms: C_10  and  C_11 
REMARK       I    between atoms: C_11  and  N_12 
REMARK    5  A    between atoms: N_12  and  C_13 
REMARK    6  A    between atoms: C_20  and  C_21 
REMARK       I    between atoms: C_21  and  N_22 
ROOT
HETATM    1  C   UNL     1      27.162  43.169  52.955  1.00  0.00     0.035 A 
HETATM    2  C   UNL     1      27.444  44.142  53.917  1.00  0.00     0.046 A 
HETATM    3  C   UNL     1      28.694  44.146  54.576  1.00  0.00     0.030 A 
HETATM    4  C   UNL     1      29.628  43.171  54.258  1.00  0.00     0.063 A 
HETATM    5  N   UNL     1      30.714  43.440  55.044  1.00  0.00    -0.277 N 
HETATM    6  H   UNL     1      31.591  42.932  55.075  1.00  0.00     0.189 HD
HETATM    7  N   UNL     1      30.564  44.501  55.856  1.00  0.00    -0.168 NA
HETATM    8  C   UNL     1      29.318  44.947  55.579  1.00  0.00     0.156 A 
HETATM    9  C   UNL     1      29.385  42.174  53.313  1.00  0.00     0.034 A 
HETATM   10  C   UNL     1      28.135  42.194  52.679  1.00  0.00     0.032 A 
ENDROOT
BRANCH   1  11
HETATM   11  N   UNL     1      25.959  43.061  52.228  1.00  0.00    -0.327 N 
HETATM   12  C   UNL     1      25.553  43.438  50.980  1.00  0.00     0.222 C 
HETATM   13  O   UNL     1      24.383  43.189  50.673  1.00  0.00    -0.273 OA
HETATM   14  H   UNL     1      25.203  42.574  52.697  1.00  0.00     0.169 HD
BRANCH  12  15
HETATM   15  C   UNL     1      26.503  44.107  50.014  1.00  0.00     0.103 C 
BRANCH  15  16
HETATM   16  C   UNL     1      26.857  45.556  50.363  1.00  0.00     0.018 C 
BRANCH  16  17
HETATM   17  C   UNL     1      25.671  46.491  50.687  1.00  0.00     0.015 C 
HETATM   18  C   UNL     1      25.581  46.881  52.167  1.00  0.00     0.015 C 
BRANCH  17  19
HETATM   19  C   UNL     1      25.742  47.735  49.807  1.00  0.00    -0.054 A 
HETATM   20  C   UNL     1      24.583  48.353  49.312  1.00  0.00     0.007 A 
HETATM   21  C   UNL     1      24.668  49.499  48.517  1.00  0.00     0.001 A 
HETATM   22  C   UNL     1      25.912  50.042  48.209  1.00  0.00     0.000 A 
HETATM   23  C   UNL     1      27.072  49.442  48.696  1.00  0.00     0.001 A 
HETATM   24  C   UNL     1      26.988  48.297  49.491  1.00  0.00     0.007 A 
ENDBRANCH  17  19
ENDBRANCH  16  17
ENDBRANCH  15  16
ENDBRANCH  12  15
ENDBRANCH   1  11
BRANCH   8  25
HETATM   25  C   UNL     1      28.747  46.115  56.263  1.00  0.00     0.270 C 
HETATM   26  N   UNL     1      28.935  46.120  57.617  1.00  0.00    -0.365 N 
HETATM   27  H   UNL     1      29.435  45.349  58.042  1.00  0.00     0.159 HD
HETATM   28  H   UNL     1      28.574  46.881  58.172  1.00  0.00     0.159 HD
HETATM   29  O   UNL     1      28.146  47.023  55.698  1.00  0.00    -0.266 OA
ENDBRANCH   8  25
TORSDOF 6
ENDMDL
MODEL 6
REMARK VINA RESULT:      -8.6     12.544     14.268
REMARK  6 active torsions:
REMARK  status: ('A' for Active; 'I' for Inactive)
REMARK    1  A    between atoms: C_2  and  C_3 
REMARK    2  A    between atoms: C_2  and  C_9 
REMARK    3  A    between atoms: C_9  and  C_10 
REMARK    4  A    between atoms: C_10  and  C_11 
REMARK       I    between atoms: C_11  and  N_12 
REMARK    5  A    between atoms: N_12  and  C_13 
REMARK    6  A    between atoms: C_20  and  C_21 
REMARK       I    between atoms: C_21  and  N_22 
ROOT
HETATM    1  C   UNL     1      28.212  51.519  39.788  1.00  0.00     0.035 A 
HETATM    2  C   UNL     1      29.512  51.392  39.290  1.00  0.00     0.046 A 
HETATM    3  C   UNL     1      30.610  51.861  40.046  1.00  0.00     0.030 A 
HETATM    4  C   UNL     1      30.377  52.450  41.279  1.00  0.00     0.063 A 
HETATM    5  N   UNL     1      31.613  52.789  41.757  1.00  0.00    -0.277 N 
HETATM    6  H   UNL     1      31.829  53.238  42.640  1.00  0.00     0.189 HD
HETATM    7  N   UNL     1      32.631  52.479  40.935  1.00  0.00    -0.168 NA
HETATM    8  C   UNL     1      32.025  51.906  39.871  1.00  0.00     0.156 A 
HETATM    9  C   UNL     1      29.098  52.609  41.811  1.00  0.00     0.034 A 
HETATM   10  C   UNL     1      28.028  52.137  41.036  1.00  0.00     0.032 A 
ENDROOT
BRANCH   1  11
HETATM   11  N   UNL     1      27.040  51.089  39.135  1.00  0.00    -0.327 N 
HETATM   12  C   UNL     1      26.376  49.900  39.034  1.00  0.00     0.222 C 
HETATM   13  O   UNL     1      25.355  49.885  38.341  1.00  0.00    -0.273 OA
HETATM   14  H   UNL     1      26.526  51.806  38.635  1.00  0.00     0.169 HD
BRANCH  12  15
HETATM   15  C   UNL     1      26.862  48.666  39.760  1.00  0.00     0.103 C 
BRANCH  15  16
HETATM   16  C   UNL     1      28.093  47.999  39.137  1.00  0.00     0.018 C 
BRANCH  16  17
HETATM   17  C   UNL     1      28.856  46.999  40.034  1.00  0.00     0.015 C 
HETATM   18  C   UNL     1      29.381  45.772  39.278  1.00  0.00     0.015 C 
BRANCH  17  19
HETATM   19  C   UNL     1      29.995  47.717  40.749  1.00  0.00    -0.054 A 
HETATM   20  C   UNL     1      29.771  48.484  41.904  1.00  0.00     0.007 A 
HETATM   21  C   UNL     1      30.829  49.126  42.552  1.00  0.00     0.001 A 
HETATM   22  C   UNL     1      32.124  49.008  42.056  1.00  0.00     0.000 A 
HETATM   23  C   UNL     1      32.363  48.247  40.913  1.00  0.00     0.001 A 
HETATM   24  C   UNL     1      31.307  47.605  40.265  1.00  0.00     0.007 A 
ENDBRANCH  17  19
ENDBRANCH  16  17
ENDBRANCH  15  16
ENDBRANCH  12  15
ENDBRANCH   1  11
BRANCH   8  25
HETATM   25  C   UNL     1      32.793  51.415  38.718  1.00  0.00     0.270 C 
HETATM   26  N   UNL     1      34.094  51.104  39.001  1.00  0.00    -0.365 N 
HETATM   27  H   UNL     1      34.429  51.227  39.949  1.00  0.00     0.159 HD
HETATM   28  H   UNL     1      34.699  50.763  38.270  1.00  0.00     0.159 HD
HETATM   29  O   UNL     1      32.336  51.288  37.587  1.00  0.00    -0.266 OA
ENDBRANCH   8  25
TORSDOF 6
ENDMDL
MODEL 7
REMARK VINA RESULT:      -8.5     12.110     14.017
REMARK  6 active torsions:
REMARK  status: ('A' for Active; 'I' for Inactive)
REMARK    1  A    between atoms: C_2  and  C_3 
REMARK    2  A    between atoms: C_2  and  C_9 
REMARK    3  A    between atoms: C_9  and  C_10 
REMARK    4  A    between atoms: C_10  and  C_11 
REMARK       I    between atoms: C_11  and  N_12 
REMARK    5  A    between atoms: N_12  and  C_13 
REMARK    6  A    between atoms: C_20  and  C_21 
REMARK       I    between atoms: C_21  and  N_22 
ROOT
HETATM    1  C   UNL     1      30.584  48.658  39.549  1.00  0.00     0.035 A 
HETATM    2  C   UNL     1      29.238  48.319  39.706  1.00  0.00     0.046 A 
HETATM    3  C   UNL     1      28.230  49.144  39.156  1.00  0.00     0.030 A 
HETATM    4  C   UNL     1      28.598  50.289  38.467  1.00  0.00     0.063 A 
HETATM    5  N   UNL     1      27.422  50.859  38.060  1.00  0.00    -0.277 N 
HETATM    6  H   UNL     1      27.306  51.712  37.524  1.00  0.00     0.189 HD
HETATM    7  N   UNL     1      26.320  50.187  38.435  1.00  0.00    -0.168 NA
HETATM    8  C   UNL     1      26.804  49.124  39.116  1.00  0.00     0.156 A 
HETATM    9  C   UNL     1      29.927  50.673  38.295  1.00  0.00     0.034 A 
HETATM   10  C   UNL     1      30.904  49.837  38.855  1.00  0.00     0.032 A 
ENDROOT
BRANCH   1  11
HETATM   11  N   UNL     1      31.677  47.919  40.045  1.00  0.00    -0.327 N 
HETATM   12  C   UNL     1      32.328  47.851  41.243  1.00  0.00     0.222 C 
HETATM   13  O   UNL     1      33.288  47.079  41.317  1.00  0.00    -0.273 OA
HETATM   14  H   UNL     1      32.087  47.252  39.400  1.00  0.00     0.169 HD
BRANCH  12  15
HETATM   15  C   UNL     1      31.874  48.670  42.430  1.00  0.00     0.103 C 
BRANCH  15  16
HETATM   16  C   UNL     1      32.372  50.119  42.437  1.00  0.00     0.018 C 
BRANCH  16  17
HETATM   17  C   UNL     1      31.484  51.144  43.178  1.00  0.00     0.015 C 
HETATM   18  C   UNL     1      32.250  52.000  44.194  1.00  0.00     0.015 C 
BRANCH  17  19
HETATM   19  C   UNL     1      30.765  52.028  42.164  1.00  0.00    -0.054 A 
HETATM   20  C   UNL     1      31.461  52.957  41.374  1.00  0.00     0.007 A 
HETATM   21  C   UNL     1      30.786  53.749  40.443  1.00  0.00     0.001 A 
HETATM   22  C   UNL     1      29.408  53.623  40.288  1.00  0.00     0.000 A 
HETATM   23  C   UNL     1      28.704  52.703  41.063  1.00  0.00     0.001 A 
HETATM   24  C   UNL     1      29.378  51.909  41.993  1.00  0.00     0.007 A 
ENDBRANCH  17  19
ENDBRANCH  16  17
ENDBRANCH  15  16
ENDBRANCH  12  15
ENDBRANCH   1  11
BRANCH   8  25
HETATM   25  C   UNL     1      25.913  48.119  39.710  1.00  0.00     0.270 C 
HETATM   26  N   UNL     1      25.760  48.234  41.064  1.00  0.00    -0.365 N 
HETATM   27  H   UNL     1      26.251  48.976  41.548  1.00  0.00     0.159 HD
HETATM   28  H   UNL     1      25.169  47.584  41.561  1.00  0.00     0.159 HD
HETATM   29  O   UNL     1      25.343  47.237  39.075  1.00  0.00    -0.266 OA
ENDBRANCH   8  25
TORSDOF 6
ENDMDL
MODEL 8
REMARK VINA RESULT:      -8.4     12.516     15.129
REMARK  6 active torsions:
REMARK  status: ('A' for Active; 'I' for Inactive)
REMARK    1  A    between atoms: C_2  and  C_3 
REMARK    2  A    between atoms: C_2  and  C_9 
REMARK    3  A    between atoms: C_9  and  C_10 
REMARK    4  A    between atoms: C_10  and  C_11 
REMARK       I    between atoms: C_11  and  N_12 
REMARK    5  A    between atoms: N_12  and  C_13 
REMARK    6  A    between atoms: C_20  and  C_21 
REMARK       I    between atoms: C_21  and  N_22 
ROOT
HETATM    1  C   UNL     1      30.661  51.250  41.869  1.00  0.00     0.035 A 
HETATM    2  C   UNL     1      31.789  51.777  41.235  1.00  0.00     0.046 A 
HETATM    3  C   UNL     1      32.999  51.045  41.217  1.00  0.00     0.030 A 
HETATM    4  C   UNL     1      33.048  49.807  41.839  1.00  0.00     0.063 A 
HETATM    5  N   UNL     1      34.325  49.357  41.648  1.00  0.00    -0.277 N 
HETATM    6  H   UNL     1      34.721  48.479  41.965  1.00  0.00     0.189 HD
HETATM    7  N   UNL     1      35.116  50.202  40.963  1.00  0.00    -0.168 NA
HETATM    8  C   UNL     1      34.309  51.252  40.691  1.00  0.00     0.156 A 
HETATM    9  C   UNL     1      31.951  49.247  42.494  1.00  0.00     0.034 A 
HETATM   10  C   UNL     1      30.766  49.998  42.498  1.00  0.00     0.032 A 
ENDROOT
BRANCH   1  11
HETATM   11  N   UNL     1      29.402  51.877  41.952  1.00  0.00    -0.327 N 
HETATM   12  C   UNL     1      28.638  52.619  41.097  1.00  0.00     0.222 C 
HETATM   13  O   UNL     1      27.558  53.034  41.527  1.00  0.00    -0.273 OA
HETATM   14  H   UNL     1      28.902  51.748  42.825  1.00  0.00     0.169 HD
BRANCH  12  15
HETATM   15  C   UNL     1      29.090  52.895  39.681  1.00  0.00     0.103 C 
BRANCH  15  16
HETATM   16  C   UNL     1      28.579  51.895  38.638  1.00  0.00     0.018 C 
BRANCH  16  17
HETATM   17  C   UNL     1      29.634  50.947  38.025  1.00  0.00     0.015 C 
HETATM   18  C   UNL     1      31.038  51.560  37.945  1.00  0.00     0.015 C 
BRANCH  17  19
HETATM   19  C   UNL     1      29.663  49.638  38.806  1.00  0.00    -0.054 A 
HETATM   20  C   UNL     1      28.535  49.170  39.500  1.00  0.00     0.007 A 
HETATM   21  C   UNL     1      28.578  47.962  40.199  1.00  0.00     0.001 A 
HETATM   22  C   UNL     1      29.746  47.206  40.214  1.00  0.00     0.000 A 
HETATM   23  C   UNL     1      30.872  47.655  39.527  1.00  0.00     0.001 A 
HETATM   24  C   UNL     1      30.831  48.862  38.826  1.00  0.00     0.007 A 
ENDBRANCH  17  19
ENDBRANCH  16  17
ENDBRANCH  15  16
ENDBRANCH  12  15
ENDBRANCH   1  11
BRANCH   8  25
HETATM   25  C   UNL     1      34.792  52.421  39.944  1.00  0.00     0.270 C 
HETATM   26  N   UNL     1      35.809  53.099  40.557  1.00  0.00    -0.365 N 
HETATM   27  H   UNL     1      36.149  52.763  41.450  1.00  0.00     0.159 HD
HETATM   28  H   UNL     1      36.202  53.919  40.120  1.00  0.00     0.159 HD
HETATM   29  O   UNL     1      34.340  52.787  38.864  1.00  0.00    -0.266 OA
ENDBRANCH   8  25
TORSDOF 6
ENDMDL
MODEL 9
REMARK VINA RESULT:      -8.2     12.279     14.735
REMARK  6 active torsions:
REMARK  status: ('A' for Active; 'I' for Inactive)
REMARK    1  A    between atoms: C_2  and  C_3 
REMARK    2  A    between atoms: C_2  and  C_9 
REMARK    3  A    between atoms: C_9  and  C_10 
REMARK    4  A    between atoms: C_10  and  C_11 
REMARK       I    between atoms: C_11  and  N_12 
REMARK    5  A    between atoms: N_12  and  C_13 
REMARK    6  A    between atoms: C_20  and  C_21 
REMARK       I    between atoms: C_21  and  N_22 
ROOT
HETATM    1  C   UNL     1      32.113  49.201  41.810  1.00  0.00     0.035 A 
HETATM    2  C   UNL     1      33.426  49.497  41.435  1.00  0.00     0.046 A 
HETATM    3  C   UNL     1      34.145  50.509  42.109  1.00  0.00     0.030 A 
HETATM    4  C   UNL     1      33.529  51.202  43.141  1.00  0.00     0.063 A 
HETATM    5  N   UNL     1      34.465  52.093  43.587  1.00  0.00    -0.277 N 
HETATM    6  H   UNL     1      34.364  52.764  44.341  1.00  0.00     0.189 HD
HETATM    7  N   UNL     1      35.636  52.048  42.928  1.00  0.00    -0.168 NA
HETATM    8  C   UNL     1      35.452  51.073  42.009  1.00  0.00     0.156 A 
HETATM    9  C   UNL     1      32.218  50.948  43.542  1.00  0.00     0.034 A 
HETATM   10  C   UNL     1      31.528  49.941  42.851  1.00  0.00     0.032 A 
ENDROOT
BRANCH   1  11
HETATM   11  N   UNL     1      31.295  48.216  41.221  1.00  0.00    -0.327 N 
HETATM   12  C   UNL     1      29.960  48.107  40.954  1.00  0.00     0.222 C 
HETATM   13  O   UNL     1      29.578  47.059  40.426  1.00  0.00    -0.273 OA
HETATM   14  H   UNL     1      31.777  47.392  40.877  1.00  0.00     0.169 HD
BRANCH  12  15
HETATM   15  C   UNL     1      29.003  49.232  41.273  1.00  0.00     0.103 C 
BRANCH  15  16
HETATM   16  C   UNL     1      28.567  50.065  40.062  1.00  0.00     0.018 C 
BRANCH  16  17
HETATM   17  C   UNL     1      28.927  51.567  40.101  1.00  0.00     0.015 C 
HETATM   18  C   UNL     1      28.668  52.226  41.461  1.00  0.00     0.015 C 
BRANCH  17  19
HETATM   19  C   UNL     1      30.381  51.758  39.680  1.00  0.00    -0.054 A 
HETATM   20  C   UNL     1      31.215  52.689  40.319  1.00  0.00     0.007 A 
HETATM   21  C   UNL     1      32.547  52.841  39.927  1.00  0.00     0.001 A 
HETATM   22  C   UNL     1      33.062  52.064  38.894  1.00  0.00     0.000 A 
HETATM   23  C   UNL     1      32.247  51.134  38.252  1.00  0.00     0.001 A 
HETATM   24  C   UNL     1      30.916  50.979  38.644  1.00  0.00     0.007 A 
ENDBRANCH  17  19
ENDBRANCH  16  17
ENDBRANCH  15  16
ENDBRANCH  12  15
ENDBRANCH   1  11
BRANCH   8  25
HETATM   25  C   UNL     1      36.510  50.698  41.061  1.00  0.00     0.270 C 
HETATM   26  N   UNL     1      37.752  50.585  41.621  1.00  0.00    -0.365 N 
HETATM   27  H   UNL     1      37.857  50.762  42.613  1.00  0.00     0.159 HD
HETATM   28  H   UNL     1      38.542  50.335  41.047  1.00  0.00     0.159 HD
HETATM   29  O   UNL     1      36.328  50.498  39.864  1.00  0.00    -0.266 OA
ENDBRANCH   8  25
TORSDOF 6
ENDMDL
MODEL 10
REMARK VINA RESULT:      -8.1     12.542     14.655
REMARK  6 active torsions:
REMARK  status: ('A' for Active; 'I' for Inactive)
REMARK    1  A    between atoms: C_2  and  C_3 
REMARK    2  A    between atoms: C_2  and  C_9 
REMARK    3  A    between atoms: C_9  and  C_10 
REMARK    4  A    between atoms: C_10  and  C_11 
REMARK       I    between atoms: C_11  and  N_12 
REMARK    5  A    between atoms: N_12  and  C_13 
REMARK    6  A    between atoms: C_20  and  C_21 
REMARK       I    between atoms: C_21  and  N_22 
ROOT
HETATM    1  C   UNL     1      30.624  48.324  39.789  1.00  0.00     0.035 A 
HETATM    2  C   UNL     1      31.445  49.430  39.551  1.00  0.00     0.046 A 
HETATM    3  C   UNL     1      31.665  50.382  40.572  1.00  0.00     0.030 A 
HETATM    4  C   UNL     1      31.052  50.205  41.803  1.00  0.00     0.063 A 
HETATM    5  N   UNL     1      31.455  51.268  42.564  1.00  0.00    -0.277 N 
HETATM    6  H   UNL     1      31.205  51.465  43.527  1.00  0.00     0.189 HD
HETATM    7  N   UNL     1      32.272  52.128  41.930  1.00  0.00    -0.168 NA
HETATM    8  C   UNL     1      32.409  51.594  40.695  1.00  0.00     0.156 A 
HETATM    9  C   UNL     1      30.216  49.125  42.082  1.00  0.00     0.034 A 
HETATM   10  C   UNL     1      30.014  48.198  41.048  1.00  0.00     0.032 A 
ENDROOT
BRANCH   1  11
HETATM   11  N   UNL     1      30.331  47.307  38.858  1.00  0.00    -0.327 N 
HETATM   12  C   UNL     1      29.184  46.795  38.322  1.00  0.00     0.222 C 
HETATM   13  O   UNL     1      29.307  45.864  37.521  1.00  0.00    -0.273 OA
HETATM   14  H   UNL     1      31.133  46.841  38.448  1.00  0.00     0.169 HD
BRANCH  12  15
HETATM   15  C   UNL     1      27.830  47.363  38.679  1.00  0.00     0.103 C 
BRANCH  15  16
HETATM   16  C   UNL     1      27.637  48.839  38.318  1.00  0.00     0.018 C 
BRANCH  16  17
HETATM   17  C   UNL     1      26.848  49.695  39.334  1.00  0.00     0.015 C 
HETATM   18  C   UNL     1      26.458  48.934  40.607  1.00  0.00     0.015 C 
BRANCH  17  19
HETATM   19  C   UNL     1      27.645  50.948  39.680  1.00  0.00    -0.054 A 
HETATM   20  C   UNL     1      27.599  51.519  40.962  1.00  0.00     0.007 A 
HETATM   21  C   UNL     1      28.346  52.660  41.263  1.00  0.00     0.001 A 
HETATM   22  C   UNL     1      29.149  53.244  40.288  1.00  0.00     0.000 A 
HETATM   23  C   UNL     1      29.208  52.688  39.012  1.00  0.00     0.001 A 
HETATM   24  C   UNL     1      28.463  51.546  38.710  1.00  0.00     0.007 A 
ENDBRANCH  17  19
ENDBRANCH  16  17
ENDBRANCH  15  16
ENDBRANCH  12  15
ENDBRANCH   1  11
BRANCH   8  25
HETATM   25  C   UNL     1      33.235  52.236  39.664  1.00  0.00     0.270 C 
HETATM   26  N   UNL     1      34.339  52.880  40.150  1.00  0.00    -0.365 N 
HETATM   27  H   UNL     1      34.507  52.872  41.149  1.00  0.00     0.159 HD
HETATM   28  H   UNL     1      34.964  53.354  39.516  1.00  0.00     0.159 HD
HETATM   29  O   UNL     1      32.982  52.218  38.464  1.00  0.00    -0.266 OA
ENDBRANCH   8  25
TORSDOF 6
ENDMDL
