MODEL 1
REMARK VINA RESULT:      -9.1      0.000      0.000
REMARK  8 active torsions:
REMARK  status: ('A' for Active; 'I' for Inactive)
REMARK    1  A    between atoms: O_2  and  C_3 
REMARK    2  A    between atoms: C_4  and  O_5 
REMARK    3  A    between atoms: C_8  and  C_9 
REMARK    4  A    between atoms: C_9  and  C_10 
REMARK    5  A    between atoms: C_10  and  N_11 
REMARK       I    between atoms: N_11  and  C_12 
REMARK    6  A    between atoms: C_12  and  C_13 
REMARK    7  A    between atoms: C_13  and  S_14 
REMARK    8  A    between atoms: S_14  and  C_15 
ROOT
HETATM    1  N   UNL     1      26.522  42.044  51.538  1.00  0.00    -0.360 N 
HETATM    2  C   UNL     1      27.612  41.212  51.654  1.00  0.00     0.227 C 
HETATM    3  O   UNL     1      28.072  40.578  50.707  1.00  0.00    -0.273 OA
HETATM    4  H   UNL     1      26.095  42.407  52.392  1.00  0.00     0.162 HD
ENDROOT
BRANCH   2   5
HETATM    5  C   UNL     1      28.249  41.184  53.032  1.00  0.00     0.185 C 
BRANCH   5   6
HETATM    6  S   UNL     1      29.658  42.319  53.152  1.00  0.00    -0.080 SA
BRANCH   6   7
HETATM    7  C   UNL     1      28.876  43.800  53.594  1.00  0.00     0.197 A 
HETATM    8  N   UNL     1      29.047  44.529  54.760  1.00  0.00    -0.271 N 
HETATM    9  C   UNL     1      28.067  45.518  54.667  1.00  0.00     0.159 A 
HETATM   10  C   UNL     1      29.942  44.444  55.866  1.00  0.00     0.053 A 
HETATM   11  C   UNL     1      27.887  46.435  55.728  1.00  0.00     0.054 A 
HETATM   12  N   UNL     1      27.432  45.424  53.519  1.00  0.00    -0.129 NA
HETATM   13  C   UNL     1      28.673  46.382  56.810  1.00  0.00     0.017 A 
HETATM   14  C   UNL     1      29.745  45.384  56.903  1.00  0.00    -0.009 A 
HETATM   15  C   UNL     1      30.584  45.375  58.023  1.00  0.00     0.014 A 
HETATM   16  C   UNL     1      31.621  44.449  58.113  1.00  0.00     0.001 A 
HETATM   17  C   UNL     1      31.825  43.533  57.084  1.00  0.00     0.002 A 
HETATM   18  C   UNL     1      30.991  43.527  55.962  1.00  0.00     0.031 A 
HETATM   19  N   UNL     1      27.946  44.356  52.846  1.00  0.00    -0.122 NA
ENDBRANCH   6   7
ENDBRANCH   5   6
ENDBRANCH   2   5
BRANCH   1  20
HETATM   20  C   UNL     1      25.854  42.292  50.280  1.00  0.00     0.127 C 
BRANCH  20  21
HETATM   21  C   UNL     1      26.512  43.392  49.443  1.00  0.00     0.058 C 
BRANCH  21  22
HETATM   22  C   UNL     1      25.797  44.708  49.646  1.00  0.00    -0.054 A 
HETATM   23  C   UNL     1      26.526  45.906  49.732  1.00  0.00     0.046 A 
HETATM   24  C   UNL     1      25.870  47.138  49.837  1.00  0.00     0.102 A 
HETATM   25  C   UNL     1      24.467  47.163  49.830  1.00  0.00     0.101 A 
HETATM   26  C   UNL     1      23.735  45.974  49.784  1.00  0.00     0.040 A 
HETATM   27  C   UNL     1      24.398  44.751  49.685  1.00  0.00     0.010 A 
BRANCH  24  28
HETATM   28  O   UNL     1      26.499  48.355  49.906  1.00  0.00    -0.353 OA
HETATM   29  C   UNL     1      27.673  48.524  49.125  1.00  0.00     0.210 C 
ENDBRANCH  24  28
BRANCH  25  30
HETATM   30  O   UNL     1      23.835  48.379  49.934  1.00  0.00    -0.353 OA
HETATM   31  C   UNL     1      23.124  48.722  48.746  1.00  0.00     0.210 C 
ENDBRANCH  25  30
ENDBRANCH  21  22
ENDBRANCH  20  21
ENDBRANCH   1  20
TORSDOF 8
ENDMDL
MODEL 2
REMARK VINA RESULT:      -8.9      3.301      5.783
REMARK  8 active torsions:
REMARK  status: ('A' for Active; 'I' for Inactive)
REMARK    1  A    between atoms: O_2  and  C_3 
REMARK    2  A    between atoms: C_4  and  O_5 
REMARK    3  A    between atoms: C_8  and  C_9 
REMARK    4  A    between atoms: C_9  and  C_10 
REMARK    5  A    between atoms: C_10  and  N_11 
REMARK       I    between atoms: N_11  and  C_12 
REMARK    6  A    between atoms: C_12  and  C_13 
REMARK    7  A    between atoms: C_13  and  S_14 
REMARK    8  A    between atoms: S_14  and  C_15 
ROOT
HETATM    1  N   UNL     1      24.362  47.679  49.509  1.00  0.00    -0.360 N 
HETATM    2  C   UNL     1      25.697  47.410  49.705  1.00  0.00     0.227 C 
HETATM    3  O   UNL     1      26.564  48.282  49.689  1.00  0.00    -0.273 OA
HETATM    4  H   UNL     1      23.725  46.893  49.371  1.00  0.00     0.162 HD
ENDROOT
BRANCH   2   5
HETATM    5  C   UNL     1      26.018  45.957  50.008  1.00  0.00     0.185 C 
BRANCH   5   6
HETATM    6  S   UNL     1      25.112  45.349  51.457  1.00  0.00    -0.080 SA
BRANCH   6   7
HETATM    7  C   UNL     1      25.822  46.286  52.730  1.00  0.00     0.197 A 
HETATM    8  N   UNL     1      26.887  45.933  53.542  1.00  0.00    -0.271 N 
HETATM    9  C   UNL     1      26.927  46.963  54.483  1.00  0.00     0.159 A 
HETATM   10  C   UNL     1      27.815  44.851  53.555  1.00  0.00     0.053 A 
HETATM   11  C   UNL     1      27.865  46.916  55.541  1.00  0.00     0.054 A 
HETATM   12  N   UNL     1      26.019  47.872  54.202  1.00  0.00    -0.129 NA
HETATM   13  C   UNL     1      28.739  45.906  55.628  1.00  0.00     0.017 A 
HETATM   14  C   UNL     1      28.748  44.842  54.616  1.00  0.00    -0.009 A 
HETATM   15  C   UNL     1      29.700  43.818  54.702  1.00  0.00     0.014 A 
HETATM   16  C   UNL     1      29.736  42.815  53.736  1.00  0.00     0.001 A 
HETATM   17  C   UNL     1      28.826  42.834  52.682  1.00  0.00     0.002 A 
HETATM   18  C   UNL     1      27.867  43.847  52.587  1.00  0.00     0.031 A 
HETATM   19  N   UNL     1      25.336  47.452  53.100  1.00  0.00    -0.122 NA
ENDBRANCH   6   7
ENDBRANCH   5   6
ENDBRANCH   2   5
BRANCH   1  20
HETATM   20  C   UNL     1      23.849  49.018  49.324  1.00  0.00     0.127 C 
BRANCH  20  21
HETATM   21  C   UNL     1      22.877  49.144  48.149  1.00  0.00     0.058 C 
BRANCH  21  22
HETATM   22  C   UNL     1      21.538  49.657  48.625  1.00  0.00    -0.054 A 
HETATM   23  C   UNL     1      20.583  48.768  49.148  1.00  0.00     0.046 A 
HETATM   24  C   UNL     1      19.373  49.241  49.668  1.00  0.00     0.102 A 
HETATM   25  C   UNL     1      19.134  50.624  49.683  1.00  0.00     0.101 A 
HETATM   26  C   UNL     1      20.062  51.512  49.131  1.00  0.00     0.040 A 
HETATM   27  C   UNL     1      21.263  51.030  48.610  1.00  0.00     0.010 A 
BRANCH  24  28
HETATM   28  O   UNL     1      18.395  48.451  50.216  1.00  0.00    -0.353 OA
HETATM   29  C   UNL     1      17.541  47.758  49.316  1.00  0.00     0.210 C 
ENDBRANCH  24  28
BRANCH  25  30
HETATM   30  O   UNL     1      17.942  51.076  50.197  1.00  0.00    -0.353 OA
HETATM   31  C   UNL     1      17.639  52.403  49.772  1.00  0.00     0.210 C 
ENDBRANCH  25  30
ENDBRANCH  21  22
ENDBRANCH  20  21
ENDBRANCH   1  20
TORSDOF 8
ENDMDL
MODEL 3
REMARK VINA RESULT:      -8.7      3.316      5.700
REMARK  8 active torsions:
REMARK  status: ('A' for Active; 'I' for Inactive)
REMARK    1  A    between atoms: O_2  and  C_3 
REMARK    2  A    between atoms: C_4  and  O_5 
REMARK    3  A    between atoms: C_8  and  C_9 
REMARK    4  A    between atoms: C_9  and  C_10 
REMARK    5  A    between atoms: C_10  and  N_11 
REMARK       I    between atoms: N_11  and  C_12 
REMARK    6  A    between atoms: C_12  and  C_13 
REMARK    7  A    between atoms: C_13  and  S_14 
REMARK    8  A    between atoms: S_14  and  C_15 
ROOT
HETATM    1  N   UNL     1      24.158  47.928  50.110  1.00  0.00    -0.360 N 
HETATM    2  C   UNL     1      24.816  46.739  50.322  1.00  0.00     0.227 C 
HETATM    3  O   UNL     1      24.514  45.696  49.745  1.00  0.00    -0.273 OA
HETATM    4  H   UNL     1      24.352  48.709  50.740  1.00  0.00     0.162 HD
ENDROOT
BRANCH   2   5
HETATM    5  C   UNL     1      25.994  46.822  51.277  1.00  0.00     0.185 C 
BRANCH   5   6
HETATM    6  S   UNL     1      25.716  45.855  52.785  1.00  0.00    -0.080 SA
BRANCH   6   7
HETATM    7  C   UNL     1      26.817  44.536  52.561  1.00  0.00     0.197 A 
HETATM    8  N   UNL     1      27.955  44.254  53.298  1.00  0.00    -0.271 N 
HETATM    9  C   UNL     1      28.540  43.201  52.594  1.00  0.00     0.159 A 
HETATM   10  C   UNL     1      28.527  44.784  54.491  1.00  0.00     0.053 A 
HETATM   11  C   UNL     1      29.782  42.674  53.016  1.00  0.00     0.054 A 
HETATM   12  N   UNL     1      27.776  42.849  51.582  1.00  0.00    -0.129 NA
HETATM   13  C   UNL     1      30.387  43.156  54.109  1.00  0.00     0.017 A 
HETATM   14  C   UNL     1      29.761  44.226  54.894  1.00  0.00    -0.009 A 
HETATM   15  C   UNL     1      30.389  44.684  56.059  1.00  0.00     0.014 A 
HETATM   16  C   UNL     1      29.794  45.682  56.828  1.00  0.00     0.001 A 
HETATM   17  C   UNL     1      28.571  46.221  56.438  1.00  0.00     0.002 A 
HETATM   18  C   UNL     1      27.935  45.776  55.275  1.00  0.00     0.031 A 
HETATM   19  N   UNL     1      26.694  43.679  51.570  1.00  0.00    -0.122 NA
ENDBRANCH   6   7
ENDBRANCH   5   6
ENDBRANCH   2   5
BRANCH   1  20
HETATM   20  C   UNL     1      23.088  48.073  49.149  1.00  0.00     0.127 C 
BRANCH  20  21
HETATM   21  C   UNL     1      22.904  49.508  48.649  1.00  0.00     0.058 C 
BRANCH  21  22
HETATM   22  C   UNL     1      21.467  49.946  48.818  1.00  0.00    -0.054 A 
HETATM   23  C   UNL     1      20.508  49.050  49.321  1.00  0.00     0.046 A 
HETATM   24  C   UNL     1      19.194  49.468  49.559  1.00  0.00     0.102 A 
HETATM   25  C   UNL     1      18.850  50.806  49.311  1.00  0.00     0.101 A 
HETATM   26  C   UNL     1      19.788  51.693  48.775  1.00  0.00     0.040 A 
HETATM   27  C   UNL     1      21.094  51.266  48.536  1.00  0.00     0.010 A 
BRANCH  24  28
HETATM   28  O   UNL     1      18.199  48.670  50.065  1.00  0.00    -0.353 OA
HETATM   29  C   UNL     1      17.634  47.704  49.192  1.00  0.00     0.210 C 
ENDBRANCH  24  28
BRANCH  25  30
HETATM   30  O   UNL     1      17.557  51.204  49.549  1.00  0.00    -0.353 OA
HETATM   31  C   UNL     1      17.468  52.591  49.870  1.00  0.00     0.210 C 
ENDBRANCH  25  30
ENDBRANCH  21  22
ENDBRANCH  20  21
ENDBRANCH   1  20
TORSDOF 8
ENDMDL
MODEL 4
REMARK VINA RESULT:      -8.2      1.168      1.950
REMARK  8 active torsions:
REMARK  status: ('A' for Active; 'I' for Inactive)
REMARK    1  A    between atoms: O_2  and  C_3 
REMARK    2  A    between atoms: C_4  and  O_5 
REMARK    3  A    between atoms: C_8  and  C_9 
REMARK    4  A    between atoms: C_9  and  C_10 
REMARK    5  A    between atoms: C_10  and  N_11 
REMARK       I    between atoms: N_11  and  C_12 
REMARK    6  A    between atoms: C_12  and  C_13 
REMARK    7  A    between atoms: C_13  and  S_14 
REMARK    8  A    between atoms: S_14  and  C_15 
ROOT
HETATM    1  N   UNL     1      26.165  42.158  51.503  1.00  0.00    -0.360 N 
HETATM    2  C   UNL     1      27.319  41.409  51.486  1.00  0.00     0.227 C 
HETATM    3  O   UNL     1      27.821  40.978  50.450  1.00  0.00    -0.273 OA
HETATM    4  H   UNL     1      25.718  42.341  52.403  1.00  0.00     0.162 HD
ENDROOT
BRANCH   2   5
HETATM    5  C   UNL     1      27.967  41.205  52.844  1.00  0.00     0.185 C 
BRANCH   5   6
HETATM    6  S   UNL     1      29.427  42.258  53.065  1.00  0.00    -0.080 SA
BRANCH   6   7
HETATM    7  C   UNL     1      28.703  43.771  53.501  1.00  0.00     0.197 A 
HETATM    8  N   UNL     1      28.929  44.513  54.649  1.00  0.00    -0.271 N 
HETATM    9  C   UNL     1      27.977  45.530  54.565  1.00  0.00     0.159 A 
HETATM   10  C   UNL     1      29.851  44.419  55.731  1.00  0.00     0.053 A 
HETATM   11  C   UNL     1      27.855  46.470  55.614  1.00  0.00     0.054 A 
HETATM   12  N   UNL     1      27.308  45.437  53.436  1.00  0.00    -0.129 NA
HETATM   13  C   UNL     1      28.669  46.412  56.675  1.00  0.00     0.017 A 
HETATM   14  C   UNL     1      29.712  45.382  56.756  1.00  0.00    -0.009 A 
HETATM   15  C   UNL     1      30.582  45.366  57.853  1.00  0.00     0.014 A 
HETATM   16  C   UNL     1      31.592  44.410  57.931  1.00  0.00     0.001 A 
HETATM   17  C   UNL     1      31.738  43.471  56.913  1.00  0.00     0.002 A 
HETATM   18  C   UNL     1      30.874  43.472  55.814  1.00  0.00     0.031 A 
HETATM   19  N   UNL     1      27.771  44.342  52.768  1.00  0.00    -0.122 NA
ENDBRANCH   6   7
ENDBRANCH   5   6
ENDBRANCH   2   5
BRANCH   1  20
HETATM   20  C   UNL     1      25.469  42.556  50.299  1.00  0.00     0.127 C 
BRANCH  20  21
HETATM   21  C   UNL     1      26.161  43.690  49.538  1.00  0.00     0.058 C 
BRANCH  21  22
HETATM   22  C   UNL     1      25.216  44.855  49.354  1.00  0.00    -0.054 A 
HETATM   23  C   UNL     1      24.001  44.682  48.669  1.00  0.00     0.046 A 
HETATM   24  C   UNL     1      23.082  45.731  48.564  1.00  0.00     0.102 A 
HETATM   25  C   UNL     1      23.379  46.959  49.177  1.00  0.00     0.101 A 
HETATM   26  C   UNL     1      24.601  47.151  49.827  1.00  0.00     0.040 A 
HETATM   27  C   UNL     1      25.514  46.100  49.921  1.00  0.00     0.010 A 
BRANCH  24  28
HETATM   28  O   UNL     1      21.867  45.646  47.934  1.00  0.00    -0.353 OA
HETATM   29  C   UNL     1      21.868  45.695  46.515  1.00  0.00     0.210 C 
ENDBRANCH  24  28
BRANCH  25  30
HETATM   30  O   UNL     1      22.468  47.982  49.067  1.00  0.00    -0.353 OA
HETATM   31  C   UNL     1      23.019  49.240  49.450  1.00  0.00     0.210 C 
ENDBRANCH  25  30
ENDBRANCH  21  22
ENDBRANCH  20  21
ENDBRANCH   1  20
TORSDOF 8
ENDMDL
MODEL 5
REMARK VINA RESULT:      -8.2      3.845      9.478
REMARK  8 active torsions:
REMARK  status: ('A' for Active; 'I' for Inactive)
REMARK    1  A    between atoms: O_2  and  C_3 
REMARK    2  A    between atoms: C_4  and  O_5 
REMARK    3  A    between atoms: C_8  and  C_9 
REMARK    4  A    between atoms: C_9  and  C_10 
REMARK    5  A    between atoms: C_10  and  N_11 
REMARK       I    between atoms: N_11  and  C_12 
REMARK    6  A    between atoms: C_12  and  C_13 
REMARK    7  A    between atoms: C_13  and  S_14 
REMARK    8  A    between atoms: S_14  and  C_15 
ROOT
HETATM    1  N   UNL     1      25.522  44.196  51.340  1.00  0.00    -0.360 N 
HETATM    2  C   UNL     1      25.705  45.493  50.918  1.00  0.00     0.227 C 
HETATM    3  O   UNL     1      26.246  46.352  51.612  1.00  0.00    -0.273 OA
HETATM    4  H   UNL     1      24.922  43.585  50.783  1.00  0.00     0.162 HD
ENDROOT
BRANCH   2   5
HETATM    5  C   UNL     1      25.247  45.773  49.497  1.00  0.00     0.185 C 
BRANCH   5   6
HETATM    6  S   UNL     1      23.486  46.198  49.423  1.00  0.00    -0.080 SA
BRANCH   6   7
HETATM    7  C   UNL     1      23.549  47.927  49.318  1.00  0.00     0.197 A 
HETATM    8  N   UNL     1      22.510  48.792  49.017  1.00  0.00    -0.271 N 
HETATM    9  C   UNL     1      23.145  50.029  48.904  1.00  0.00     0.159 A 
HETATM   10  C   UNL     1      21.104  48.638  48.845  1.00  0.00     0.053 A 
HETATM   11  C   UNL     1      22.401  51.173  48.533  1.00  0.00     0.054 A 
HETATM   12  N   UNL     1      24.424  49.912  49.187  1.00  0.00    -0.129 NA
HETATM   13  C   UNL     1      21.082  51.084  48.321  1.00  0.00     0.017 A 
HETATM   14  C   UNL     1      20.387  49.802  48.489  1.00  0.00    -0.009 A 
HETATM   15  C   UNL     1      19.000  49.742  48.306  1.00  0.00     0.014 A 
HETATM   16  C   UNL     1      18.323  48.538  48.486  1.00  0.00     0.001 A 
HETATM   17  C   UNL     1      19.028  47.393  48.851  1.00  0.00     0.002 A 
HETATM   18  C   UNL     1      20.414  47.438  49.032  1.00  0.00     0.031 A 
HETATM   19  N   UNL     1      24.673  48.599  49.455  1.00  0.00    -0.122 NA
ENDBRANCH   6   7
ENDBRANCH   5   6
ENDBRANCH   2   5
BRANCH   1  20
HETATM   20  C   UNL     1      25.998  43.711  52.615  1.00  0.00     0.127 C 
BRANCH  20  21
HETATM   21  C   UNL     1      27.319  42.943  52.523  1.00  0.00     0.058 C 
BRANCH  21  22
HETATM   22  C   UNL     1      28.303  43.463  53.547  1.00  0.00    -0.054 A 
HETATM   23  C   UNL     1      28.157  44.756  54.078  1.00  0.00     0.046 A 
HETATM   24  C   UNL     1      29.012  45.217  55.085  1.00  0.00     0.102 A 
HETATM   25  C   UNL     1      30.008  44.358  55.578  1.00  0.00     0.101 A 
HETATM   26  C   UNL     1      30.184  43.085  55.028  1.00  0.00     0.040 A 
HETATM   27  C   UNL     1      29.330  42.636  54.020  1.00  0.00     0.010 A 
BRANCH  24  28
HETATM   28  O   UNL     1      28.931  46.452  55.675  1.00  0.00    -0.353 OA
HETATM   29  C   UNL     1      27.676  47.114  55.625  1.00  0.00     0.210 C 
ENDBRANCH  24  28
BRANCH  25  30
HETATM   30  O   UNL     1      30.841  44.823  56.567  1.00  0.00    -0.353 OA
HETATM   31  C   UNL     1      31.570  43.771  57.197  1.00  0.00     0.210 C 
ENDBRANCH  25  30
ENDBRANCH  21  22
ENDBRANCH  20  21
ENDBRANCH   1  20
TORSDOF 8
ENDMDL
MODEL 6
REMARK VINA RESULT:      -8.1      3.652      9.121
REMARK  8 active torsions:
REMARK  status: ('A' for Active; 'I' for Inactive)
REMARK    1  A    between atoms: O_2  and  C_3 
REMARK    2  A    between atoms: C_4  and  O_5 
REMARK    3  A    between atoms: C_8  and  C_9 
REMARK    4  A    between atoms: C_9  and  C_10 
REMARK    5  A    between atoms: C_10  and  N_11 
REMARK       I    between atoms: N_11  and  C_12 
REMARK    6  A    between atoms: C_12  and  C_13 
REMARK    7  A    between atoms: C_13  and  S_14 
REMARK    8  A    between atoms: S_14  and  C_15 
ROOT
HETATM    1  N   UNL     1      26.411  43.858  51.306  1.00  0.00    -0.360 N 
HETATM    2  C   UNL     1      25.685  45.017  51.453  1.00  0.00     0.227 C 
HETATM    3  O   UNL     1      26.153  46.041  51.947  1.00  0.00    -0.273 OA
HETATM    4  H   UNL     1      25.914  43.005  51.043  1.00  0.00     0.162 HD
ENDROOT
BRANCH   2   5
HETATM    5  C   UNL     1      24.272  44.961  50.896  1.00  0.00     0.185 C 
BRANCH   5   6
HETATM    6  S   UNL     1      24.250  45.085  49.087  1.00  0.00    -0.080 SA
BRANCH   6   7
HETATM    7  C   UNL     1      22.556  45.275  48.773  1.00  0.00     0.197 A 
HETATM    8  N   UNL     1      21.854  46.460  48.625  1.00  0.00    -0.271 N 
HETATM    9  C   UNL     1      20.525  46.039  48.560  1.00  0.00     0.159 A 
HETATM   10  C   UNL     1      22.224  47.833  48.532  1.00  0.00     0.053 A 
HETATM   11  C   UNL     1      19.486  46.994  48.472  1.00  0.00     0.054 A 
HETATM   12  N   UNL     1      20.462  44.725  48.589  1.00  0.00    -0.129 NA
HETATM   13  C   UNL     1      19.769  48.301  48.417  1.00  0.00     0.017 A 
HETATM   14  C   UNL     1      21.163  48.761  48.430  1.00  0.00    -0.009 A 
HETATM   15  C   UNL     1      21.438  50.130  48.327  1.00  0.00     0.014 A 
HETATM   16  C   UNL     1      22.757  50.579  48.313  1.00  0.00     0.001 A 
HETATM   17  C   UNL     1      23.803  49.663  48.398  1.00  0.00     0.002 A 
HETATM   18  C   UNL     1      23.543  48.293  48.506  1.00  0.00     0.031 A 
HETATM   19  N   UNL     1      21.733  44.250  48.712  1.00  0.00    -0.122 NA
ENDBRANCH   6   7
ENDBRANCH   5   6
ENDBRANCH   2   5
BRANCH   1  20
HETATM   20  C   UNL     1      27.807  43.754  51.667  1.00  0.00     0.127 C 
BRANCH  20  21
HETATM   21  C   UNL     1      28.056  42.895  52.909  1.00  0.00     0.058 C 
BRANCH  21  22
HETATM   22  C   UNL     1      28.779  43.696  53.967  1.00  0.00    -0.054 A 
HETATM   23  C   UNL     1      28.216  44.884  54.466  1.00  0.00     0.046 A 
HETATM   24  C   UNL     1      28.836  45.590  55.502  1.00  0.00     0.102 A 
HETATM   25  C   UNL     1      30.019  45.081  56.059  1.00  0.00     0.101 A 
HETATM   26  C   UNL     1      30.606  43.921  55.544  1.00  0.00     0.040 A 
HETATM   27  C   UNL     1      29.983  43.228  54.506  1.00  0.00     0.010 A 
BRANCH  24  28
HETATM   28  O   UNL     1      28.349  46.743  56.063  1.00  0.00    -0.353 OA
HETATM   29  C   UNL     1      27.421  47.496  55.296  1.00  0.00     0.210 C 
ENDBRANCH  24  28
BRANCH  25  30
HETATM   30  O   UNL     1      30.618  45.783  57.077  1.00  0.00    -0.353 OA
HETATM   31  C   UNL     1      30.858  44.972  58.225  1.00  0.00     0.210 C 
ENDBRANCH  25  30
ENDBRANCH  21  22
ENDBRANCH  20  21
ENDBRANCH   1  20
TORSDOF 8
ENDMDL
MODEL 7
REMARK VINA RESULT:      -8.0      1.730      2.517
REMARK  8 active torsions:
REMARK  status: ('A' for Active; 'I' for Inactive)
REMARK    1  A    between atoms: O_2  and  C_3 
REMARK    2  A    between atoms: C_4  and  O_5 
REMARK    3  A    between atoms: C_8  and  C_9 
REMARK    4  A    between atoms: C_9  and  C_10 
REMARK    5  A    between atoms: C_10  and  N_11 
REMARK       I    between atoms: N_11  and  C_12 
REMARK    6  A    between atoms: C_12  and  C_13 
REMARK    7  A    between atoms: C_13  and  S_14 
REMARK    8  A    between atoms: S_14  and  C_15 
ROOT
HETATM    1  N   UNL     1      25.424  43.712  49.588  1.00  0.00    -0.360 N 
HETATM    2  C   UNL     1      26.390  42.748  49.411  1.00  0.00     0.227 C 
HETATM    3  O   UNL     1      26.360  41.933  48.491  1.00  0.00    -0.273 OA
HETATM    4  H   UNL     1      25.424  44.244  50.460  1.00  0.00     0.162 HD
ENDROOT
BRANCH   2   5
HETATM    5  C   UNL     1      27.539  42.806  50.402  1.00  0.00     0.185 C 
BRANCH   5   6
HETATM    6  S   UNL     1      26.975  42.583  52.110  1.00  0.00    -0.080 SA
BRANCH   6   7
HETATM    7  C   UNL     1      26.787  44.225  52.632  1.00  0.00     0.197 A 
HETATM    8  N   UNL     1      27.506  44.884  53.616  1.00  0.00    -0.271 N 
HETATM    9  C   UNL     1      26.838  46.104  53.737  1.00  0.00     0.159 A 
HETATM   10  C   UNL     1      28.655  44.562  54.395  1.00  0.00     0.053 A 
HETATM   11  C   UNL     1      27.253  47.040  54.712  1.00  0.00     0.054 A 
HETATM   12  N   UNL     1      25.867  46.182  52.854  1.00  0.00    -0.129 NA
HETATM   13  C   UNL     1      28.303  46.779  55.500  1.00  0.00     0.017 A 
HETATM   14  C   UNL     1      29.051  45.526  55.350  1.00  0.00    -0.009 A 
HETATM   15  C   UNL     1      30.174  45.293  56.154  1.00  0.00     0.014 A 
HETATM   16  C   UNL     1      30.908  44.118  56.006  1.00  0.00     0.001 A 
HETATM   17  C   UNL     1      30.526  43.176  55.054  1.00  0.00     0.002 A 
HETATM   18  C   UNL     1      29.404  43.393  54.248  1.00  0.00     0.031 A 
HETATM   19  N   UNL     1      25.843  45.010  52.158  1.00  0.00    -0.122 NA
ENDBRANCH   6   7
ENDBRANCH   5   6
ENDBRANCH   2   5
BRANCH   1  20
HETATM   20  C   UNL     1      24.316  43.890  48.677  1.00  0.00     0.127 C 
BRANCH  20  21
HETATM   21  C   UNL     1      23.066  44.475  49.341  1.00  0.00     0.058 C 
BRANCH  21  22
HETATM   22  C   UNL     1      22.935  45.945  49.014  1.00  0.00    -0.054 A 
HETATM   23  C   UNL     1      23.907  46.859  49.456  1.00  0.00     0.046 A 
HETATM   24  C   UNL     1      23.840  48.208  49.091  1.00  0.00     0.102 A 
HETATM   25  C   UNL     1      22.798  48.634  48.253  1.00  0.00     0.101 A 
HETATM   26  C   UNL     1      21.806  47.739  47.840  1.00  0.00     0.040 A 
HETATM   27  C   UNL     1      21.879  46.398  48.214  1.00  0.00     0.010 A 
BRANCH  24  28
HETATM   28  O   UNL     1      24.752  49.164  49.458  1.00  0.00    -0.353 OA
HETATM   29  C   UNL     1      26.084  49.001  48.994  1.00  0.00     0.210 C 
ENDBRANCH  24  28
BRANCH  25  30
HETATM   30  O   UNL     1      22.743  49.961  47.901  1.00  0.00    -0.353 OA
HETATM   31  C   UNL     1      21.764  50.679  48.651  1.00  0.00     0.210 C 
ENDBRANCH  25  30
ENDBRANCH  21  22
ENDBRANCH  20  21
ENDBRANCH   1  20
TORSDOF 8
ENDMDL
MODEL 8
REMARK VINA RESULT:      -8.0      3.404      5.579
REMARK  8 active torsions:
REMARK  status: ('A' for Active; 'I' for Inactive)
REMARK    1  A    between atoms: O_2  and  C_3 
REMARK    2  A    between atoms: C_4  and  O_5 
REMARK    3  A    between atoms: C_8  and  C_9 
REMARK    4  A    between atoms: C_9  and  C_10 
REMARK    5  A    between atoms: C_10  and  N_11 
REMARK       I    between atoms: N_11  and  C_12 
REMARK    6  A    between atoms: C_12  and  C_13 
REMARK    7  A    between atoms: C_13  and  S_14 
REMARK    8  A    between atoms: S_14  and  C_15 
ROOT
HETATM    1  N   UNL     1      22.357  45.554  49.271  1.00  0.00    -0.360 N 
HETATM    2  C   UNL     1      22.474  44.184  49.312  1.00  0.00     0.227 C 
HETATM    3  O   UNL     1      21.892  43.439  48.526  1.00  0.00    -0.273 OA
HETATM    4  H   UNL     1      22.732  46.097  50.050  1.00  0.00     0.162 HD
ENDROOT
BRANCH   2   5
HETATM    5  C   UNL     1      23.433  43.657  50.366  1.00  0.00     0.185 C 
BRANCH   5   6
HETATM    6  S   UNL     1      24.553  44.948  50.972  1.00  0.00    -0.080 SA
BRANCH   6   7
HETATM    7  C   UNL     1      25.784  44.006  51.745  1.00  0.00     0.197 A 
HETATM    8  N   UNL     1      26.651  44.411  52.747  1.00  0.00    -0.271 N 
HETATM    9  C   UNL     1      27.524  43.329  52.872  1.00  0.00     0.159 A 
HETATM   10  C   UNL     1      26.763  45.579  53.555  1.00  0.00     0.053 A 
HETATM   11  C   UNL     1      28.611  43.401  53.774  1.00  0.00     0.054 A 
HETATM   12  N   UNL     1      27.156  42.352  52.072  1.00  0.00    -0.129 NA
HETATM   13  C   UNL     1      28.790  44.488  54.534  1.00  0.00     0.017 A 
HETATM   14  C   UNL     1      27.851  45.613  54.456  1.00  0.00    -0.009 A 
HETATM   15  C   UNL     1      28.033  46.721  55.293  1.00  0.00     0.014 A 
HETATM   16  C   UNL     1      27.135  47.785  55.248  1.00  0.00     0.001 A 
HETATM   17  C   UNL     1      26.054  47.745  54.370  1.00  0.00     0.002 A 
HETATM   18  C   UNL     1      25.864  46.647  53.526  1.00  0.00     0.031 A 
HETATM   19  N   UNL     1      26.063  42.773  51.376  1.00  0.00    -0.122 NA
ENDBRANCH   6   7
ENDBRANCH   5   6
ENDBRANCH   2   5
BRANCH   1  20
HETATM   20  C   UNL     1      21.584  46.246  48.264  1.00  0.00     0.127 C 
BRANCH  20  21
HETATM   21  C   UNL     1      20.122  46.468  48.659  1.00  0.00     0.058 C 
BRANCH  21  22
HETATM   22  C   UNL     1      19.912  47.890  49.125  1.00  0.00    -0.054 A 
HETATM   23  C   UNL     1      20.775  48.913  48.694  1.00  0.00     0.046 A 
HETATM   24  C   UNL     1      20.542  50.245  49.053  1.00  0.00     0.102 A 
HETATM   25  C   UNL     1      19.415  50.552  49.832  1.00  0.00     0.101 A 
HETATM   26  C   UNL     1      18.574  49.537  50.296  1.00  0.00     0.040 A 
HETATM   27  C   UNL     1      18.818  48.211  49.938  1.00  0.00     0.010 A 
BRANCH  24  28
HETATM   28  O   UNL     1      21.317  51.307  48.663  1.00  0.00    -0.353 OA
HETATM   29  C   UNL     1      22.724  51.119  48.666  1.00  0.00     0.210 C 
ENDBRANCH  24  28
BRANCH  25  30
HETATM   30  O   UNL     1      19.197  51.864  50.177  1.00  0.00    -0.353 OA
HETATM   31  C   UNL     1      18.032  52.401  49.553  1.00  0.00     0.210 C 
ENDBRANCH  25  30
ENDBRANCH  21  22
ENDBRANCH  20  21
ENDBRANCH   1  20
TORSDOF 8
ENDMDL
MODEL 9
REMARK VINA RESULT:      -7.9      4.822     10.553
REMARK  8 active torsions:
REMARK  status: ('A' for Active; 'I' for Inactive)
REMARK    1  A    between atoms: O_2  and  C_3 
REMARK    2  A    between atoms: C_4  and  O_5 
REMARK    3  A    between atoms: C_8  and  C_9 
REMARK    4  A    between atoms: C_9  and  C_10 
REMARK    5  A    between atoms: C_10  and  N_11 
REMARK       I    between atoms: N_11  and  C_12 
REMARK    6  A    between atoms: C_12  and  C_13 
REMARK    7  A    between atoms: C_13  and  S_14 
REMARK    8  A    between atoms: S_14  and  C_15 
ROOT
HETATM    1  N   UNL     1      25.070  47.487  49.734  1.00  0.00    -0.360 N 
HETATM    2  C   UNL     1      25.684  48.625  49.264  1.00  0.00     0.227 C 
HETATM    3  O   UNL     1      26.887  48.840  49.400  1.00  0.00    -0.273 OA
HETATM    4  H   UNL     1      24.049  47.451  49.733  1.00  0.00     0.162 HD
ENDROOT
BRANCH   2   5
HETATM    5  C   UNL     1      24.774  49.574  48.504  1.00  0.00     0.185 C 
BRANCH   5   6
HETATM    6  S   UNL     1      23.122  49.669  49.244  1.00  0.00    -0.080 SA
BRANCH   6   7
HETATM    7  C   UNL     1      22.185  48.734  48.126  1.00  0.00     0.197 A 
HETATM    8  N   UNL     1      20.916  49.017  47.646  1.00  0.00    -0.271 N 
HETATM    9  C   UNL     1      20.583  47.869  46.927  1.00  0.00     0.159 A 
HETATM   10  C   UNL     1      20.038  50.135  47.749  1.00  0.00     0.053 A 
HETATM   11  C   UNL     1      19.306  47.756  46.330  1.00  0.00     0.054 A 
HETATM   12  N   UNL     1      21.592  47.025  46.921  1.00  0.00    -0.129 NA
HETATM   13  C   UNL     1      18.423  48.758  46.424  1.00  0.00     0.017 A 
HETATM   14  C   UNL     1      18.775  49.996  47.130  1.00  0.00    -0.009 A 
HETATM   15  C   UNL     1      17.854  51.049  47.178  1.00  0.00     0.014 A 
HETATM   16  C   UNL     1      18.183  52.238  47.823  1.00  0.00     0.001 A 
HETATM   17  C   UNL     1      19.434  52.380  48.420  1.00  0.00     0.002 A 
HETATM   18  C   UNL     1      20.362  51.335  48.385  1.00  0.00     0.031 A 
HETATM   19  N   UNL     1      22.596  47.573  47.663  1.00  0.00    -0.122 NA
ENDBRANCH   6   7
ENDBRANCH   5   6
ENDBRANCH   2   5
BRANCH   1  20
HETATM   20  C   UNL     1      25.793  46.413  50.379  1.00  0.00     0.127 C 
BRANCH  20  21
HETATM   21  C   UNL     1      25.118  45.901  51.653  1.00  0.00     0.058 C 
BRANCH  21  22
HETATM   22  C   UNL     1      26.118  45.826  52.785  1.00  0.00    -0.054 A 
HETATM   23  C   UNL     1      26.228  46.882  53.705  1.00  0.00     0.046 A 
HETATM   24  C   UNL     1      27.091  46.789  54.803  1.00  0.00     0.102 A 
HETATM   25  C   UNL     1      27.831  45.610  54.987  1.00  0.00     0.101 A 
HETATM   26  C   UNL     1      27.756  44.570  54.056  1.00  0.00     0.040 A 
HETATM   27  C   UNL     1      26.897  44.675  52.962  1.00  0.00     0.010 A 
BRANCH  24  28
HETATM   28  O   UNL     1      27.247  47.759  55.759  1.00  0.00    -0.353 OA
HETATM   29  C   UNL     1      26.265  48.784  55.810  1.00  0.00     0.210 C 
ENDBRANCH  24  28
BRANCH  25  30
HETATM   30  O   UNL     1      28.674  45.531  56.069  1.00  0.00    -0.353 OA
HETATM   31  C   UNL     1      29.927  44.937  55.735  1.00  0.00     0.210 C 
ENDBRANCH  25  30
ENDBRANCH  21  22
ENDBRANCH  20  21
ENDBRANCH   1  20
TORSDOF 8
ENDMDL
MODEL 10
REMARK VINA RESULT:      -7.8      2.810      4.261
REMARK  8 active torsions:
REMARK  status: ('A' for Active; 'I' for Inactive)
REMARK    1  A    between atoms: O_2  and  C_3 
REMARK    2  A    between atoms: C_4  and  O_5 
REMARK    3  A    between atoms: C_8  and  C_9 
REMARK    4  A    between atoms: C_9  and  C_10 
REMARK    5  A    between atoms: C_10  and  N_11 
REMARK       I    between atoms: N_11  and  C_12 
REMARK    6  A    between atoms: C_12  and  C_13 
REMARK    7  A    between atoms: C_13  and  S_14 
REMARK    8  A    between atoms: S_14  and  C_15 
ROOT
HETATM    1  N   UNL     1      23.095  44.763  49.732  1.00  0.00    -0.360 N 
HETATM    2  C   UNL     1      24.263  44.101  49.431  1.00  0.00     0.227 C 
HETATM    3  O   UNL     1      24.337  43.241  48.555  1.00  0.00    -0.273 OA
HETATM    4  H   UNL     1      23.067  45.339  50.574  1.00  0.00     0.162 HD
ENDROOT
BRANCH   2   5
HETATM    5  C   UNL     1      25.477  44.559  50.220  1.00  0.00     0.185 C 
BRANCH   5   6
HETATM    6  S   UNL     1      25.386  44.055  51.960  1.00  0.00    -0.080 SA
BRANCH   6   7
HETATM    7  C   UNL     1      25.924  45.491  52.767  1.00  0.00     0.197 A 
HETATM    8  N   UNL     1      26.990  45.616  53.642  1.00  0.00    -0.271 N 
HETATM    9  C   UNL     1      26.867  46.924  54.113  1.00  0.00     0.159 A 
HETATM   10  C   UNL     1      28.042  44.751  54.062  1.00  0.00     0.053 A 
HETATM   11  C   UNL     1      27.760  47.407  55.097  1.00  0.00     0.054 A 
HETATM   12  N   UNL     1      25.867  47.532  53.511  1.00  0.00    -0.129 NA
HETATM   13  C   UNL     1      28.746  46.628  55.558  1.00  0.00     0.017 A 
HETATM   14  C   UNL     1      28.926  45.268  55.036  1.00  0.00    -0.009 A 
HETATM   15  C   UNL     1      29.991  44.487  55.500  1.00  0.00     0.014 A 
HETATM   16  C   UNL     1      30.188  43.203  54.995  1.00  0.00     0.001 A 
HETATM   17  C   UNL     1      29.326  42.699  54.024  1.00  0.00     0.002 A 
HETATM   18  C   UNL     1      28.255  43.467  53.555  1.00  0.00     0.031 A 
HETATM   19  N   UNL     1      25.286  46.637  52.663  1.00  0.00    -0.122 NA
ENDBRANCH   6   7
ENDBRANCH   5   6
ENDBRANCH   2   5
BRANCH   1  20
HETATM   20  C   UNL     1      21.861  44.549  49.008  1.00  0.00     0.127 C 
BRANCH  20  21
HETATM   21  C   UNL     1      21.707  45.452  47.781  1.00  0.00     0.058 C 
BRANCH  21  22
HETATM   22  C   UNL     1      21.166  46.804  48.187  1.00  0.00    -0.054 A 
HETATM   23  C   UNL     1      21.886  47.974  47.891  1.00  0.00     0.046 A 
HETATM   24  C   UNL     1      21.357  49.234  48.188  1.00  0.00     0.102 A 
HETATM   25  C   UNL     1      20.081  49.317  48.765  1.00  0.00     0.101 A 
HETATM   26  C   UNL     1      19.374  48.158  49.098  1.00  0.00     0.040 A 
HETATM   27  C   UNL     1      19.913  46.905  48.803  1.00  0.00     0.010 A 
BRANCH  24  28
HETATM   28  O   UNL     1      21.979  50.427  47.917  1.00  0.00    -0.353 OA
HETATM   29  C   UNL     1      23.064  50.798  48.754  1.00  0.00     0.210 C 
ENDBRANCH  24  28
BRANCH  25  30
HETATM   30  O   UNL     1      19.572  50.561  49.052  1.00  0.00    -0.353 OA
HETATM   31  C   UNL     1      18.710  50.544  50.188  1.00  0.00     0.210 C 
ENDBRANCH  25  30
ENDBRANCH  21  22
ENDBRANCH  20  21
ENDBRANCH   1  20
TORSDOF 8
ENDMDL
