MODEL 1
REMARK VINA RESULT:      -9.2      0.000      0.000
REMARK  6 active torsions:
REMARK  status: ('A' for Active; 'I' for Inactive)
REMARK    1  A    between atoms: C_2  and  O_3 
REMARK    2  A    between atoms: O_3  and  C_4 
REMARK    3  A    between atoms: C_4  and  C_5 
REMARK    4  A    between atoms: C_10  and  N_11 
REMARK       I    between atoms: N_11  and  C_12 
REMARK    5  A    between atoms: C_12  and  C_13 
REMARK    6  A    between atoms: C_13  and  N_14 
ROOT
HETATM    1  N   UNL     1      26.818  42.734  52.859  1.00  0.00    -0.322 N 
HETATM    2  C   UNL     1      26.950  42.597  51.493  1.00  0.00     0.253 C 
HETATM    3  O   UNL     1      27.676  43.271  50.769  1.00  0.00    -0.271 OA
HETATM    4  H   UNL     1      26.660  41.899  53.423  1.00  0.00     0.169 HD
ENDROOT
BRANCH   2   5
HETATM    5  C   UNL     1      26.129  41.424  50.911  1.00  0.00     0.275 C 
HETATM    6  C   UNL     1      25.623  41.771  49.520  1.00  0.00     0.050 C 
BRANCH   5   7
HETATM    7  N   UNL     1      26.894  40.070  50.936  1.00  0.00    -0.058 N 
HETATM    8  H   UNL     1      26.859  39.875  51.948  1.00  0.00     0.281 HD
HETATM    9  C   UNL     1      26.118  38.914  50.337  1.00  0.00     0.246 C 
HETATM   10  C   UNL     1      26.819  38.195  49.177  1.00  0.00     0.062 C 
HETATM   11  C   UNL     1      28.248  37.879  49.586  1.00  0.00     0.020 C 
HETATM   12  C   UNL     1      26.746  39.005  47.895  1.00  0.00     0.020 A 
HETATM   13  C   UNL     1      28.991  39.198  49.686  1.00  0.00     0.031 C 
HETATM   14  C   UNL     1      29.053  39.844  48.303  1.00  0.00     0.138 C 
HETATM   15  C   UNL     1      28.400  40.151  50.728  1.00  0.00     0.242 C 
HETATM   16  N   UNL     1      27.792  39.871  47.574  1.00  0.00    -0.317 N 
HETATM   17  C   UNL     1      27.782  40.665  46.418  1.00  0.00     0.247 A 
HETATM   18  O   UNL     1      28.689  41.430  46.102  1.00  0.00    -0.268 OA
HETATM   19  C   UNL     1      26.581  40.561  45.556  1.00  0.00     0.074 A 
HETATM   20  C   UNL     1      25.598  39.715  45.881  1.00  0.00     0.007 A 
HETATM   21  C   UNL     1      25.683  38.914  47.075  1.00  0.00     0.026 A 
ENDBRANCH   5   7
ENDBRANCH   2   5
BRANCH   1  22
HETATM   22  C   UNL     1      27.244  43.836  53.592  1.00  0.00     0.080 A 
HETATM   23  C   UNL     1      26.569  45.046  53.535  1.00  0.00     0.137 A 
HETATM   24  N   UNL     1      27.255  45.928  54.335  1.00  0.00    -0.349 N 
HETATM   25  H   UNL     1      26.980  46.890  54.491  1.00  0.00     0.166 HD
HETATM   26  C   UNL     1      28.378  45.337  54.863  1.00  0.00     0.045 A 
HETATM   27  C   UNL     1      28.392  44.008  54.427  1.00  0.00     0.023 A 
HETATM   28  C   UNL     1      29.377  45.887  55.676  1.00  0.00     0.033 A 
HETATM   29  C   UNL     1      29.480  43.199  54.814  1.00  0.00     0.058 A 
HETATM   30  C   UNL     1      30.482  43.741  55.619  1.00  0.00     0.117 A 
HETATM   31  C   UNL     1      30.439  45.060  56.048  1.00  0.00     0.044 A 
HETATM   32  F   UNL     1      31.517  42.969  55.975  1.00  0.00    -0.206 F 
BRANCH  23  33
HETATM   33  C   UNL     1      25.350  45.348  52.827  1.00  0.00     0.312 C 
HETATM   34  O   UNL     1      24.474  44.521  52.598  1.00  0.00    -0.258 OA
BRANCH  33  35
HETATM   35  O   UNL     1      25.315  46.667  52.499  1.00  0.00    -0.317 OA
BRANCH  35  36
HETATM   36  C   UNL     1      25.008  46.961  51.127  1.00  0.00     0.175 C 
HETATM   37  C   UNL     1      26.221  47.561  50.437  1.00  0.00     0.034 C 
ENDBRANCH  35  36
ENDBRANCH  33  35
ENDBRANCH  23  33
ENDBRANCH   1  22
TORSDOF 6
ENDMDL
MODEL 2
REMARK VINA RESULT:      -9.2      6.960     10.932
REMARK  6 active torsions:
REMARK  status: ('A' for Active; 'I' for Inactive)
REMARK    1  A    between atoms: C_2  and  O_3 
REMARK    2  A    between atoms: O_3  and  C_4 
REMARK    3  A    between atoms: C_4  and  C_5 
REMARK    4  A    between atoms: C_10  and  N_11 
REMARK       I    between atoms: N_11  and  C_12 
REMARK    5  A    between atoms: C_12  and  C_13 
REMARK    6  A    between atoms: C_13  and  N_14 
ROOT
HETATM    1  N   UNL     1      21.962  46.619  48.821  1.00  0.00    -0.322 N 
HETATM    2  C   UNL     1      21.603  46.975  47.538  1.00  0.00     0.253 C 
HETATM    3  O   UNL     1      22.098  46.536  46.504  1.00  0.00    -0.271 OA
HETATM    4  H   UNL     1      21.239  46.585  49.541  1.00  0.00     0.169 HD
ENDROOT
BRANCH   2   5
HETATM    5  C   UNL     1      20.420  47.969  47.484  1.00  0.00     0.275 C 
HETATM    6  C   UNL     1      19.107  47.241  47.725  1.00  0.00     0.050 C 
BRANCH   5   7
HETATM    7  N   UNL     1      20.599  49.186  48.434  1.00  0.00    -0.058 N 
HETATM    8  H   UNL     1      21.554  48.997  48.773  1.00  0.00     0.281 HD
HETATM    9  C   UNL     1      20.746  50.512  47.715  1.00  0.00     0.246 C 
HETATM   10  C   UNL     1      19.713  51.577  48.103  1.00  0.00     0.062 C 
HETATM   11  C   UNL     1      19.638  51.662  49.618  1.00  0.00     0.020 C 
HETATM   12  C   UNL     1      18.361  51.299  47.468  1.00  0.00     0.020 A 
HETATM   13  C   UNL     1      19.017  50.370  50.113  1.00  0.00     0.031 C 
HETATM   14  C   UNL     1      17.581  50.275  49.598  1.00  0.00     0.138 C 
HETATM   15  C   UNL     1      19.830  49.126  49.748  1.00  0.00     0.242 C 
HETATM   16  N   UNL     1      17.409  50.569  48.182  1.00  0.00    -0.317 N 
HETATM   17  C   UNL     1      16.150  50.256  47.651  1.00  0.00     0.247 A 
HETATM   18  O   UNL     1      15.287  49.625  48.254  1.00  0.00    -0.268 OA
HETATM   19  C   UNL     1      15.883  50.719  46.268  1.00  0.00     0.074 A 
HETATM   20  C   UNL     1      16.808  51.426  45.611  1.00  0.00     0.007 A 
HETATM   21  C   UNL     1      18.075  51.729  46.225  1.00  0.00     0.026 A 
ENDBRANCH   5   7
ENDBRANCH   2   5
BRANCH   1  22
HETATM   22  C   UNL     1      23.129  45.945  49.161  1.00  0.00     0.080 A 
HETATM   23  C   UNL     1      24.268  46.627  49.559  1.00  0.00     0.137 A 
HETATM   24  N   UNL     1      25.243  45.686  49.787  1.00  0.00    -0.349 N 
HETATM   25  H   UNL     1      26.181  45.901  50.101  1.00  0.00     0.166 HD
HETATM   26  C   UNL     1      24.781  44.424  49.499  1.00  0.00     0.045 A 
HETATM   27  C   UNL     1      23.442  44.549  49.117  1.00  0.00     0.023 A 
HETATM   28  C   UNL     1      25.455  43.197  49.537  1.00  0.00     0.033 A 
HETATM   29  C   UNL     1      22.753  43.380  48.734  1.00  0.00     0.058 A 
HETATM   30  C   UNL     1      23.419  42.155  48.764  1.00  0.00     0.117 A 
HETATM   31  C   UNL     1      24.745  42.056  49.158  1.00  0.00     0.044 A 
HETATM   32  F   UNL     1      22.762  41.050  48.390  1.00  0.00    -0.206 F 
BRANCH  23  33
HETATM   33  C   UNL     1      24.426  48.046  49.758  1.00  0.00     0.312 C 
HETATM   34  O   UNL     1      23.490  48.839  49.782  1.00  0.00    -0.258 OA
BRANCH  33  35
HETATM   35  O   UNL     1      25.738  48.348  49.947  1.00  0.00    -0.317 OA
BRANCH  35  36
HETATM   36  C   UNL     1      26.370  49.082  48.887  1.00  0.00     0.175 C 
HETATM   37  C   UNL     1      27.870  49.146  49.117  1.00  0.00     0.034 C 
ENDBRANCH  35  36
ENDBRANCH  33  35
ENDBRANCH  23  33
ENDBRANCH   1  22
TORSDOF 6
ENDMDL
MODEL 3
REMARK VINA RESULT:      -9.0      6.821     10.771
REMARK  6 active torsions:
REMARK  status: ('A' for Active; 'I' for Inactive)
REMARK    1  A    between atoms: C_2  and  O_3 
REMARK    2  A    between atoms: O_3  and  C_4 
REMARK    3  A    between atoms: C_4  and  C_5 
REMARK    4  A    between atoms: C_10  and  N_11 
REMARK       I    between atoms: N_11  and  C_12 
REMARK    5  A    between atoms: C_12  and  C_13 
REMARK    6  A    between atoms: C_13  and  N_14 
ROOT
HETATM    1  N   UNL     1      22.759  47.435  49.483  1.00  0.00    -0.322 N 
HETATM    2  C   UNL     1      22.056  47.368  48.298  1.00  0.00     0.253 C 
HETATM    3  O   UNL     1      22.462  46.878  47.248  1.00  0.00    -0.271 OA
HETATM    4  H   UNL     1      22.247  47.348  50.362  1.00  0.00     0.169 HD
ENDROOT
BRANCH   2   5
HETATM    5  C   UNL     1      20.617  47.920  48.404  1.00  0.00     0.275 C 
HETATM    6  C   UNL     1      19.722  46.928  49.130  1.00  0.00     0.050 C 
BRANCH   5   7
HETATM    7  N   UNL     1      20.550  49.340  49.035  1.00  0.00    -0.058 N 
HETATM    8  H   UNL     1      21.425  49.323  49.582  1.00  0.00     0.281 HD
HETATM    9  C   UNL     1      20.785  50.464  48.047  1.00  0.00     0.246 C 
HETATM   10  C   UNL     1      19.652  51.494  47.956  1.00  0.00     0.062 C 
HETATM   11  C   UNL     1      19.270  51.930  49.361  1.00  0.00     0.020 C 
HETATM   12  C   UNL     1      18.469  50.953  47.173  1.00  0.00     0.020 A 
HETATM   13  C   UNL     1      18.615  50.743  50.040  1.00  0.00     0.031 C 
HETATM   14  C   UNL     1      17.318  50.400  49.309  1.00  0.00     0.138 C 
HETATM   15  C   UNL     1      19.536  49.526  50.156  1.00  0.00     0.242 C 
HETATM   16  N   UNL     1      17.423  50.332  47.857  1.00  0.00    -0.317 N 
HETATM   17  C   UNL     1      16.310  49.790  47.198  1.00  0.00     0.247 A 
HETATM   18  O   UNL     1      15.371  49.245  47.770  1.00  0.00    -0.268 OA
HETATM   19  C   UNL     1      16.309  49.884  45.719  1.00  0.00     0.074 A 
HETATM   20  C   UNL     1      17.318  50.495  45.088  1.00  0.00     0.007 A 
HETATM   21  C   UNL     1      18.422  51.047  45.831  1.00  0.00     0.026 A 
ENDBRANCH   5   7
ENDBRANCH   2   5
BRANCH   1  22
HETATM   22  C   UNL     1      24.129  47.239  49.607  1.00  0.00     0.080 A 
HETATM   23  C   UNL     1      24.644  46.110  50.226  1.00  0.00     0.137 A 
HETATM   24  N   UNL     1      26.013  46.234  50.216  1.00  0.00    -0.349 N 
HETATM   25  H   UNL     1      26.651  45.546  50.595  1.00  0.00     0.166 HD
HETATM   26  C   UNL     1      26.391  47.432  49.656  1.00  0.00     0.045 A 
HETATM   27  C   UNL     1      25.225  48.084  49.244  1.00  0.00     0.023 A 
HETATM   28  C   UNL     1      27.671  47.980  49.502  1.00  0.00     0.033 A 
HETATM   29  C   UNL     1      25.354  49.363  48.665  1.00  0.00     0.058 A 
HETATM   30  C   UNL     1      26.624  49.918  48.513  1.00  0.00     0.117 A 
HETATM   31  C   UNL     1      27.767  49.245  48.920  1.00  0.00     0.044 A 
HETATM   32  F   UNL     1      26.739  51.137  47.971  1.00  0.00    -0.206 F 
BRANCH  23  33
HETATM   33  C   UNL     1      23.921  44.977  50.746  1.00  0.00     0.312 C 
HETATM   34  O   UNL     1      24.050  44.555  51.891  1.00  0.00    -0.258 OA
BRANCH  33  35
HETATM   35  O   UNL     1      23.073  44.491  49.802  1.00  0.00    -0.317 OA
BRANCH  35  36
HETATM   36  C   UNL     1      23.072  43.063  49.638  1.00  0.00     0.175 C 
HETATM   37  C   UNL     1      22.783  42.705  48.191  1.00  0.00     0.034 C 
ENDBRANCH  35  36
ENDBRANCH  33  35
ENDBRANCH  23  33
ENDBRANCH   1  22
TORSDOF 6
ENDMDL
MODEL 4
REMARK VINA RESULT:      -8.9      6.472     10.371
REMARK  6 active torsions:
REMARK  status: ('A' for Active; 'I' for Inactive)
REMARK    1  A    between atoms: C_2  and  O_3 
REMARK    2  A    between atoms: O_3  and  C_4 
REMARK    3  A    between atoms: C_4  and  C_5 
REMARK    4  A    between atoms: C_10  and  N_11 
REMARK       I    between atoms: N_11  and  C_12 
REMARK    5  A    between atoms: C_12  and  C_13 
REMARK    6  A    between atoms: C_13  and  N_14 
ROOT
HETATM    1  N   UNL     1      22.826  46.082  49.501  1.00  0.00    -0.322 N 
HETATM    2  C   UNL     1      22.321  46.744  48.402  1.00  0.00     0.253 C 
HETATM    3  O   UNL     1      22.566  46.481  47.228  1.00  0.00    -0.271 OA
HETATM    4  H   UNL     1      22.234  45.980  50.326  1.00  0.00     0.169 HD
ENDROOT
BRANCH   2   5
HETATM    5  C   UNL     1      21.313  47.858  48.764  1.00  0.00     0.275 C 
HETATM    6  C   UNL     1      21.363  48.973  47.731  1.00  0.00     0.050 C 
BRANCH   5   7
HETATM    7  N   UNL     1      19.868  47.328  48.984  1.00  0.00    -0.058 N 
HETATM    8  H   UNL     1      20.086  46.380  49.329  1.00  0.00     0.281 HD
HETATM    9  C   UNL     1      19.152  47.963  50.159  1.00  0.00     0.246 C 
HETATM   10  C   UNL     1      17.823  48.648  49.814  1.00  0.00     0.062 C 
HETATM   11  C   UNL     1      16.984  47.699  48.975  1.00  0.00     0.020 C 
HETATM   12  C   UNL     1      18.047  49.986  49.131  1.00  0.00     0.020 A 
HETATM   13  C   UNL     1      17.670  47.559  47.629  1.00  0.00     0.031 C 
HETATM   14  C   UNL     1      17.661  48.913  46.919  1.00  0.00     0.138 C 
HETATM   15  C   UNL     1      19.084  46.982  47.725  1.00  0.00     0.242 C 
HETATM   16  N   UNL     1      18.076  50.045  47.737  1.00  0.00    -0.317 N 
HETATM   17  C   UNL     1      18.299  51.241  47.040  1.00  0.00     0.247 A 
HETATM   18  O   UNL     1      18.322  51.329  45.816  1.00  0.00    -0.268 OA
HETATM   19  C   UNL     1      18.534  52.451  47.864  1.00  0.00     0.074 A 
HETATM   20  C   UNL     1      18.489  52.369  49.198  1.00  0.00     0.007 A 
HETATM   21  C   UNL     1      18.235  51.109  49.849  1.00  0.00     0.026 A 
ENDBRANCH   5   7
ENDBRANCH   2   5
BRANCH   1  22
HETATM   22  C   UNL     1      23.915  45.218  49.478  1.00  0.00     0.080 A 
HETATM   23  C   UNL     1      25.203  45.673  49.711  1.00  0.00     0.137 A 
HETATM   24  N   UNL     1      26.042  44.592  49.584  1.00  0.00    -0.349 N 
HETATM   25  H   UNL     1      27.045  44.630  49.713  1.00  0.00     0.166 HD
HETATM   26  C   UNL     1      25.337  43.467  49.225  1.00  0.00     0.045 A 
HETATM   27  C   UNL     1      23.987  43.824  49.166  1.00  0.00     0.023 A 
HETATM   28  C   UNL     1      25.803  42.177  48.938  1.00  0.00     0.033 A 
HETATM   29  C   UNL     1      23.060  42.835  48.778  1.00  0.00     0.058 A 
HETATM   30  C   UNL     1      23.515  41.549  48.486  1.00  0.00     0.117 A 
HETATM   31  C   UNL     1      24.861  41.218  48.562  1.00  0.00     0.044 A 
HETATM   32  F   UNL     1      22.631  40.617  48.109  1.00  0.00    -0.206 F 
BRANCH  23  33
HETATM   33  C   UNL     1      25.620  47.005  50.074  1.00  0.00     0.312 C 
HETATM   34  O   UNL     1      25.173  47.619  51.036  1.00  0.00    -0.258 OA
BRANCH  33  35
HETATM   35  O   UNL     1      26.587  47.439  49.223  1.00  0.00    -0.317 OA
BRANCH  35  36
HETATM   36  C   UNL     1      26.582  48.846  48.936  1.00  0.00     0.175 C 
HETATM   37  C   UNL     1      27.969  49.428  49.149  1.00  0.00     0.034 C 
ENDBRANCH  35  36
ENDBRANCH  33  35
ENDBRANCH  23  33
ENDBRANCH   1  22
TORSDOF 6
ENDMDL
MODEL 5
REMARK VINA RESULT:      -8.8     12.893     15.359
REMARK  6 active torsions:
REMARK  status: ('A' for Active; 'I' for Inactive)
REMARK    1  A    between atoms: C_2  and  O_3 
REMARK    2  A    between atoms: O_3  and  C_4 
REMARK    3  A    between atoms: C_4  and  C_5 
REMARK    4  A    between atoms: C_10  and  N_11 
REMARK       I    between atoms: N_11  and  C_12 
REMARK    5  A    between atoms: C_12  and  C_13 
REMARK    6  A    between atoms: C_13  and  N_14 
ROOT
HETATM    1  N   UNL     1      33.534  50.976  39.892  1.00  0.00    -0.322 N 
HETATM    2  C   UNL     1      32.935  52.142  39.464  1.00  0.00     0.253 C 
HETATM    3  O   UNL     1      33.419  53.268  39.538  1.00  0.00    -0.271 OA
HETATM    4  H   UNL     1      33.365  50.117  39.368  1.00  0.00     0.169 HD
ENDROOT
BRANCH   2   5
HETATM    5  C   UNL     1      31.567  51.917  38.781  1.00  0.00     0.275 C 
HETATM    6  C   UNL     1      31.342  50.436  38.522  1.00  0.00     0.050 C 
BRANCH   5   7
HETATM    7  N   UNL     1      30.383  52.564  39.554  1.00  0.00    -0.058 N 
HETATM    8  H   UNL     1      30.695  53.547  39.550  1.00  0.00     0.281 HD
HETATM    9  C   UNL     1      29.088  52.612  38.769  1.00  0.00     0.246 C 
HETATM   10  C   UNL     1      27.897  51.917  39.441  1.00  0.00     0.062 C 
HETATM   11  C   UNL     1      27.803  52.387  40.883  1.00  0.00     0.020 C 
HETATM   12  C   UNL     1      27.997  50.406  39.327  1.00  0.00     0.020 A 
HETATM   13  C   UNL     1      29.003  51.825  41.621  1.00  0.00     0.031 C 
HETATM   14  C   UNL     1      28.910  50.300  41.640  1.00  0.00     0.138 C 
HETATM   15  C   UNL     1      30.343  52.301  41.054  1.00  0.00     0.242 C 
HETATM   16  N   UNL     1      28.596  49.682  40.358  1.00  0.00    -0.317 N 
HETATM   17  C   UNL     1      28.742  48.288  40.311  1.00  0.00     0.247 A 
HETATM   18  O   UNL     1      29.256  47.620  41.203  1.00  0.00    -0.268 OA
HETATM   19  C   UNL     1      28.249  47.614  39.086  1.00  0.00     0.074 A 
HETATM   20  C   UNL     1      27.668  48.331  38.118  1.00  0.00     0.007 A 
HETATM   21  C   UNL     1      27.534  49.759  38.242  1.00  0.00     0.026 A 
ENDBRANCH   5   7
ENDBRANCH   2   5
BRANCH   1  22
HETATM   22  C   UNL     1      34.632  50.912  40.742  1.00  0.00     0.080 A 
HETATM   23  C   UNL     1      34.479  50.835  42.117  1.00  0.00     0.137 A 
HETATM   24  N   UNL     1      35.739  50.821  42.663  1.00  0.00    -0.349 N 
HETATM   25  H   UNL     1      35.931  50.759  43.655  1.00  0.00     0.166 HD
HETATM   26  C   UNL     1      36.697  50.939  41.684  1.00  0.00     0.045 A 
HETATM   27  C   UNL     1      36.032  50.980  40.455  1.00  0.00     0.023 A 
HETATM   28  C   UNL     1      38.091  51.024  41.805  1.00  0.00     0.033 A 
HETATM   29  C   UNL     1      36.809  51.137  39.289  1.00  0.00     0.058 A 
HETATM   30  C   UNL     1      38.197  51.228  39.401  1.00  0.00     0.117 A 
HETATM   31  C   UNL     1      38.834  51.173  40.632  1.00  0.00     0.044 A 
HETATM   32  F   UNL     1      38.929  51.386  38.291  1.00  0.00    -0.206 F 
BRANCH  23  33
HETATM   33  C   UNL     1      33.252  50.734  42.867  1.00  0.00     0.312 C 
HETATM   34  O   UNL     1      33.076  51.265  43.959  1.00  0.00    -0.258 OA
BRANCH  33  35
HETATM   35  O   UNL     1      32.338  50.007  42.172  1.00  0.00    -0.317 OA
BRANCH  35  36
HETATM   36  C   UNL     1      32.247  48.617  42.523  1.00  0.00     0.175 C 
HETATM   37  C   UNL     1      32.714  47.754  41.364  1.00  0.00     0.034 C 
ENDBRANCH  35  36
ENDBRANCH  33  35
ENDBRANCH  23  33
ENDBRANCH   1  22
TORSDOF 6
ENDMDL
MODEL 6
REMARK VINA RESULT:      -8.6      7.336     10.716
REMARK  6 active torsions:
REMARK  status: ('A' for Active; 'I' for Inactive)
REMARK    1  A    between atoms: C_2  and  O_3 
REMARK    2  A    between atoms: O_3  and  C_4 
REMARK    3  A    between atoms: C_4  and  C_5 
REMARK    4  A    between atoms: C_10  and  N_11 
REMARK       I    between atoms: N_11  and  C_12 
REMARK    5  A    between atoms: C_12  and  C_13 
REMARK    6  A    between atoms: C_13  and  N_14 
ROOT
HETATM    1  N   UNL     1      22.219  47.488  48.961  1.00  0.00    -0.322 N 
HETATM    2  C   UNL     1      21.685  47.110  47.747  1.00  0.00     0.253 C 
HETATM    3  O   UNL     1      22.223  46.379  46.921  1.00  0.00    -0.271 OA
HETATM    4  H   UNL     1      21.590  47.614  49.755  1.00  0.00     0.169 HD
ENDROOT
BRANCH   2   5
HETATM    5  C   UNL     1      20.252  47.639  47.513  1.00  0.00     0.275 C 
HETATM    6  C   UNL     1      19.227  46.634  48.016  1.00  0.00     0.050 C 
BRANCH   5   7
HETATM    7  N   UNL     1      20.020  49.059  48.105  1.00  0.00    -0.058 N 
HETATM    8  H   UNL     1      20.918  49.186  48.595  1.00  0.00     0.281 HD
HETATM    9  C   UNL     1      20.034  50.166  47.070  1.00  0.00     0.246 C 
HETATM   10  C   UNL     1      18.761  51.022  47.021  1.00  0.00     0.062 C 
HETATM   11  C   UNL     1      18.403  51.453  48.433  1.00  0.00     0.020 C 
HETATM   12  C   UNL     1      17.624  50.290  46.330  1.00  0.00     0.020 A 
HETATM   13  C   UNL     1      17.965  50.212  49.188  1.00  0.00     0.031 C 
HETATM   14  C   UNL     1      16.690  49.662  48.550  1.00  0.00     0.138 C 
HETATM   15  C   UNL     1      19.056  49.142  49.281  1.00  0.00     0.242 C 
HETATM   16  N   UNL     1      16.720  49.554  47.097  1.00  0.00    -0.317 N 
HETATM   17  C   UNL     1      15.659  48.836  46.526  1.00  0.00     0.247 A 
HETATM   18  O   UNL     1      14.842  48.187  47.172  1.00  0.00    -0.268 OA
HETATM   19  C   UNL     1      15.559  48.873  45.048  1.00  0.00     0.074 A 
HETATM   20  C   UNL     1      16.432  49.594  44.337  1.00  0.00     0.007 A 
HETATM   21  C   UNL     1      17.486  50.325  44.992  1.00  0.00     0.026 A 
ENDBRANCH   5   7
ENDBRANCH   2   5
BRANCH   1  22
HETATM   22  C   UNL     1      23.556  47.358  49.316  1.00  0.00     0.080 A 
HETATM   23  C   UNL     1      24.467  48.377  49.085  1.00  0.00     0.137 A 
HETATM   24  N   UNL     1      25.693  47.927  49.513  1.00  0.00    -0.349 N 
HETATM   25  H   UNL     1      26.546  48.471  49.475  1.00  0.00     0.166 HD
HETATM   26  C   UNL     1      25.607  46.631  49.963  1.00  0.00     0.045 A 
HETATM   27  C   UNL     1      24.266  46.247  49.870  1.00  0.00     0.023 A 
HETATM   28  C   UNL     1      26.618  45.780  50.429  1.00  0.00     0.033 A 
HETATM   29  C   UNL     1      23.930  44.930  50.245  1.00  0.00     0.058 A 
HETATM   30  C   UNL     1      24.931  44.074  50.705  1.00  0.00     0.117 A 
HETATM   31  C   UNL     1      26.253  44.484  50.799  1.00  0.00     0.044 A 
HETATM   32  F   UNL     1      24.607  42.822  51.050  1.00  0.00    -0.206 F 
BRANCH  23  33
HETATM   33  C   UNL     1      24.210  49.691  48.551  1.00  0.00     0.312 C 
HETATM   34  O   UNL     1      24.343  49.982  47.367  1.00  0.00    -0.258 OA
BRANCH  33  35
HETATM   35  O   UNL     1      23.773  50.519  49.537  1.00  0.00    -0.317 OA
BRANCH  35  36
HETATM   36  C   UNL     1      22.499  51.143  49.311  1.00  0.00     0.175 C 
HETATM   37  C   UNL     1      21.656  51.082  50.573  1.00  0.00     0.034 C 
ENDBRANCH  35  36
ENDBRANCH  33  35
ENDBRANCH  23  33
ENDBRANCH   1  22
TORSDOF 6
ENDMDL
MODEL 7
REMARK VINA RESULT:      -8.5      8.306     12.327
REMARK  6 active torsions:
REMARK  status: ('A' for Active; 'I' for Inactive)
REMARK    1  A    between atoms: C_2  and  O_3 
REMARK    2  A    between atoms: O_3  and  C_4 
REMARK    3  A    between atoms: C_4  and  C_5 
REMARK    4  A    between atoms: C_10  and  N_11 
REMARK       I    between atoms: N_11  and  C_12 
REMARK    5  A    between atoms: C_12  and  C_13 
REMARK    6  A    between atoms: C_13  and  N_14 
ROOT
HETATM    1  N   UNL     1      19.871  47.222  47.594  1.00  0.00    -0.322 N 
HETATM    2  C   UNL     1      18.804  47.851  48.200  1.00  0.00     0.253 C 
HETATM    3  O   UNL     1      18.877  48.708  49.076  1.00  0.00    -0.271 OA
HETATM    4  H   UNL     1      19.795  46.966  46.609  1.00  0.00     0.169 HD
ENDROOT
BRANCH   2   5
HETATM    5  C   UNL     1      17.433  47.433  47.621  1.00  0.00     0.275 C 
HETATM    6  C   UNL     1      16.374  47.440  48.711  1.00  0.00     0.050 C 
BRANCH   5   7
HETATM    7  N   UNL     1      17.009  48.275  46.384  1.00  0.00    -0.058 N 
HETATM    8  H   UNL     1      16.737  47.512  45.746  1.00  0.00     0.281 HD
HETATM    9  C   UNL     1      15.715  49.039  46.575  1.00  0.00     0.246 C 
HETATM   10  C   UNL     1      15.823  50.556  46.373  1.00  0.00     0.062 C 
HETATM   11  C   UNL     1      16.555  50.828  45.069  1.00  0.00     0.020 C 
HETATM   12  C   UNL     1      16.484  51.230  47.563  1.00  0.00     0.020 A 
HETATM   13  C   UNL     1      17.996  50.393  45.261  1.00  0.00     0.031 C 
HETATM   14  C   UNL     1      18.646  51.269  46.331  1.00  0.00     0.138 C 
HETATM   15  C   UNL     1      18.143  48.904  45.585  1.00  0.00     0.242 C 
HETATM   16  N   UNL     1      17.862  51.448  47.546  1.00  0.00    -0.317 N 
HETATM   17  C   UNL     1      18.542  52.045  48.618  1.00  0.00     0.247 A 
HETATM   18  O   UNL     1      19.751  52.258  48.631  1.00  0.00    -0.268 OA
HETATM   19  C   UNL     1      17.722  52.414  49.796  1.00  0.00     0.074 A 
HETATM   20  C   UNL     1      16.401  52.204  49.782  1.00  0.00     0.007 A 
HETATM   21  C   UNL     1      15.765  51.604  48.638  1.00  0.00     0.026 A 
ENDBRANCH   5   7
ENDBRANCH   2   5
BRANCH   1  22
HETATM   22  C   UNL     1      21.175  47.228  48.076  1.00  0.00     0.080 A 
HETATM   23  C   UNL     1      21.748  46.091  48.624  1.00  0.00     0.137 A 
HETATM   24  N   UNL     1      23.015  46.434  49.031  1.00  0.00    -0.349 N 
HETATM   25  H   UNL     1      23.670  45.793  49.461  1.00  0.00     0.166 HD
HETATM   26  C   UNL     1      23.254  47.769  48.809  1.00  0.00     0.045 A 
HETATM   27  C   UNL     1      22.118  48.297  48.189  1.00  0.00     0.023 A 
HETATM   28  C   UNL     1      24.383  48.538  49.124  1.00  0.00     0.033 A 
HETATM   29  C   UNL     1      22.110  49.675  47.890  1.00  0.00     0.058 A 
HETATM   30  C   UNL     1      23.228  50.449  48.205  1.00  0.00     0.117 A 
HETATM   31  C   UNL     1      24.348  49.898  48.810  1.00  0.00     0.044 A 
HETATM   32  F   UNL     1      23.210  51.758  47.927  1.00  0.00    -0.206 F 
BRANCH  23  33
HETATM   33  C   UNL     1      21.179  44.770  48.720  1.00  0.00     0.312 C 
HETATM   34  O   UNL     1      20.003  44.517  48.480  1.00  0.00    -0.258 OA
BRANCH  33  35
HETATM   35  O   UNL     1      22.138  43.872  49.071  1.00  0.00    -0.317 OA
BRANCH  35  36
HETATM   36  C   UNL     1      22.610  43.018  48.017  1.00  0.00     0.175 C 
HETATM   37  C   UNL     1      22.968  41.651  48.575  1.00  0.00     0.034 C 
ENDBRANCH  35  36
ENDBRANCH  33  35
ENDBRANCH  23  33
ENDBRANCH   1  22
TORSDOF 6
ENDMDL
MODEL 8
REMARK VINA RESULT:      -8.5     13.547     15.341
REMARK  6 active torsions:
REMARK  status: ('A' for Active; 'I' for Inactive)
REMARK    1  A    between atoms: C_2  and  O_3 
REMARK    2  A    between atoms: O_3  and  C_4 
REMARK    3  A    between atoms: C_4  and  C_5 
REMARK    4  A    between atoms: C_10  and  N_11 
REMARK       I    between atoms: N_11  and  C_12 
REMARK    5  A    between atoms: C_12  and  C_13 
REMARK    6  A    between atoms: C_13  and  N_14 
ROOT
HETATM    1  N   UNL     1      36.636  51.136  43.244  1.00  0.00    -0.322 N 
HETATM    2  C   UNL     1      36.386  51.111  41.888  1.00  0.00     0.253 C 
HETATM    3  O   UNL     1      37.224  50.954  41.005  1.00  0.00    -0.271 OA
HETATM    4  H   UNL     1      35.936  50.751  43.879  1.00  0.00     0.169 HD
ENDROOT
BRANCH   2   5
HETATM    5  C   UNL     1      34.885  51.229  41.537  1.00  0.00     0.275 C 
HETATM    6  C   UNL     1      34.693  51.221  40.029  1.00  0.00     0.050 C 
BRANCH   5   7
HETATM    7  N   UNL     1      34.005  50.162  42.246  1.00  0.00    -0.058 N 
HETATM    8  H   UNL     1      34.692  49.799  42.925  1.00  0.00     0.281 HD
HETATM    9  C   UNL     1      32.924  50.747  43.132  1.00  0.00     0.246 C 
HETATM   10  C   UNL     1      31.495  50.308  42.786  1.00  0.00     0.062 C 
HETATM   11  C   UNL     1      31.467  48.796  42.635  1.00  0.00     0.020 C 
HETATM   12  C   UNL     1      30.976  51.025  41.552  1.00  0.00     0.020 A 
HETATM   13  C   UNL     1      32.256  48.452  41.385  1.00  0.00     0.031 C 
HETATM   14  C   UNL     1      31.543  49.038  40.166  1.00  0.00     0.138 C 
HETATM   15  C   UNL     1      33.719  48.895  41.450  1.00  0.00     0.242 C 
HETATM   16  N   UNL     1      31.125  50.427  40.300  1.00  0.00    -0.317 N 
HETATM   17  C   UNL     1      30.690  51.041  39.117  1.00  0.00     0.247 A 
HETATM   18  O   UNL     1      30.798  50.538  38.002  1.00  0.00    -0.268 OA
HETATM   19  C   UNL     1      30.080  52.385  39.257  1.00  0.00     0.074 A 
HETATM   20  C   UNL     1      29.939  52.931  40.469  1.00  0.00     0.007 A 
HETATM   21  C   UNL     1      30.392  52.234  41.646  1.00  0.00     0.026 A 
ENDBRANCH   5   7
ENDBRANCH   2   5
BRANCH   1  22
HETATM   22  C   UNL     1      37.893  51.291  43.818  1.00  0.00     0.080 A 
HETATM   23  C   UNL     1      38.440  52.547  44.029  1.00  0.00     0.137 A 
HETATM   24  N   UNL     1      39.688  52.357  44.571  1.00  0.00    -0.349 N 
HETATM   25  H   UNL     1      40.315  53.106  44.838  1.00  0.00     0.166 HD
HETATM   26  C   UNL     1      39.980  51.017  44.667  1.00  0.00     0.045 A 
HETATM   27  C   UNL     1      38.859  50.314  44.216  1.00  0.00     0.023 A 
HETATM   28  C   UNL     1      41.153  50.388  45.105  1.00  0.00     0.033 A 
HETATM   29  C   UNL     1      38.931  48.907  44.185  1.00  0.00     0.058 A 
HETATM   30  C   UNL     1      40.097  48.273  44.614  1.00  0.00     0.117 A 
HETATM   31  C   UNL     1      41.193  48.993  45.068  1.00  0.00     0.044 A 
HETATM   32  F   UNL     1      40.163  46.936  44.574  1.00  0.00    -0.206 F 
BRANCH  23  33
HETATM   33  C   UNL     1      37.830  53.831  43.789  1.00  0.00     0.312 C 
HETATM   34  O   UNL     1      37.751  54.350  42.680  1.00  0.00    -0.258 OA
BRANCH  33  35
HETATM   35  O   UNL     1      37.341  54.340  44.950  1.00  0.00    -0.317 OA
BRANCH  35  36
HETATM   36  C   UNL     1      38.175  55.305  45.611  1.00  0.00     0.175 C 
HETATM   37  C   UNL     1      38.527  54.822  47.007  1.00  0.00     0.034 C 
ENDBRANCH  35  36
ENDBRANCH  33  35
ENDBRANCH  23  33
ENDBRANCH   1  22
TORSDOF 6
ENDMDL
MODEL 9
REMARK VINA RESULT:      -8.4     14.129     16.116
REMARK  6 active torsions:
REMARK  status: ('A' for Active; 'I' for Inactive)
REMARK    1  A    between atoms: C_2  and  O_3 
REMARK    2  A    between atoms: O_3  and  C_4 
REMARK    3  A    between atoms: C_4  and  C_5 
REMARK    4  A    between atoms: C_10  and  N_11 
REMARK       I    between atoms: N_11  and  C_12 
REMARK    5  A    between atoms: C_12  and  C_13 
REMARK    6  A    between atoms: C_13  and  N_14 
ROOT
HETATM    1  N   UNL     1      36.232  53.232  42.597  1.00  0.00    -0.322 N 
HETATM    2  C   UNL     1      36.245  51.926  42.156  1.00  0.00     0.253 C 
HETATM    3  O   UNL     1      37.150  51.115  42.335  1.00  0.00    -0.271 OA
HETATM    4  H   UNL     1      35.343  53.644  42.882  1.00  0.00     0.169 HD
ENDROOT
BRANCH   2   5
HETATM    5  C   UNL     1      34.941  51.503  41.442  1.00  0.00     0.275 C 
HETATM    6  C   UNL     1      35.236  51.063  40.017  1.00  0.00     0.050 C 
BRANCH   5   7
HETATM    7  N   UNL     1      34.129  50.436  42.230  1.00  0.00    -0.058 N 
HETATM    8  H   UNL     1      34.855  50.131  42.897  1.00  0.00     0.281 HD
HETATM    9  C   UNL     1      33.059  51.018  43.130  1.00  0.00     0.246 C 
HETATM   10  C   UNL     1      31.637  50.511  42.858  1.00  0.00     0.062 C 
HETATM   11  C   UNL     1      31.664  48.993  42.774  1.00  0.00     0.020 C 
HETATM   12  C   UNL     1      31.045  51.152  41.615  1.00  0.00     0.020 A 
HETATM   13  C   UNL     1      32.420  48.624  41.511  1.00  0.00     0.031 C 
HETATM   14  C   UNL     1      31.641  49.127  40.296  1.00  0.00     0.138 C 
HETATM   15  C   UNL     1      33.866  49.125  41.500  1.00  0.00     0.242 C 
HETATM   16  N   UNL     1      31.173  50.504  40.385  1.00  0.00    -0.317 N 
HETATM   17  C   UNL     1      30.671  51.047  39.194  1.00  0.00     0.247 A 
HETATM   18  O   UNL     1      30.758  50.500  38.099  1.00  0.00    -0.268 OA
HETATM   19  C   UNL     1      30.014  52.371  39.298  1.00  0.00     0.074 A 
HETATM   20  C   UNL     1      29.895  52.965  40.490  1.00  0.00     0.007 A 
HETATM   21  C   UNL     1      30.417  52.340  41.678  1.00  0.00     0.026 A 
ENDBRANCH   5   7
ENDBRANCH   2   5
BRANCH   1  22
HETATM   22  C   UNL     1      37.347  53.931  43.044  1.00  0.00     0.080 A 
HETATM   23  C   UNL     1      38.082  54.740  42.192  1.00  0.00     0.137 A 
HETATM   24  N   UNL     1      39.125  55.254  42.923  1.00  0.00    -0.349 N 
HETATM   25  H   UNL     1      39.822  55.890  42.556  1.00  0.00     0.166 HD
HETATM   26  C   UNL     1      39.113  54.759  44.206  1.00  0.00     0.045 A 
HETATM   27  C   UNL     1      37.990  53.933  44.321  1.00  0.00     0.023 A 
HETATM   28  C   UNL     1      40.017  54.975  45.254  1.00  0.00     0.033 A 
HETATM   29  C   UNL     1      37.780  53.274  45.550  1.00  0.00     0.058 A 
HETATM   30  C   UNL     1      38.679  53.479  46.597  1.00  0.00     0.117 A 
HETATM   31  C   UNL     1      39.779  54.313  46.461  1.00  0.00     0.044 A 
HETATM   32  F   UNL     1      38.478  52.843  47.758  1.00  0.00    -0.206 F 
BRANCH  23  33
HETATM   33  C   UNL     1      37.809  55.052  40.811  1.00  0.00     0.312 C 
HETATM   34  O   UNL     1      38.525  54.700  39.879  1.00  0.00    -0.258 OA
BRANCH  33  35
HETATM   35  O   UNL     1      36.644  55.745  40.710  1.00  0.00    -0.317 OA
BRANCH  35  36
HETATM   36  C   UNL     1      36.320  56.236  39.399  1.00  0.00     0.175 C 
HETATM   37  C   UNL     1      34.890  56.747  39.371  1.00  0.00     0.034 C 
ENDBRANCH  35  36
ENDBRANCH  33  35
ENDBRANCH  23  33
ENDBRANCH   1  22
TORSDOF 6
ENDMDL
MODEL 10
REMARK VINA RESULT:      -8.3      6.736     10.398
REMARK  6 active torsions:
REMARK  status: ('A' for Active; 'I' for Inactive)
REMARK    1  A    between atoms: C_2  and  O_3 
REMARK    2  A    between atoms: O_3  and  C_4 
REMARK    3  A    between atoms: C_4  and  C_5 
REMARK    4  A    between atoms: C_10  and  N_11 
REMARK       I    between atoms: N_11  and  C_12 
REMARK    5  A    between atoms: C_12  and  C_13 
REMARK    6  A    between atoms: C_13  and  N_14 
ROOT
HETATM    1  N   UNL     1      22.534  46.482  49.142  1.00  0.00    -0.322 N 
HETATM    2  C   UNL     1      22.602  47.789  48.710  1.00  0.00     0.253 C 
HETATM    3  O   UNL     1      23.477  48.265  47.992  1.00  0.00    -0.271 OA
HETATM    4  H   UNL     1      21.617  46.048  49.251  1.00  0.00     0.169 HD
ENDROOT
BRANCH   2   5
HETATM    5  C   UNL     1      21.397  48.648  49.156  1.00  0.00     0.275 C 
HETATM    6  C   UNL     1      21.278  49.887  48.282  1.00  0.00     0.050 C 
BRANCH   5   7
HETATM    7  N   UNL     1      20.066  47.847  49.223  1.00  0.00    -0.058 N 
HETATM    8  H   UNL     1      20.423  46.957  49.603  1.00  0.00     0.281 HD
HETATM    9  C   UNL     1      19.115  48.323  50.302  1.00  0.00     0.246 C 
HETATM   10  C   UNL     1      17.726  48.742  49.802  1.00  0.00     0.062 C 
HETATM   11  C   UNL     1      17.184  47.655  48.889  1.00  0.00     0.020 C 
HETATM   12  C   UNL     1      17.762  50.103  49.130  1.00  0.00     0.020 A 
HETATM   13  C   UNL     1      18.029  47.661  47.629  1.00  0.00     0.031 C 
HETATM   14  C   UNL     1      17.839  48.992  46.904  1.00  0.00     0.138 C 
HETATM   15  C   UNL     1      19.508  47.366  47.889  1.00  0.00     0.242 C 
HETATM   16  N   UNL     1      17.934  50.177  47.747  1.00  0.00    -0.317 N 
HETATM   17  C   UNL     1      17.999  51.399  47.063  1.00  0.00     0.247 A 
HETATM   18  O   UNL     1      18.141  51.499  45.847  1.00  0.00    -0.268 OA
HETATM   19  C   UNL     1      17.903  52.625  47.890  1.00  0.00     0.074 A 
HETATM   20  C   UNL     1      17.727  52.525  49.212  1.00  0.00     0.007 A 
HETATM   21  C   UNL     1      17.649  51.235  49.848  1.00  0.00     0.026 A 
ENDBRANCH   5   7
ENDBRANCH   2   5
BRANCH   1  22
HETATM   22  C   UNL     1      23.585  45.573  49.094  1.00  0.00     0.080 A 
HETATM   23  C   UNL     1      23.618  44.557  48.151  1.00  0.00     0.137 A 
HETATM   24  N   UNL     1      24.754  43.822  48.390  1.00  0.00    -0.349 N 
HETATM   25  H   UNL     1      25.041  43.020  47.844  1.00  0.00     0.166 HD
HETATM   26  C   UNL     1      25.425  44.303  49.490  1.00  0.00     0.045 A 
HETATM   27  C   UNL     1      24.722  45.421  49.948  1.00  0.00     0.023 A 
HETATM   28  C   UNL     1      26.585  43.820  50.110  1.00  0.00     0.033 A 
HETATM   29  C   UNL     1      25.201  46.074  51.103  1.00  0.00     0.058 A 
HETATM   30  C   UNL     1      26.352  45.596  51.729  1.00  0.00     0.117 A 
HETATM   31  C   UNL     1      27.038  44.490  51.248  1.00  0.00     0.044 A 
HETATM   32  F   UNL     1      26.796  46.214  52.831  1.00  0.00    -0.206 F 
BRANCH  23  33
HETATM   33  C   UNL     1      22.689  44.315  47.076  1.00  0.00     0.312 C 
HETATM   34  O   UNL     1      21.961  43.329  47.015  1.00  0.00    -0.258 OA
BRANCH  33  35
HETATM   35  O   UNL     1      22.723  45.344  46.188  1.00  0.00    -0.317 OA
BRANCH  35  36
HETATM   36  C   UNL     1      22.135  45.081  44.904  1.00  0.00     0.175 C 
HETATM   37  C   UNL     1      20.869  45.902  44.732  1.00  0.00     0.034 C 
ENDBRANCH  35  36
ENDBRANCH  33  35
ENDBRANCH  23  33
ENDBRANCH   1  22
TORSDOF 6
ENDMDL
