MODEL 1
REMARK VINA RESULT:      -8.7      0.000      0.000
REMARK  7 active torsions:
REMARK  status: ('A' for Active; 'I' for Inactive)
REMARK    1  A    between atoms: N_3  and  C_4 
REMARK    2  A    between atoms: C_12  and  C_13 
REMARK       I    between atoms: C_13  and  N_14 
REMARK    3  A    between atoms: N_14  and  C_15 
REMARK    4  A    between atoms: C_15  and  C_16 
REMARK    5  A    between atoms: C_16  and  O_17 
REMARK    6  A    between atoms: C_16  and  C_18 
REMARK    7  A    between atoms: C_21  and  O_22 
ROOT
HETATM    1  C   UNL     1      25.322  43.944  51.497  1.00  0.00     0.255 C 
HETATM    2  N   UNL     1      26.629  43.529  51.546  1.00  0.00    -0.350 N 
HETATM    3  O   UNL     1      24.385  43.175  51.696  1.00  0.00    -0.268 OA
HETATM    4  H   UNL     1      27.363  44.224  51.573  1.00  0.00     0.163 HD
ENDROOT
BRANCH   2   5
HETATM    5  C   UNL     1      27.015  42.153  51.867  1.00  0.00     0.114 C 
HETATM    6  C   UNL     1      28.310  41.782  51.132  1.00  0.00     0.035 C 
BRANCH   5   7
HETATM    7  C   UNL     1      27.180  41.961  53.407  1.00  0.00     0.173 C 
BRANCH   7   8
HETATM    8  O   UNL     1      27.699  40.644  53.657  1.00  0.00    -0.389 OA
HETATM    9  H   UNL     1      28.620  40.633  53.349  1.00  0.00     0.210 HD
ENDBRANCH   7   8
BRANCH   7  10
HETATM   10  C   UNL     1      28.076  42.976  54.108  1.00  0.00    -0.028 A 
HETATM   11  C   UNL     1      27.581  44.199  54.585  1.00  0.00     0.012 A 
HETATM   12  C   UNL     1      28.417  45.099  55.257  1.00  0.00     0.037 A 
HETATM   13  C   UNL     1      29.760  44.797  55.485  1.00  0.00     0.068 A 
HETATM   14  C   UNL     1      30.262  43.580  55.036  1.00  0.00     0.037 A 
HETATM   15  C   UNL     1      29.426  42.680  54.363  1.00  0.00     0.012 A 
BRANCH  13  16
HETATM   16  O   UNL     1      30.461  45.761  56.154  1.00  0.00    -0.356 OA
HETATM   17  C   UNL     1      30.215  45.880  57.550  1.00  0.00     0.210 C 
ENDBRANCH  13  16
ENDBRANCH   7  10
ENDBRANCH   5   7
ENDBRANCH   2   5
BRANCH   1  18
HETATM   18  C   UNL     1      25.096  45.360  51.244  1.00  0.00     0.075 C 
HETATM   19  C   UNL     1      24.435  46.035  50.219  1.00  0.00     0.051 C 
HETATM   20  C   UNL     1      23.636  45.534  49.066  1.00  0.00     0.071 C 
HETATM   21  N   UNL     1      24.624  47.399  50.466  1.00  0.00    -0.220 N 
HETATM   22  N   UNL     1      25.203  47.605  51.682  1.00  0.00    -0.177 NA
HETATM   23  C   UNL     1      25.507  46.388  52.118  1.00  0.00     0.158 C 
BRANCH  21  24
HETATM   24  C   UNL     1      24.303  48.520  49.624  1.00  0.00     0.150 A 
HETATM   25  N   UNL     1      23.044  49.036  49.648  1.00  0.00    -0.241 NA
HETATM   26  C   UNL     1      22.777  50.073  48.822  1.00  0.00     0.119 A 
HETATM   27  C   UNL     1      23.706  50.635  47.965  1.00  0.00     0.019 A 
HETATM   28  C   UNL     1      24.988  50.103  47.947  1.00  0.00     0.005 A 
HETATM   29  C   UNL     1      25.294  49.029  48.781  1.00  0.00     0.052 A 
ENDBRANCH  21  24
ENDBRANCH   1  18
TORSDOF 7
ENDMDL
MODEL 2
REMARK VINA RESULT:      -8.4      1.668      2.203
REMARK  7 active torsions:
REMARK  status: ('A' for Active; 'I' for Inactive)
REMARK    1  A    between atoms: N_3  and  C_4 
REMARK    2  A    between atoms: C_12  and  C_13 
REMARK       I    between atoms: C_13  and  N_14 
REMARK    3  A    between atoms: N_14  and  C_15 
REMARK    4  A    between atoms: C_15  and  C_16 
REMARK    5  A    between atoms: C_16  and  O_17 
REMARK    6  A    between atoms: C_16  and  C_18 
REMARK    7  A    between atoms: C_21  and  O_22 
ROOT
HETATM    1  C   UNL     1      26.761  43.944  52.521  1.00  0.00     0.255 C 
HETATM    2  N   UNL     1      27.852  43.138  52.314  1.00  0.00    -0.350 N 
HETATM    3  O   UNL     1      26.118  43.917  53.567  1.00  0.00    -0.268 OA
HETATM    4  H   UNL     1      28.462  43.331  51.531  1.00  0.00     0.163 HD
ENDROOT
BRANCH   2   5
HETATM    5  C   UNL     1      28.356  42.208  53.326  1.00  0.00     0.114 C 
HETATM    6  C   UNL     1      28.110  40.759  52.882  1.00  0.00     0.035 C 
BRANCH   5   7
HETATM    7  C   UNL     1      29.873  42.449  53.604  1.00  0.00     0.173 C 
BRANCH   7   8
HETATM    8  O   UNL     1      30.460  43.085  52.457  1.00  0.00    -0.389 OA
HETATM    9  H   UNL     1      29.733  43.435  51.916  1.00  0.00     0.210 HD
ENDBRANCH   7   8
BRANCH   7  10
HETATM   10  C   UNL     1      30.194  43.285  54.839  1.00  0.00    -0.028 A 
HETATM   11  C   UNL     1      29.552  44.505  55.097  1.00  0.00     0.012 A 
HETATM   12  C   UNL     1      29.839  45.237  56.255  1.00  0.00     0.037 A 
HETATM   13  C   UNL     1      30.759  44.765  57.193  1.00  0.00     0.068 A 
HETATM   14  C   UNL     1      31.390  43.547  56.962  1.00  0.00     0.037 A 
HETATM   15  C   UNL     1      31.103  42.815  55.802  1.00  0.00     0.012 A 
BRANCH  13  16
HETATM   16  O   UNL     1      30.942  45.576  58.278  1.00  0.00    -0.356 OA
HETATM   17  C   UNL     1      29.892  46.485  58.584  1.00  0.00     0.210 C 
ENDBRANCH  13  16
ENDBRANCH   7  10
ENDBRANCH   5   7
ENDBRANCH   2   5
BRANCH   1  18
HETATM   18  C   UNL     1      26.426  44.877  51.453  1.00  0.00     0.075 C 
HETATM   19  C   UNL     1      26.084  46.228  51.463  1.00  0.00     0.051 C 
HETATM   20  C   UNL     1      26.041  47.225  52.570  1.00  0.00     0.071 C 
HETATM   21  N   UNL     1      25.783  46.563  50.138  1.00  0.00    -0.220 N 
HETATM   22  N   UNL     1      26.097  45.545  49.288  1.00  0.00    -0.177 NA
HETATM   23  C   UNL     1      26.447  44.541  50.084  1.00  0.00     0.158 C 
BRANCH  21  24
HETATM   24  C   UNL     1      25.207  47.776  49.624  1.00  0.00     0.150 A 
HETATM   25  N   UNL     1      23.861  47.958  49.693  1.00  0.00    -0.241 NA
HETATM   26  C   UNL     1      23.357  49.101  49.174  1.00  0.00     0.119 A 
HETATM   27  C   UNL     1      24.129  50.088  48.587  1.00  0.00     0.019 A 
HETATM   28  C   UNL     1      25.502  49.894  48.521  1.00  0.00     0.005 A 
HETATM   29  C   UNL     1      26.052  48.723  49.040  1.00  0.00     0.052 A 
ENDBRANCH  21  24
ENDBRANCH   1  18
TORSDOF 7
ENDMDL
MODEL 3
REMARK VINA RESULT:      -8.3      4.164     10.096
REMARK  7 active torsions:
REMARK  status: ('A' for Active; 'I' for Inactive)
REMARK    1  A    between atoms: N_3  and  C_4 
REMARK    2  A    between atoms: C_12  and  C_13 
REMARK       I    between atoms: C_13  and  N_14 
REMARK    3  A    between atoms: N_14  and  C_15 
REMARK    4  A    between atoms: C_15  and  C_16 
REMARK    5  A    between atoms: C_16  and  O_17 
REMARK    6  A    between atoms: C_16  and  C_18 
REMARK    7  A    between atoms: C_21  and  O_22 
ROOT
HETATM    1  C   UNL     1      24.016  47.797  49.750  1.00  0.00     0.255 C 
HETATM    2  N   UNL     1      22.689  47.777  49.400  1.00  0.00    -0.350 N 
HETATM    3  O   UNL     1      24.714  48.796  49.606  1.00  0.00    -0.268 OA
HETATM    4  H   UNL     1      22.110  47.010  49.714  1.00  0.00     0.163 HD
ENDROOT
BRANCH   2   5
HETATM    5  C   UNL     1      21.992  48.946  48.859  1.00  0.00     0.114 C 
HETATM    6  C   UNL     1      20.890  48.502  47.887  1.00  0.00     0.035 C 
BRANCH   5   7
HETATM    7  C   UNL     1      21.398  49.825  50.003  1.00  0.00     0.173 C 
BRANCH   7   8
HETATM    8  O   UNL     1      22.398  50.762  50.435  1.00  0.00    -0.389 OA
HETATM    9  H   UNL     1      23.258  50.431  50.127  1.00  0.00     0.210 HD
ENDBRANCH   7   8
BRANCH   7  10
HETATM   10  C   UNL     1      20.130  50.596  49.653  1.00  0.00    -0.028 A 
HETATM   11  C   UNL     1      18.891  50.294  50.239  1.00  0.00     0.012 A 
HETATM   12  C   UNL     1      17.748  51.040  49.927  1.00  0.00     0.037 A 
HETATM   13  C   UNL     1      17.813  52.115  49.039  1.00  0.00     0.068 A 
HETATM   14  C   UNL     1      19.038  52.440  48.465  1.00  0.00     0.037 A 
HETATM   15  C   UNL     1      20.181  51.693  48.776  1.00  0.00     0.012 A 
BRANCH  13  16
HETATM   16  O   UNL     1      16.626  52.758  48.826  1.00  0.00    -0.356 OA
HETATM   17  C   UNL     1      15.491  52.255  49.522  1.00  0.00     0.210 C 
ENDBRANCH  13  16
ENDBRANCH   7  10
ENDBRANCH   5   7
ENDBRANCH   2   5
BRANCH   1  18
HETATM   18  C   UNL     1      24.550  46.581  50.350  1.00  0.00     0.075 C 
HETATM   19  C   UNL     1      25.385  46.367  51.445  1.00  0.00     0.051 C 
HETATM   20  C   UNL     1      25.946  47.308  52.455  1.00  0.00     0.071 C 
HETATM   21  N   UNL     1      25.627  44.990  51.487  1.00  0.00    -0.220 N 
HETATM   22  N   UNL     1      24.842  44.324  50.594  1.00  0.00    -0.177 NA
HETATM   23  C   UNL     1      24.233  45.282  49.904  1.00  0.00     0.158 C 
BRANCH  21  24
HETATM   24  C   UNL     1      26.558  44.262  52.306  1.00  0.00     0.150 A 
HETATM   25  N   UNL     1      26.204  43.915  53.573  1.00  0.00    -0.241 NA
HETATM   26  C   UNL     1      27.119  43.255  54.319  1.00  0.00     0.119 A 
HETATM   27  C   UNL     1      28.381  42.913  53.868  1.00  0.00     0.019 A 
HETATM   28  C   UNL     1      28.733  43.270  52.574  1.00  0.00     0.005 A 
HETATM   29  C   UNL     1      27.817  43.958  51.781  1.00  0.00     0.052 A 
ENDBRANCH  21  24
ENDBRANCH   1  18
TORSDOF 7
ENDMDL
MODEL 4
REMARK VINA RESULT:      -8.0      1.415      2.154
REMARK  7 active torsions:
REMARK  status: ('A' for Active; 'I' for Inactive)
REMARK    1  A    between atoms: N_3  and  C_4 
REMARK    2  A    between atoms: C_12  and  C_13 
REMARK       I    between atoms: C_13  and  N_14 
REMARK    3  A    between atoms: N_14  and  C_15 
REMARK    4  A    between atoms: C_15  and  C_16 
REMARK    5  A    between atoms: C_16  and  O_17 
REMARK    6  A    between atoms: C_16  and  C_18 
REMARK    7  A    between atoms: C_21  and  O_22 
ROOT
HETATM    1  C   UNL     1      25.196  44.248  51.753  1.00  0.00     0.255 C 
HETATM    2  N   UNL     1      26.240  43.493  51.281  1.00  0.00    -0.350 N 
HETATM    3  O   UNL     1      24.816  44.182  52.918  1.00  0.00    -0.268 OA
HETATM    4  H   UNL     1      26.642  43.720  50.381  1.00  0.00     0.163 HD
ENDROOT
BRANCH   2   5
HETATM    5  C   UNL     1      27.003  42.574  52.128  1.00  0.00     0.114 C 
HETATM    6  C   UNL     1      26.828  41.131  51.635  1.00  0.00     0.035 C 
BRANCH   5   7
HETATM    7  C   UNL     1      28.513  42.965  52.164  1.00  0.00     0.173 C 
BRANCH   7   8
HETATM    8  O   UNL     1      28.761  43.953  51.149  1.00  0.00    -0.389 OA
HETATM    9  H   UNL     1      28.519  44.817  51.521  1.00  0.00     0.210 HD
ENDBRANCH   7   8
BRANCH   7  10
HETATM   10  C   UNL     1      29.026  43.501  53.496  1.00  0.00    -0.028 A 
HETATM   11  C   UNL     1      30.184  42.994  54.104  1.00  0.00     0.012 A 
HETATM   12  C   UNL     1      30.654  43.527  55.310  1.00  0.00     0.037 A 
HETATM   13  C   UNL     1      29.993  44.586  55.933  1.00  0.00     0.068 A 
HETATM   14  C   UNL     1      28.854  45.114  55.333  1.00  0.00     0.037 A 
HETATM   15  C   UNL     1      28.383  44.580  54.126  1.00  0.00     0.012 A 
BRANCH  13  16
HETATM   16  O   UNL     1      30.559  45.011  57.102  1.00  0.00    -0.356 OA
HETATM   17  C   UNL     1      29.824  45.964  57.861  1.00  0.00     0.210 C 
ENDBRANCH  13  16
ENDBRANCH   7  10
ENDBRANCH   5   7
ENDBRANCH   2   5
BRANCH   1  18
HETATM   18  C   UNL     1      24.585  45.177  50.811  1.00  0.00     0.075 C 
HETATM   19  C   UNL     1      24.811  46.527  50.546  1.00  0.00     0.051 C 
HETATM   20  C   UNL     1      25.837  47.473  51.068  1.00  0.00     0.071 C 
HETATM   21  N   UNL     1      23.856  46.902  49.597  1.00  0.00    -0.220 N 
HETATM   22  N   UNL     1      23.175  45.820  49.126  1.00  0.00    -0.177 NA
HETATM   23  C   UNL     1      23.595  44.809  49.877  1.00  0.00     0.158 C 
BRANCH  21  24
HETATM   24  C   UNL     1      23.535  48.219  49.112  1.00  0.00     0.150 A 
HETATM   25  N   UNL     1      24.513  48.982  48.554  1.00  0.00    -0.241 NA
HETATM   26  C   UNL     1      24.176  50.223  48.137  1.00  0.00     0.119 A 
HETATM   27  C   UNL     1      22.902  50.752  48.240  1.00  0.00     0.019 A 
HETATM   28  C   UNL     1      21.910  49.966  48.809  1.00  0.00     0.005 A 
HETATM   29  C   UNL     1      22.226  48.685  49.258  1.00  0.00     0.052 A 
ENDBRANCH  21  24
ENDBRANCH   1  18
TORSDOF 7
ENDMDL
MODEL 5
REMARK VINA RESULT:      -7.9      2.718      7.759
REMARK  7 active torsions:
REMARK  status: ('A' for Active; 'I' for Inactive)
REMARK    1  A    between atoms: N_3  and  C_4 
REMARK    2  A    between atoms: C_12  and  C_13 
REMARK       I    between atoms: C_13  and  N_14 
REMARK    3  A    between atoms: N_14  and  C_15 
REMARK    4  A    between atoms: C_15  and  C_16 
REMARK    5  A    between atoms: C_16  and  O_17 
REMARK    6  A    between atoms: C_16  and  C_18 
REMARK    7  A    between atoms: C_21  and  O_22 
ROOT
HETATM    1  C   UNL     1      25.797  45.447  52.881  1.00  0.00     0.255 C 
HETATM    2  N   UNL     1      25.896  46.082  51.668  1.00  0.00    -0.350 N 
HETATM    3  O   UNL     1      24.902  44.644  53.126  1.00  0.00    -0.268 OA
HETATM    4  H   UNL     1      26.748  46.577  51.442  1.00  0.00     0.163 HD
ENDROOT
BRANCH   2   5
HETATM    5  C   UNL     1      24.966  45.836  50.564  1.00  0.00     0.114 C 
HETATM    6  C   UNL     1      24.387  47.163  50.053  1.00  0.00     0.035 C 
BRANCH   5   7
HETATM    7  C   UNL     1      25.664  45.056  49.406  1.00  0.00     0.173 C 
BRANCH   7   8
HETATM    8  O   UNL     1      26.954  45.642  49.163  1.00  0.00    -0.389 OA
HETATM    9  H   UNL     1      26.820  46.596  49.044  1.00  0.00     0.210 HD
ENDBRANCH   7   8
BRANCH   7  10
HETATM   10  C   UNL     1      25.846  43.559  49.633  1.00  0.00    -0.028 A 
HETATM   11  C   UNL     1      24.948  42.614  49.116  1.00  0.00     0.012 A 
HETATM   12  C   UNL     1      25.157  41.243  49.309  1.00  0.00     0.037 A 
HETATM   13  C   UNL     1      26.272  40.779  50.006  1.00  0.00     0.068 A 
HETATM   14  C   UNL     1      27.184  41.702  50.509  1.00  0.00     0.037 A 
HETATM   15  C   UNL     1      26.974  43.073  50.317  1.00  0.00     0.012 A 
BRANCH  13  16
HETATM   16  O   UNL     1      26.355  39.419  50.119  1.00  0.00    -0.356 OA
HETATM   17  C   UNL     1      26.735  38.701  48.951  1.00  0.00     0.210 C 
ENDBRANCH  13  16
ENDBRANCH   7  10
ENDBRANCH   5   7
ENDBRANCH   2   5
BRANCH   1  18
HETATM   18  C   UNL     1      26.842  45.734  53.855  1.00  0.00     0.075 C 
HETATM   19  C   UNL     1      27.868  44.954  54.385  1.00  0.00     0.051 C 
HETATM   20  C   UNL     1      28.321  43.572  54.063  1.00  0.00     0.071 C 
HETATM   21  N   UNL     1      28.502  45.747  55.347  1.00  0.00    -0.220 N 
HETATM   22  N   UNL     1      28.044  47.030  55.309  1.00  0.00    -0.177 NA
HETATM   23  C   UNL     1      27.039  47.001  54.443  1.00  0.00     0.158 C 
BRANCH  21  24
HETATM   24  C   UNL     1      29.504  45.370  56.308  1.00  0.00     0.150 A 
HETATM   25  N   UNL     1      30.454  44.460  55.961  1.00  0.00    -0.241 NA
HETATM   26  C   UNL     1      31.361  44.114  56.903  1.00  0.00     0.119 A 
HETATM   27  C   UNL     1      31.378  44.632  58.186  1.00  0.00     0.019 A 
HETATM   28  C   UNL     1      30.405  45.559  58.530  1.00  0.00     0.005 A 
HETATM   29  C   UNL     1      29.451  45.933  57.586  1.00  0.00     0.052 A 
ENDBRANCH  21  24
ENDBRANCH   1  18
TORSDOF 7
ENDMDL
MODEL 6
REMARK VINA RESULT:      -7.8     12.477     14.784
REMARK  7 active torsions:
REMARK  status: ('A' for Active; 'I' for Inactive)
REMARK    1  A    between atoms: N_3  and  C_4 
REMARK    2  A    between atoms: C_12  and  C_13 
REMARK       I    between atoms: C_13  and  N_14 
REMARK    3  A    between atoms: N_14  and  C_15 
REMARK    4  A    between atoms: C_15  and  C_16 
REMARK    5  A    between atoms: C_16  and  O_17 
REMARK    6  A    between atoms: C_16  and  C_18 
REMARK    7  A    between atoms: C_21  and  O_22 
ROOT
HETATM    1  C   UNL     1      30.345  48.301  39.540  1.00  0.00     0.255 C 
HETATM    2  N   UNL     1      29.223  48.094  40.303  1.00  0.00    -0.350 N 
HETATM    3  O   UNL     1      30.309  48.306  38.313  1.00  0.00    -0.268 OA
HETATM    4  H   UNL     1      29.261  48.292  41.294  1.00  0.00     0.163 HD
ENDROOT
BRANCH   2   5
HETATM    5  C   UNL     1      27.894  47.895  39.724  1.00  0.00     0.114 C 
HETATM    6  C   UNL     1      27.269  46.600  40.263  1.00  0.00     0.035 C 
BRANCH   5   7
HETATM    7  C   UNL     1      26.966  49.116  40.012  1.00  0.00     0.173 C 
BRANCH   7   8
HETATM    8  O   UNL     1      26.299  48.906  41.268  1.00  0.00    -0.389 OA
HETATM    9  H   UNL     1      25.343  48.930  41.095  1.00  0.00     0.210 HD
ENDBRANCH   7   8
BRANCH   7  10
HETATM   10  C   UNL     1      27.656  50.476  40.052  1.00  0.00    -0.028 A 
HETATM   11  C   UNL     1      28.033  51.152  38.883  1.00  0.00     0.012 A 
HETATM   12  C   UNL     1      28.634  52.415  38.946  1.00  0.00     0.037 A 
HETATM   13  C   UNL     1      28.859  53.043  40.171  1.00  0.00     0.068 A 
HETATM   14  C   UNL     1      28.473  52.394  41.340  1.00  0.00     0.037 A 
HETATM   15  C   UNL     1      27.873  51.130  41.277  1.00  0.00     0.012 A 
BRANCH  13  16
HETATM   16  O   UNL     1      29.449  54.273  40.088  1.00  0.00    -0.356 OA
HETATM   17  C   UNL     1      30.729  54.411  40.694  1.00  0.00     0.210 C 
ENDBRANCH  13  16
ENDBRANCH   7  10
ENDBRANCH   5   7
ENDBRANCH   2   5
BRANCH   1  18
HETATM   18  C   UNL     1      31.584  48.564  40.260  1.00  0.00     0.075 C 
HETATM   19  C   UNL     1      32.280  49.742  40.526  1.00  0.00     0.051 C 
HETATM   20  C   UNL     1      31.944  51.168  40.252  1.00  0.00     0.071 C 
HETATM   21  N   UNL     1      33.453  49.360  41.185  1.00  0.00    -0.220 N 
HETATM   22  N   UNL     1      33.432  48.036  41.504  1.00  0.00    -0.177 NA
HETATM   23  C   UNL     1      32.334  47.570  40.921  1.00  0.00     0.158 C 
BRANCH  21  24
HETATM   24  C   UNL     1      34.599  50.162  41.524  1.00  0.00     0.150 A 
HETATM   25  N   UNL     1      34.574  50.919  42.654  1.00  0.00    -0.241 NA
HETATM   26  C   UNL     1      35.660  51.679  42.922  1.00  0.00     0.119 A 
HETATM   27  C   UNL     1      36.787  51.724  42.120  1.00  0.00     0.019 A 
HETATM   28  C   UNL     1      36.804  50.948  40.970  1.00  0.00     0.005 A 
HETATM   29  C   UNL     1      35.697  50.160  40.660  1.00  0.00     0.052 A 
ENDBRANCH  21  24
ENDBRANCH   1  18
TORSDOF 7
ENDMDL
MODEL 7
REMARK VINA RESULT:      -7.8      2.739      4.668
REMARK  7 active torsions:
REMARK  status: ('A' for Active; 'I' for Inactive)
REMARK    1  A    between atoms: N_3  and  C_4 
REMARK    2  A    between atoms: C_12  and  C_13 
REMARK       I    between atoms: C_13  and  N_14 
REMARK    3  A    between atoms: N_14  and  C_15 
REMARK    4  A    between atoms: C_15  and  C_16 
REMARK    5  A    between atoms: C_16  and  O_17 
REMARK    6  A    between atoms: C_16  and  C_18 
REMARK    7  A    between atoms: C_21  and  O_22 
ROOT
HETATM    1  C   UNL     1      24.216  48.016  49.692  1.00  0.00     0.255 C 
HETATM    2  N   UNL     1      24.263  47.082  50.696  1.00  0.00    -0.350 N 
HETATM    3  O   UNL     1      25.229  48.425  49.133  1.00  0.00    -0.268 OA
HETATM    4  H   UNL     1      23.406  46.632  50.989  1.00  0.00     0.163 HD
ENDROOT
BRANCH   2   5
HETATM    5  C   UNL     1      25.513  46.477  51.161  1.00  0.00     0.114 C 
HETATM    6  C   UNL     1      26.075  47.270  52.350  1.00  0.00     0.035 C 
BRANCH   5   7
HETATM    7  C   UNL     1      25.304  44.980  51.546  1.00  0.00     0.173 C 
BRANCH   7   8
HETATM    8  O   UNL     1      25.106  44.215  50.345  1.00  0.00    -0.389 OA
HETATM    9  H   UNL     1      25.946  44.220  49.857  1.00  0.00     0.210 HD
ENDBRANCH   7   8
BRANCH   7  10
HETATM   10  C   UNL     1      26.431  44.339  52.348  1.00  0.00    -0.028 A 
HETATM   11  C   UNL     1      26.264  43.951  53.686  1.00  0.00     0.012 A 
HETATM   12  C   UNL     1      27.304  43.333  54.390  1.00  0.00     0.037 A 
HETATM   13  C   UNL     1      28.529  43.070  53.777  1.00  0.00     0.068 A 
HETATM   14  C   UNL     1      28.705  43.430  52.444  1.00  0.00     0.037 A 
HETATM   15  C   UNL     1      27.665  44.050  51.740  1.00  0.00     0.012 A 
BRANCH  13  16
HETATM   16  O   UNL     1      29.455  42.460  54.576  1.00  0.00    -0.356 OA
HETATM   17  C   UNL     1      30.449  43.296  55.157  1.00  0.00     0.210 C 
ENDBRANCH  13  16
ENDBRANCH   7  10
ENDBRANCH   5   7
ENDBRANCH   2   5
BRANCH   1  18
HETATM   18  C   UNL     1      22.892  48.467  49.283  1.00  0.00     0.075 C 
HETATM   19  C   UNL     1      22.346  49.739  49.118  1.00  0.00     0.051 C 
HETATM   20  C   UNL     1      22.961  51.093  49.206  1.00  0.00     0.071 C 
HETATM   21  N   UNL     1      20.999  49.545  48.794  1.00  0.00    -0.220 N 
HETATM   22  N   UNL     1      20.730  48.228  48.569  1.00  0.00    -0.177 NA
HETATM   23  C   UNL     1      21.853  47.598  48.894  1.00  0.00     0.158 C 
BRANCH  21  24
HETATM   24  C   UNL     1      19.947  50.521  48.694  1.00  0.00     0.150 A 
HETATM   25  N   UNL     1      19.430  50.824  47.473  1.00  0.00    -0.241 NA
HETATM   26  C   UNL     1      18.461  51.765  47.421  1.00  0.00     0.119 A 
HETATM   27  C   UNL     1      17.967  52.427  48.530  1.00  0.00     0.019 A 
HETATM   28  C   UNL     1      18.499  52.111  49.772  1.00  0.00     0.005 A 
HETATM   29  C   UNL     1      19.505  51.151  49.861  1.00  0.00     0.052 A 
ENDBRANCH  21  24
ENDBRANCH   1  18
TORSDOF 7
ENDMDL
MODEL 8
REMARK VINA RESULT:      -7.8      2.935      4.956
REMARK  7 active torsions:
REMARK  status: ('A' for Active; 'I' for Inactive)
REMARK    1  A    between atoms: N_3  and  C_4 
REMARK    2  A    between atoms: C_12  and  C_13 
REMARK       I    between atoms: C_13  and  N_14 
REMARK    3  A    between atoms: N_14  and  C_15 
REMARK    4  A    between atoms: C_15  and  C_16 
REMARK    5  A    between atoms: C_16  and  O_17 
REMARK    6  A    between atoms: C_16  and  C_18 
REMARK    7  A    between atoms: C_21  and  O_22 
ROOT
HETATM    1  C   UNL     1      23.135  46.998  49.043  1.00  0.00     0.255 C 
HETATM    2  N   UNL     1      23.904  47.352  50.124  1.00  0.00    -0.350 N 
HETATM    3  O   UNL     1      23.419  46.043  48.325  1.00  0.00    -0.268 OA
HETATM    4  H   UNL     1      23.532  48.012  50.794  1.00  0.00     0.163 HD
ENDROOT
BRANCH   2   5
HETATM    5  C   UNL     1      25.099  46.609  50.526  1.00  0.00     0.114 C 
HETATM    6  C   UNL     1      26.303  47.556  50.624  1.00  0.00     0.035 C 
BRANCH   5   7
HETATM    7  C   UNL     1      24.870  45.867  51.880  1.00  0.00     0.173 C 
BRANCH   7   8
HETATM    8  O   UNL     1      23.888  44.836  51.683  1.00  0.00    -0.389 OA
HETATM    9  H   UNL     1      24.179  44.300  50.927  1.00  0.00     0.210 HD
ENDBRANCH   7   8
BRANCH   7  10
HETATM   10  C   UNL     1      26.110  45.242  52.510  1.00  0.00    -0.028 A 
HETATM   11  C   UNL     1      26.907  44.317  51.820  1.00  0.00     0.012 A 
HETATM   12  C   UNL     1      28.061  43.784  52.409  1.00  0.00     0.037 A 
HETATM   13  C   UNL     1      28.457  44.170  53.689  1.00  0.00     0.068 A 
HETATM   14  C   UNL     1      27.688  45.101  54.379  1.00  0.00     0.037 A 
HETATM   15  C   UNL     1      26.534  45.634  53.792  1.00  0.00     0.012 A 
BRANCH  13  16
HETATM   16  O   UNL     1      29.602  43.575  54.141  1.00  0.00    -0.356 OA
HETATM   17  C   UNL     1      30.341  42.808  53.198  1.00  0.00     0.210 C 
ENDBRANCH  13  16
ENDBRANCH   7  10
ENDBRANCH   5   7
ENDBRANCH   2   5
BRANCH   1  18
HETATM   18  C   UNL     1      21.931  47.784  48.813  1.00  0.00     0.075 C 
HETATM   19  C   UNL     1      21.631  49.127  49.037  1.00  0.00     0.051 C 
HETATM   20  C   UNL     1      22.481  50.260  49.501  1.00  0.00     0.071 C 
HETATM   21  N   UNL     1      20.283  49.287  48.702  1.00  0.00    -0.220 N 
HETATM   22  N   UNL     1      19.785  48.165  48.111  1.00  0.00    -0.177 NA
HETATM   23  C   UNL     1      20.762  47.272  48.212  1.00  0.00     0.158 C 
BRANCH  21  24
HETATM   24  C   UNL     1      19.430  50.426  48.915  1.00  0.00     0.150 A 
HETATM   25  N   UNL     1      18.538  50.410  49.942  1.00  0.00    -0.241 NA
HETATM   26  C   UNL     1      17.737  51.490  50.090  1.00  0.00     0.119 A 
HETATM   27  C   UNL     1      17.778  52.600  49.266  1.00  0.00     0.019 A 
HETATM   28  C   UNL     1      18.691  52.607  48.221  1.00  0.00     0.005 A 
HETATM   29  C   UNL     1      19.526  51.507  48.035  1.00  0.00     0.052 A 
ENDBRANCH  21  24
ENDBRANCH   1  18
TORSDOF 7
ENDMDL
MODEL 9
REMARK VINA RESULT:      -7.7      2.648      4.383
REMARK  7 active torsions:
REMARK  status: ('A' for Active; 'I' for Inactive)
REMARK    1  A    between atoms: N_3  and  C_4 
REMARK    2  A    between atoms: C_12  and  C_13 
REMARK       I    between atoms: C_13  and  N_14 
REMARK    3  A    between atoms: N_14  and  C_15 
REMARK    4  A    between atoms: C_15  and  C_16 
REMARK    5  A    between atoms: C_16  and  O_17 
REMARK    6  A    between atoms: C_16  and  C_18 
REMARK    7  A    between atoms: C_21  and  O_22 
ROOT
HETATM    1  C   UNL     1      23.267  46.524  49.034  1.00  0.00     0.255 C 
HETATM    2  N   UNL     1      24.340  46.511  49.890  1.00  0.00    -0.350 N 
HETATM    3  O   UNL     1      22.799  45.494  48.558  1.00  0.00    -0.268 OA
HETATM    4  H   UNL     1      24.564  47.351  50.407  1.00  0.00     0.163 HD
ENDROOT
BRANCH   2   5
HETATM    5  C   UNL     1      24.992  45.276  50.328  1.00  0.00     0.114 C 
HETATM    6  C   UNL     1      26.515  45.403  50.188  1.00  0.00     0.035 C 
BRANCH   5   7
HETATM    7  C   UNL     1      24.601  44.925  51.798  1.00  0.00     0.173 C 
BRANCH   7   8
HETATM    8  O   UNL     1      24.490  43.497  51.920  1.00  0.00    -0.389 OA
HETATM    9  H   UNL     1      25.282  43.110  51.513  1.00  0.00     0.210 HD
ENDBRANCH   7   8
BRANCH   7  10
HETATM   10  C   UNL     1      25.554  45.431  52.875  1.00  0.00    -0.028 A 
HETATM   11  C   UNL     1      26.421  44.570  53.564  1.00  0.00     0.012 A 
HETATM   12  C   UNL     1      27.311  45.065  54.524  1.00  0.00     0.037 A 
HETATM   13  C   UNL     1      27.374  46.429  54.810  1.00  0.00     0.068 A 
HETATM   14  C   UNL     1      26.535  47.299  54.121  1.00  0.00     0.037 A 
HETATM   15  C   UNL     1      25.643  46.804  53.161  1.00  0.00     0.012 A 
BRANCH  13  16
HETATM   16  O   UNL     1      28.288  46.776  55.765  1.00  0.00    -0.356 OA
HETATM   17  C   UNL     1      29.490  46.017  55.807  1.00  0.00     0.210 C 
ENDBRANCH  13  16
ENDBRANCH   7  10
ENDBRANCH   5   7
ENDBRANCH   2   5
BRANCH   1  18
HETATM   18  C   UNL     1      22.673  47.824  48.751  1.00  0.00     0.075 C 
HETATM   19  C   UNL     1      21.353  48.272  48.759  1.00  0.00     0.051 C 
HETATM   20  C   UNL     1      20.087  47.597  49.161  1.00  0.00     0.071 C 
HETATM   21  N   UNL     1      21.390  49.598  48.316  1.00  0.00    -0.220 N 
HETATM   22  N   UNL     1      22.672  50.050  48.214  1.00  0.00    -0.177 NA
HETATM   23  C   UNL     1      23.422  48.978  48.443  1.00  0.00     0.158 C 
BRANCH  21  24
HETATM   24  C   UNL     1      20.294  50.465  47.973  1.00  0.00     0.150 A 
HETATM   25  N   UNL     1      19.525  50.172  46.889  1.00  0.00    -0.241 NA
HETATM   26  C   UNL     1      18.522  51.026  46.586  1.00  0.00     0.119 A 
HETATM   27  C   UNL     1      18.234  52.168  47.312  1.00  0.00     0.019 A 
HETATM   28  C   UNL     1      19.024  52.459  48.416  1.00  0.00     0.005 A 
HETATM   29  C   UNL     1      20.071  51.603  48.752  1.00  0.00     0.052 A 
ENDBRANCH  21  24
ENDBRANCH   1  18
TORSDOF 7
ENDMDL
MODEL 10
REMARK VINA RESULT:      -7.7      2.557      3.662
REMARK  7 active torsions:
REMARK  status: ('A' for Active; 'I' for Inactive)
REMARK    1  A    between atoms: N_3  and  C_4 
REMARK    2  A    between atoms: C_12  and  C_13 
REMARK       I    between atoms: C_13  and  N_14 
REMARK    3  A    between atoms: N_14  and  C_15 
REMARK    4  A    between atoms: C_15  and  C_16 
REMARK    5  A    between atoms: C_16  and  O_17 
REMARK    6  A    between atoms: C_16  and  C_18 
REMARK    7  A    between atoms: C_21  and  O_22 
ROOT
HETATM    1  C   UNL     1      25.307  47.028  51.078  1.00  0.00     0.255 C 
HETATM    2  N   UNL     1      25.262  46.319  52.251  1.00  0.00    -0.350 N 
HETATM    3  O   UNL     1      26.197  47.839  50.838  1.00  0.00    -0.268 OA
HETATM    4  H   UNL     1      24.634  45.530  52.323  1.00  0.00     0.163 HD
ENDROOT
BRANCH   2   5
HETATM    5  C   UNL     1      26.280  46.445  53.296  1.00  0.00     0.114 C 
HETATM    6  C   UNL     1      25.973  47.654  54.191  1.00  0.00     0.035 C 
BRANCH   5   7
HETATM    7  C   UNL     1      26.377  45.140  54.146  1.00  0.00     0.173 C 
BRANCH   7   8
HETATM    8  O   UNL     1      25.825  44.051  53.388  1.00  0.00    -0.389 OA
HETATM    9  H   UNL     1      26.545  43.674  52.856  1.00  0.00     0.210 HD
ENDBRANCH   7   8
BRANCH   7  10
HETATM   10  C   UNL     1      27.779  44.751  54.602  1.00  0.00    -0.028 A 
HETATM   11  C   UNL     1      28.488  45.504  55.551  1.00  0.00     0.012 A 
HETATM   12  C   UNL     1      29.760  45.106  55.978  1.00  0.00     0.037 A 
HETATM   13  C   UNL     1      30.351  43.942  55.487  1.00  0.00     0.068 A 
HETATM   14  C   UNL     1      29.654  43.173  54.561  1.00  0.00     0.037 A 
HETATM   15  C   UNL     1      28.381  43.571  54.131  1.00  0.00     0.012 A 
BRANCH  13  16
HETATM   16  O   UNL     1      31.592  43.669  55.990  1.00  0.00    -0.356 OA
HETATM   17  C   UNL     1      31.716  43.637  57.407  1.00  0.00     0.210 C 
ENDBRANCH  13  16
ENDBRANCH   7  10
ENDBRANCH   5   7
ENDBRANCH   2   5
BRANCH   1  18
HETATM   18  C   UNL     1      24.268  46.737  50.099  1.00  0.00     0.075 C 
HETATM   19  C   UNL     1      23.455  47.561  49.323  1.00  0.00     0.051 C 
HETATM   20  C   UNL     1      23.435  49.041  49.147  1.00  0.00     0.071 C 
HETATM   21  N   UNL     1      22.584  46.712  48.633  1.00  0.00    -0.220 N 
HETATM   22  N   UNL     1      22.935  45.405  48.798  1.00  0.00    -0.177 NA
HETATM   23  C   UNL     1      23.915  45.433  49.694  1.00  0.00     0.158 C 
BRANCH  21  24
HETATM   24  C   UNL     1      21.435  47.051  47.837  1.00  0.00     0.150 A 
HETATM   25  N   UNL     1      20.523  47.935  48.324  1.00  0.00    -0.241 NA
HETATM   26  C   UNL     1      19.443  48.206  47.556  1.00  0.00     0.119 A 
HETATM   27  C   UNL     1      19.220  47.644  46.312  1.00  0.00     0.019 A 
HETATM   28  C   UNL     1      20.157  46.744  45.823  1.00  0.00     0.005 A 
HETATM   29  C   UNL     1      21.277  46.436  46.593  1.00  0.00     0.052 A 
ENDBRANCH  21  24
ENDBRANCH   1  18
TORSDOF 7
ENDMDL
