MODEL 1
REMARK VINA RESULT:      -8.2      0.000      0.000
REMARK  3 active torsions:
REMARK  status: ('A' for Active; 'I' for Inactive)
REMARK    1  A    between atoms: C_2  and  C_3 
REMARK    2  A    between atoms: C_10  and  C_12 
REMARK    3  A    between atoms: C_10  and  O_11 
ROOT
HETATM    1  C   UNL     1      33.232  51.563  42.247  1.00  0.00    -0.058 A 
HETATM    2  C   UNL     1      31.916  51.792  41.811  1.00  0.00     0.020 A 
HETATM    3  C   UNL     1      31.638  51.687  40.456  1.00  0.00     0.018 A 
HETATM    4  C   UNL     1      32.654  51.384  39.549  1.00  0.00     0.045 A 
HETATM    5  N   UNL     1      32.149  51.319  38.259  1.00  0.00    -0.323 N 
HETATM    6  C   UNL     1      30.773  51.557  38.235  1.00  0.00     0.266 A 
HETATM    7  O   UNL     1      30.096  51.562  37.218  1.00  0.00    -0.269 OA
HETATM    8  C   UNL     1      30.335  51.881  39.709  1.00  0.00     0.199 A 
HETATM    9  C   UNL     1      33.956  51.162  39.941  1.00  0.00     0.031 A 
HETATM   10  C   UNL     1      34.240  51.248  41.307  1.00  0.00     0.009 A 
HETATM   11  H   UNL     1      32.673  51.095  37.426  1.00  0.00     0.169 HD
ENDROOT
BRANCH   8  12
HETATM   12  C   UNL     1      29.331  50.892  40.262  1.00  0.00     0.025 A 
HETATM   13  C   UNL     1      29.349  49.447  40.138  1.00  0.00     0.003 A 
HETATM   14  C   UNL     1      28.236  48.949  40.816  1.00  0.00     0.043 A 
HETATM   15  C   UNL     1      30.210  48.510  39.523  1.00  0.00     0.014 A 
HETATM   16  C   UNL     1      27.947  47.582  40.919  1.00  0.00     0.030 A 
HETATM   17  N   UNL     1      27.549  50.026  41.311  1.00  0.00    -0.359 N 
HETATM   18  C   UNL     1      28.823  46.683  40.307  1.00  0.00     0.002 A 
HETATM   19  C   UNL     1      29.939  47.139  39.616  1.00  0.00     0.001 A 
HETATM   20  H   UNL     1      26.687  49.956  41.835  1.00  0.00     0.166 HD
HETATM   21  C   UNL     1      28.180  51.198  40.990  1.00  0.00     0.016 A 
HETATM   22  C   UNL     1      27.605  52.506  41.408  1.00  0.00     0.069 C 
ENDBRANCH   8  12
BRANCH   8  23
HETATM   23  O   UNL     1      29.939  53.244  39.845  1.00  0.00    -0.371 OA
HETATM   24  H   UNL     1      29.010  53.236  40.127  1.00  0.00     0.212 HD
ENDBRANCH   8  23
BRANCH   1  25
HETATM   25  C   UNL     1      33.555  51.611  43.720  1.00  0.00     0.034 C 
HETATM   26  C   UNL     1      32.328  51.944  44.556  1.00  0.00     0.010 C 
ENDBRANCH   1  25
TORSDOF 3
ENDMDL
MODEL 2
REMARK VINA RESULT:      -8.1     12.734     14.992
REMARK  3 active torsions:
REMARK  status: ('A' for Active; 'I' for Inactive)
REMARK    1  A    between atoms: C_2  and  C_3 
REMARK    2  A    between atoms: C_10  and  C_12 
REMARK    3  A    between atoms: C_10  and  O_11 
ROOT
HETATM    1  C   UNL     1      26.475  46.742  50.410  1.00  0.00    -0.058 A 
HETATM    2  C   UNL     1      26.318  46.448  51.774  1.00  0.00     0.020 A 
HETATM    3  C   UNL     1      26.522  45.144  52.201  1.00  0.00     0.018 A 
HETATM    4  C   UNL     1      26.851  44.146  51.284  1.00  0.00     0.045 A 
HETATM    5  N   UNL     1      27.018  42.930  51.929  1.00  0.00    -0.323 N 
HETATM    6  C   UNL     1      26.827  43.051  53.308  1.00  0.00     0.266 A 
HETATM    7  O   UNL     1      26.912  42.122  54.096  1.00  0.00    -0.269 OA
HETATM    8  C   UNL     1      26.422  44.544  53.588  1.00  0.00     0.199 A 
HETATM    9  C   UNL     1      27.004  44.397  49.937  1.00  0.00     0.031 A 
HETATM   10  C   UNL     1      26.818  45.712  49.504  1.00  0.00     0.009 A 
HETATM   11  H   UNL     1      27.279  42.057  51.495  1.00  0.00     0.169 HD
ENDROOT
BRANCH   8  12
HETATM   12  C   UNL     1      27.404  45.270  54.481  1.00  0.00     0.025 A 
HETATM   13  C   UNL     1      28.680  44.787  54.972  1.00  0.00     0.003 A 
HETATM   14  C   UNL     1      29.247  45.799  55.748  1.00  0.00     0.043 A 
HETATM   15  C   UNL     1      29.416  43.589  54.826  1.00  0.00     0.014 A 
HETATM   16  C   UNL     1      30.498  45.683  56.367  1.00  0.00     0.030 A 
HETATM   17  N   UNL     1      28.360  46.843  55.760  1.00  0.00    -0.359 N 
HETATM   18  C   UNL     1      31.203  44.490  56.194  1.00  0.00     0.002 A 
HETATM   19  C   UNL     1      30.670  43.454  55.436  1.00  0.00     0.001 A 
HETATM   20  H   UNL     1      28.510  47.708  56.262  1.00  0.00     0.166 HD
HETATM   21  C   UNL     1      27.249  46.550  55.015  1.00  0.00     0.016 A 
HETATM   22  C   UNL     1      26.137  47.532  54.898  1.00  0.00     0.069 C 
ENDBRANCH   8  12
BRANCH   8  23
HETATM   23  O   UNL     1      25.066  44.640  54.020  1.00  0.00    -0.371 OA
HETATM   24  H   UNL     1      24.689  43.748  53.949  1.00  0.00     0.212 HD
ENDBRANCH   8  23
BRANCH   1  25
HETATM   25  C   UNL     1      26.319  48.161  49.923  1.00  0.00     0.034 C 
HETATM   26  C   UNL     1      27.544  48.631  49.153  1.00  0.00     0.010 C 
ENDBRANCH   1  25
TORSDOF 3
ENDMDL
MODEL 3
REMARK VINA RESULT:      -7.9      2.878      5.890
REMARK  3 active torsions:
REMARK  status: ('A' for Active; 'I' for Inactive)
REMARK    1  A    between atoms: C_2  and  C_3 
REMARK    2  A    between atoms: C_10  and  C_12 
REMARK    3  A    between atoms: C_10  and  O_11 
ROOT
HETATM    1  C   UNL     1      30.039  51.713  39.699  1.00  0.00    -0.058 A 
HETATM    2  C   UNL     1      30.732  51.381  40.875  1.00  0.00     0.020 A 
HETATM    3  C   UNL     1      31.397  50.165  40.933  1.00  0.00     0.018 A 
HETATM    4  C   UNL     1      31.352  49.284  39.851  1.00  0.00     0.045 A 
HETATM    5  N   UNL     1      32.091  48.143  40.123  1.00  0.00    -0.323 N 
HETATM    6  C   UNL     1      32.681  48.205  41.389  1.00  0.00     0.266 A 
HETATM    7  O   UNL     1      33.376  47.319  41.865  1.00  0.00    -0.269 OA
HETATM    8  C   UNL     1      32.209  49.549  42.053  1.00  0.00     0.199 A 
HETATM    9  C   UNL     1      30.674  49.574  38.687  1.00  0.00     0.031 A 
HETATM   10  C   UNL     1      30.018  50.806  38.615  1.00  0.00     0.009 A 
HETATM   11  H   UNL     1      32.236  47.364  39.498  1.00  0.00     0.169 HD
ENDROOT
BRANCH   8  12
HETATM   12  C   UNL     1      33.352  50.489  42.370  1.00  0.00     0.025 A 
HETATM   13  C   UNL     1      34.610  50.626  41.662  1.00  0.00     0.003 A 
HETATM   14  C   UNL     1      35.349  51.623  42.299  1.00  0.00     0.043 A 
HETATM   15  C   UNL     1      35.192  50.004  40.534  1.00  0.00     0.014 A 
HETATM   16  C   UNL     1      36.617  52.034  41.866  1.00  0.00     0.030 A 
HETATM   17  N   UNL     1      34.603  52.064  43.360  1.00  0.00    -0.359 N 
HETATM   18  C   UNL     1      37.158  51.406  40.744  1.00  0.00     0.002 A 
HETATM   19  C   UNL     1      36.457  50.402  40.085  1.00  0.00     0.001 A 
HETATM   20  H   UNL     1      34.906  52.779  44.007  1.00  0.00     0.166 HD
HETATM   21  C   UNL     1      33.408  51.399  43.427  1.00  0.00     0.016 A 
HETATM   22  C   UNL     1      32.436  51.698  44.514  1.00  0.00     0.069 C 
ENDBRANCH   8  12
BRANCH   8  23
HETATM   23  O   UNL     1      31.338  49.304  43.155  1.00  0.00    -0.371 OA
HETATM   24  H   UNL     1      31.891  49.317  43.953  1.00  0.00     0.212 HD
ENDBRANCH   8  23
BRANCH   1  25
HETATM   25  C   UNL     1      29.355  53.053  39.581  1.00  0.00     0.034 C 
HETATM   26  C   UNL     1      28.718  53.242  38.213  1.00  0.00     0.010 C 
ENDBRANCH   1  25
TORSDOF 3
ENDMDL
MODEL 4
REMARK VINA RESULT:      -7.8     10.546     12.640
REMARK  3 active torsions:
REMARK  status: ('A' for Active; 'I' for Inactive)
REMARK    1  A    between atoms: C_2  and  C_3 
REMARK    2  A    between atoms: C_10  and  C_12 
REMARK    3  A    between atoms: C_10  and  O_11 
ROOT
HETATM    1  C   UNL     1      26.539  46.893  53.628  1.00  0.00    -0.058 A 
HETATM    2  C   UNL     1      26.702  47.109  52.250  1.00  0.00     0.020 A 
HETATM    3  C   UNL     1      25.963  46.338  51.365  1.00  0.00     0.018 A 
HETATM    4  C   UNL     1      25.097  45.353  51.841  1.00  0.00     0.045 A 
HETATM    5  N   UNL     1      24.458  44.718  50.787  1.00  0.00    -0.323 N 
HETATM    6  C   UNL     1      24.847  45.251  49.556  1.00  0.00     0.266 A 
HETATM    7  O   UNL     1      24.432  44.858  48.476  1.00  0.00    -0.269 OA
HETATM    8  C   UNL     1      25.936  46.346  49.850  1.00  0.00     0.199 A 
HETATM    9  C   UNL     1      24.920  45.108  53.185  1.00  0.00     0.031 A 
HETATM   10  C   UNL     1      25.647  45.894  54.083  1.00  0.00     0.009 A 
HETATM   11  H   UNL     1      23.768  43.985  50.864  1.00  0.00     0.169 HD
ENDROOT
BRANCH   8  12
HETATM   12  C   UNL     1      25.524  47.731  49.401  1.00  0.00     0.025 A 
HETATM   13  C   UNL     1      24.180  48.225  49.170  1.00  0.00     0.003 A 
HETATM   14  C   UNL     1      24.280  49.562  48.781  1.00  0.00     0.043 A 
HETATM   15  C   UNL     1      22.884  47.669  49.263  1.00  0.00     0.014 A 
HETATM   16  C   UNL     1      23.167  50.364  48.495  1.00  0.00     0.030 A 
HETATM   17  N   UNL     1      25.613  49.874  48.745  1.00  0.00    -0.359 N 
HETATM   18  C   UNL     1      21.901  49.786  48.605  1.00  0.00     0.002 A 
HETATM   19  C   UNL     1      21.759  48.455  48.982  1.00  0.00     0.001 A 
HETATM   20  H   UNL     1      25.976  50.778  48.479  1.00  0.00     0.166 HD
HETATM   21  C   UNL     1      26.377  48.796  49.107  1.00  0.00     0.016 A 
HETATM   22  C   UNL     1      27.862  48.894  49.124  1.00  0.00     0.069 C 
ENDBRANCH   8  12
BRANCH   8  23
HETATM   23  O   UNL     1      27.219  45.942  49.377  1.00  0.00    -0.371 OA
HETATM   24  H   UNL     1      27.062  45.323  48.646  1.00  0.00     0.212 HD
ENDBRANCH   8  23
BRANCH   1  25
HETATM   25  C   UNL     1      27.283  47.755  54.618  1.00  0.00     0.034 C 
HETATM   26  C   UNL     1      26.332  48.488  55.553  1.00  0.00     0.010 C 
ENDBRANCH   1  25
TORSDOF 3
ENDMDL
MODEL 5
REMARK VINA RESULT:      -7.5      2.207      3.361
REMARK  3 active torsions:
REMARK  status: ('A' for Active; 'I' for Inactive)
REMARK    1  A    between atoms: C_2  and  C_3 
REMARK    2  A    between atoms: C_10  and  C_12 
REMARK    3  A    between atoms: C_10  and  O_11 
ROOT
HETATM    1  C   UNL     1      31.387  51.375  42.547  1.00  0.00    -0.058 A 
HETATM    2  C   UNL     1      30.440  50.389  42.225  1.00  0.00     0.020 A 
HETATM    3  C   UNL     1      29.422  50.710  41.340  1.00  0.00     0.018 A 
HETATM    4  C   UNL     1      29.333  51.996  40.803  1.00  0.00     0.045 A 
HETATM    5  N   UNL     1      28.252  52.087  39.940  1.00  0.00    -0.323 N 
HETATM    6  C   UNL     1      27.572  50.871  39.839  1.00  0.00     0.266 A 
HETATM    7  O   UNL     1      26.581  50.695  39.146  1.00  0.00    -0.269 OA
HETATM    8  C   UNL     1      28.277  49.866  40.821  1.00  0.00     0.199 A 
HETATM    9  C   UNL     1      30.240  52.989  41.105  1.00  0.00     0.031 A 
HETATM   10  C   UNL     1      31.279  52.666  41.982  1.00  0.00     0.009 A 
HETATM   11  H   UNL     1      27.983  52.902  39.408  1.00  0.00     0.169 HD
ENDROOT
BRANCH   8  12
HETATM   12  C   UNL     1      28.867  48.663  40.118  1.00  0.00     0.025 A 
HETATM   13  C   UNL     1      28.442  47.280  40.218  1.00  0.00     0.003 A 
HETATM   14  C   UNL     1      29.264  46.521  39.386  1.00  0.00     0.043 A 
HETATM   15  C   UNL     1      27.428  46.598  40.930  1.00  0.00     0.014 A 
HETATM   16  C   UNL     1      29.123  45.137  39.220  1.00  0.00     0.030 A 
HETATM   17  N   UNL     1      30.169  47.380  38.820  1.00  0.00    -0.359 N 
HETATM   18  C   UNL     1      28.106  44.496  39.931  1.00  0.00     0.002 A 
HETATM   19  C   UNL     1      27.270  45.215  40.777  1.00  0.00     0.001 A 
HETATM   20  H   UNL     1      30.898  47.094  38.181  1.00  0.00     0.166 HD
HETATM   21  C   UNL     1      29.956  48.664  39.245  1.00  0.00     0.016 A 
HETATM   22  C   UNL     1      30.832  49.771  38.774  1.00  0.00     0.069 C 
ENDBRANCH   8  12
BRANCH   8  23
HETATM   23  O   UNL     1      27.430  49.536  41.920  1.00  0.00    -0.371 OA
HETATM   24  H   UNL     1      27.149  50.377  42.315  1.00  0.00     0.212 HD
ENDBRANCH   8  23
BRANCH   1  25
HETATM   25  C   UNL     1      32.540  51.040  43.461  1.00  0.00     0.034 C 
HETATM   26  C   UNL     1      32.535  51.903  44.714  1.00  0.00     0.010 C 
ENDBRANCH   1  25
TORSDOF 3
ENDMDL
MODEL 6
REMARK VINA RESULT:      -7.5     11.356     13.332
REMARK  3 active torsions:
REMARK  status: ('A' for Active; 'I' for Inactive)
REMARK    1  A    between atoms: C_2  and  C_3 
REMARK    2  A    between atoms: C_10  and  C_12 
REMARK    3  A    between atoms: C_10  and  O_11 
ROOT
HETATM    1  C   UNL     1      27.449  45.080  54.099  1.00  0.00    -0.058 A 
HETATM    2  C   UNL     1      27.194  45.450  52.768  1.00  0.00     0.020 A 
HETATM    3  C   UNL     1      27.150  44.458  51.800  1.00  0.00     0.018 A 
HETATM    4  C   UNL     1      27.379  43.126  52.144  1.00  0.00     0.045 A 
HETATM    5  N   UNL     1      27.275  42.311  51.027  1.00  0.00    -0.323 N 
HETATM    6  C   UNL     1      26.955  43.047  49.884  1.00  0.00     0.266 A 
HETATM    7  O   UNL     1      26.815  42.560  48.772  1.00  0.00    -0.269 OA
HETATM    8  C   UNL     1      26.903  44.560  50.309  1.00  0.00     0.199 A 
HETATM    9  C   UNL     1      27.641  42.729  53.438  1.00  0.00     0.031 A 
HETATM   10  C   UNL     1      27.669  43.721  54.421  1.00  0.00     0.009 A 
HETATM   11  H   UNL     1      27.375  41.306  51.012  1.00  0.00     0.169 HD
ENDROOT
BRANCH   8  12
HETATM   12  C   UNL     1      25.542  45.189  50.104  1.00  0.00     0.025 A 
HETATM   13  C   UNL     1      25.246  46.561  49.738  1.00  0.00     0.003 A 
HETATM   14  C   UNL     1      23.859  46.686  49.648  1.00  0.00     0.043 A 
HETATM   15  C   UNL     1      26.023  47.710  49.464  1.00  0.00     0.014 A 
HETATM   16  C   UNL     1      23.217  47.880  49.293  1.00  0.00     0.030 A 
HETATM   17  N   UNL     1      23.322  45.467  49.967  1.00  0.00    -0.359 N 
HETATM   18  C   UNL     1      24.015  48.993  49.021  1.00  0.00     0.002 A 
HETATM   19  C   UNL     1      25.400  48.912  49.106  1.00  0.00     0.001 A 
HETATM   20  H   UNL     1      22.330  45.276  49.996  1.00  0.00     0.166 HD
HETATM   21  C   UNL     1      24.306  44.557  50.248  1.00  0.00     0.016 A 
HETATM   22  C   UNL     1      23.958  43.164  50.639  1.00  0.00     0.069 C 
ENDBRANCH   8  12
BRANCH   8  23
HETATM   23  O   UNL     1      27.976  45.298  49.727  1.00  0.00    -0.371 OA
HETATM   24  H   UNL     1      28.794  44.832  49.965  1.00  0.00     0.212 HD
ENDBRANCH   8  23
BRANCH   1  25
HETATM   25  C   UNL     1      27.445  46.128  55.185  1.00  0.00     0.034 C 
HETATM   26  C   UNL     1      28.754  46.139  55.961  1.00  0.00     0.010 C 
ENDBRANCH   1  25
TORSDOF 3
ENDMDL
MODEL 7
REMARK VINA RESULT:      -7.5      1.810      5.226
REMARK  3 active torsions:
REMARK  status: ('A' for Active; 'I' for Inactive)
REMARK    1  A    between atoms: C_2  and  C_3 
REMARK    2  A    between atoms: C_10  and  C_12 
REMARK    3  A    between atoms: C_10  and  O_11 
ROOT
HETATM    1  C   UNL     1      27.641  47.670  39.954  1.00  0.00    -0.058 A 
HETATM    2  C   UNL     1      28.719  48.565  39.847  1.00  0.00     0.020 A 
HETATM    3  C   UNL     1      28.500  49.803  39.262  1.00  0.00     0.018 A 
HETATM    4  C   UNL     1      27.237  50.136  38.770  1.00  0.00     0.045 A 
HETATM    5  N   UNL     1      27.245  51.418  38.243  1.00  0.00    -0.323 N 
HETATM    6  C   UNL     1      28.502  52.015  38.366  1.00  0.00     0.266 A 
HETATM    7  O   UNL     1      28.768  53.141  37.971  1.00  0.00    -0.269 OA
HETATM    8  C   UNL     1      29.458  50.948  39.012  1.00  0.00     0.199 A 
HETATM    9  C   UNL     1      26.160  49.280  38.851  1.00  0.00     0.031 A 
HETATM   10  C   UNL     1      26.370  48.038  39.456  1.00  0.00     0.009 A 
HETATM   11  H   UNL     1      26.454  51.903  37.845  1.00  0.00     0.169 HD
ENDROOT
BRANCH   8  12
HETATM   12  C   UNL     1      30.021  51.384  40.348  1.00  0.00     0.025 A 
HETATM   13  C   UNL     1      31.322  51.071  40.906  1.00  0.00     0.003 A 
HETATM   14  C   UNL     1      31.412  51.696  42.149  1.00  0.00     0.043 A 
HETATM   15  C   UNL     1      32.440  50.324  40.470  1.00  0.00     0.014 A 
HETATM   16  C   UNL     1      32.549  51.624  42.965  1.00  0.00     0.030 A 
HETATM   17  N   UNL     1      30.222  52.340  42.365  1.00  0.00    -0.359 N 
HETATM   18  C   UNL     1      33.639  50.885  42.501  1.00  0.00     0.002 A 
HETATM   19  C   UNL     1      33.587  50.241  41.270  1.00  0.00     0.001 A 
HETATM   20  H   UNL     1      30.006  52.865  43.201  1.00  0.00     0.166 HD
HETATM   21  C   UNL     1      29.373  52.164  41.306  1.00  0.00     0.016 A 
HETATM   22  C   UNL     1      28.009  52.760  41.324  1.00  0.00     0.069 C 
ENDBRANCH   8  12
BRANCH   8  23
HETATM   23  O   UNL     1      30.447  50.510  38.083  1.00  0.00    -0.371 OA
HETATM   24  H   UNL     1      31.066  49.951  38.581  1.00  0.00     0.212 HD
ENDBRANCH   8  23
BRANCH   1  25
HETATM   25  C   UNL     1      27.833  46.340  40.638  1.00  0.00     0.034 C 
HETATM   26  C   UNL     1      28.521  45.332  39.729  1.00  0.00     0.010 C 
ENDBRANCH   1  25
TORSDOF 3
ENDMDL
MODEL 8
REMARK VINA RESULT:      -7.3     25.751     26.918
REMARK  3 active torsions:
REMARK  status: ('A' for Active; 'I' for Inactive)
REMARK    1  A    between atoms: C_2  and  C_3 
REMARK    2  A    between atoms: C_10  and  C_12 
REMARK    3  A    between atoms: C_10  and  O_11 
ROOT
HETATM    1  C   UNL     1      35.834  44.194  65.543  1.00  0.00    -0.058 A 
HETATM    2  C   UNL     1      36.893  43.656  64.794  1.00  0.00     0.020 A 
HETATM    3  C   UNL     1      38.012  44.443  64.566  1.00  0.00     0.018 A 
HETATM    4  C   UNL     1      38.066  45.750  65.052  1.00  0.00     0.045 A 
HETATM    5  N   UNL     1      39.274  46.343  64.719  1.00  0.00    -0.323 N 
HETATM    6  C   UNL     1      40.097  45.464  64.008  1.00  0.00     0.266 A 
HETATM    7  O   UNL     1      41.210  45.751  63.594  1.00  0.00    -0.269 OA
HETATM    8  C   UNL     1      39.283  44.135  63.802  1.00  0.00     0.199 A 
HETATM    9  C   UNL     1      37.042  46.312  65.783  1.00  0.00     0.031 A 
HETATM   10  C   UNL     1      35.919  45.517  66.032  1.00  0.00     0.009 A 
HETATM   11  H   UNL     1      39.570  47.274  64.970  1.00  0.00     0.169 HD
ENDROOT
BRANCH   8  12
HETATM   12  C   UNL     1      39.935  42.932  64.449  1.00  0.00     0.025 A 
HETATM   13  C   UNL     1      39.925  41.560  63.981  1.00  0.00     0.003 A 
HETATM   14  C   UNL     1      40.664  40.797  64.885  1.00  0.00     0.043 A 
HETATM   15  C   UNL     1      39.366  40.890  62.868  1.00  0.00     0.014 A 
HETATM   16  C   UNL     1      40.881  39.421  64.732  1.00  0.00     0.030 A 
HETATM   17  N   UNL     1      41.088  41.643  65.875  1.00  0.00    -0.359 N 
HETATM   18  C   UNL     1      40.323  38.793  63.618  1.00  0.00     0.002 A 
HETATM   19  C   UNL     1      39.573  39.515  62.697  1.00  0.00     0.001 A 
HETATM   20  H   UNL     1      41.635  41.352  66.674  1.00  0.00     0.166 HD
HETATM   21  C   UNL     1      40.661  42.923  65.641  1.00  0.00     0.016 A 
HETATM   22  C   UNL     1      40.988  44.016  66.597  1.00  0.00     0.069 C 
ENDBRANCH   8  12
BRANCH   8  23
HETATM   23  O   UNL     1      38.946  43.942  62.430  1.00  0.00    -0.371 OA
HETATM   24  H   UNL     1      38.712  44.816  62.077  1.00  0.00     0.212 HD
ENDBRANCH   8  23
BRANCH   1  25
HETATM   25  C   UNL     1      34.628  43.343  65.859  1.00  0.00     0.034 C 
HETATM   26  C   UNL     1      34.855  41.885  65.490  1.00  0.00     0.010 C 
ENDBRANCH   1  25
TORSDOF 3
ENDMDL
MODEL 9
REMARK VINA RESULT:      -7.1      1.920      5.747
REMARK  3 active torsions:
REMARK  status: ('A' for Active; 'I' for Inactive)
REMARK    1  A    between atoms: C_2  and  C_3 
REMARK    2  A    between atoms: C_10  and  C_12 
REMARK    3  A    between atoms: C_10  and  O_11 
ROOT
HETATM    1  C   UNL     1      29.784  48.326  40.408  1.00  0.00    -0.058 A 
HETATM    2  C   UNL     1      30.850  49.203  40.150  1.00  0.00     0.020 A 
HETATM    3  C   UNL     1      30.735  50.525  40.553  1.00  0.00     0.018 A 
HETATM    4  C   UNL     1      29.571  50.973  41.179  1.00  0.00     0.045 A 
HETATM    5  N   UNL     1      29.680  52.316  41.504  1.00  0.00    -0.323 N 
HETATM    6  C   UNL     1      30.923  52.834  41.129  1.00  0.00     0.266 A 
HETATM    7  O   UNL     1      31.261  53.996  41.300  1.00  0.00    -0.269 OA
HETATM    8  C   UNL     1      31.706  51.678  40.408  1.00  0.00     0.199 A 
HETATM    9  C   UNL     1      28.503  50.142  41.440  1.00  0.00     0.031 A 
HETATM   10  C   UNL     1      28.620  48.804  41.052  1.00  0.00     0.009 A 
HETATM   11  H   UNL     1      28.986  52.872  41.981  1.00  0.00     0.169 HD
ENDROOT
BRANCH   8  12
HETATM   12  C   UNL     1      32.990  51.298  41.114  1.00  0.00     0.025 A 
HETATM   13  C   UNL     1      34.328  51.251  40.557  1.00  0.00     0.003 A 
HETATM   14  C   UNL     1      35.198  50.862  41.576  1.00  0.00     0.043 A 
HETATM   15  C   UNL     1      34.888  51.510  39.285  1.00  0.00     0.014 A 
HETATM   16  C   UNL     1      36.582  50.732  41.396  1.00  0.00     0.030 A 
HETATM   17  N   UNL     1      34.440  50.653  42.698  1.00  0.00    -0.359 N 
HETATM   18  C   UNL     1      37.103  51.004  40.130  1.00  0.00     0.002 A 
HETATM   19  C   UNL     1      36.269  51.386  39.086  1.00  0.00     0.001 A 
HETATM   20  H   UNL     1      34.814  50.348  43.585  1.00  0.00     0.166 HD
HETATM   21  C   UNL     1      33.117  50.902  42.446  1.00  0.00     0.016 A 
HETATM   22  C   UNL     1      32.098  50.724  43.516  1.00  0.00     0.069 C 
ENDBRANCH   8  12
BRANCH   8  23
HETATM   23  O   UNL     1      31.871  51.952  39.018  1.00  0.00    -0.371 OA
HETATM   24  H   UNL     1      32.794  51.744  38.802  1.00  0.00     0.212 HD
ENDBRANCH   8  23
BRANCH   1  25
HETATM   25  C   UNL     1      29.901  46.869  40.036  1.00  0.00     0.034 C 
HETATM   26  C   UNL     1      28.546  46.176  40.035  1.00  0.00     0.010 C 
ENDBRANCH   1  25
TORSDOF 3
ENDMDL
MODEL 10
REMARK VINA RESULT:      -7.1     10.767     13.251
REMARK  3 active torsions:
REMARK  status: ('A' for Active; 'I' for Inactive)
REMARK    1  A    between atoms: C_2  and  C_3 
REMARK    2  A    between atoms: C_10  and  C_12 
REMARK    3  A    between atoms: C_10  and  O_11 
ROOT
HETATM    1  C   UNL     1      23.298  50.145  48.369  1.00  0.00    -0.058 A 
HETATM    2  C   UNL     1      22.444  49.064  48.095  1.00  0.00     0.020 A 
HETATM    3  C   UNL     1      21.253  48.962  48.798  1.00  0.00     0.018 A 
HETATM    4  C   UNL     1      20.928  49.905  49.775  1.00  0.00     0.045 A 
HETATM    5  N   UNL     1      19.695  49.616  50.338  1.00  0.00    -0.323 N 
HETATM    6  C   UNL     1      19.123  48.479  49.761  1.00  0.00     0.266 A 
HETATM    7  O   UNL     1      18.041  48.014  50.089  1.00  0.00    -0.269 OA
HETATM    8  C   UNL     1      20.158  47.919  48.719  1.00  0.00     0.199 A 
HETATM    9  C   UNL     1      21.746  50.973  50.075  1.00  0.00     0.031 A 
HETATM   10  C   UNL     1      22.939  51.091  49.357  1.00  0.00     0.009 A 
HETATM   11  H   UNL     1      19.224  50.155  51.049  1.00  0.00     0.169 HD
ENDROOT
BRANCH   8  12
HETATM   12  C   UNL     1      19.628  47.909  47.301  1.00  0.00     0.025 A 
HETATM   13  C   UNL     1      19.049  49.014  46.563  1.00  0.00     0.003 A 
HETATM   14  C   UNL     1      18.716  48.547  45.291  1.00  0.00     0.043 A 
HETATM   15  C   UNL     1      18.783  50.373  46.848  1.00  0.00     0.014 A 
HETATM   16  C   UNL     1      18.148  49.358  44.299  1.00  0.00     0.030 A 
HETATM   17  N   UNL     1      19.044  47.218  45.250  1.00  0.00    -0.359 N 
HETATM   18  C   UNL     1      17.907  50.697  44.611  1.00  0.00     0.002 A 
HETATM   19  C   UNL     1      18.217  51.200  45.869  1.00  0.00     0.001 A 
HETATM   20  H   UNL     1      18.895  46.622  44.447  1.00  0.00     0.166 HD
HETATM   21  C   UNL     1      19.587  46.811  46.440  1.00  0.00     0.016 A 
HETATM   22  C   UNL     1      20.005  45.397  46.636  1.00  0.00     0.069 C 
ENDBRANCH   8  12
BRANCH   8  23
HETATM   23  O   UNL     1      20.698  46.670  49.144  1.00  0.00    -0.371 OA
HETATM   24  H   UNL     1      21.570  46.861  49.526  1.00  0.00     0.212 HD
ENDBRANCH   8  23
BRANCH   1  25
HETATM   25  C   UNL     1      24.572  50.317  47.580  1.00  0.00     0.034 C 
HETATM   26  C   UNL     1      25.782  49.797  48.343  1.00  0.00     0.010 C 
ENDBRANCH   1  25
TORSDOF 3
ENDMDL
