MODEL 1
REMARK VINA RESULT:      -8.2      0.000      0.000
REMARK  9 active torsions:
REMARK  status: ('A' for Active; 'I' for Inactive)
REMARK    1  A    between atoms: C_2  and  C_3 
REMARK    2  A    between atoms: C_3  and  N_4 
REMARK    3  A    between atoms: N_4  and  C_7 
REMARK    4  A    between atoms: C_7  and  C_8 
REMARK       I    between atoms: C_8  and  N_9 
REMARK    5  A    between atoms: N_9  and  C_10 
REMARK    6  A    between atoms: C_16  and  C_17 
REMARK    7  A    between atoms: C_22  and  C_23 
REMARK       I    between atoms: C_23  and  N_24 
REMARK    8  A    between atoms: N_24  and  C_25 
REMARK    9  A    between atoms: C_28  and  O_29 
ROOT
HETATM    1  C   UNL     1      24.004  44.724  48.967  1.00  0.00     0.093 A 
HETATM    2  S   UNL     1      22.699  44.617  47.899  1.00  0.00    -0.075 SA
HETATM    3  C   UNL     1      22.261  46.232  48.176  1.00  0.00    -0.008 A 
HETATM    4  C   UNL     1      23.125  46.885  49.040  1.00  0.00    -0.026 A 
HETATM    5  C   UNL     1      22.884  48.326  49.395  1.00  0.00     0.041 C 
HETATM    6  C   UNL     1      21.449  48.779  49.086  1.00  0.00     0.010 C 
HETATM    7  C   UNL     1      20.993  48.355  47.664  1.00  0.00    -0.002 C 
HETATM    8  C   UNL     1      21.017  46.807  47.560  1.00  0.00     0.052 C 
HETATM    9  C   UNL     1      24.176  45.997  49.507  1.00  0.00     0.073 A 
ENDROOT
BRANCH   1  10
HETATM   10  N   UNL     1      24.768  43.609  49.283  1.00  0.00    -0.319 N 
HETATM   11  C   UNL     1      24.785  42.917  50.470  1.00  0.00     0.248 C 
HETATM   12  O   UNL     1      24.062  43.059  51.454  1.00  0.00    -0.271 OA
HETATM   13  H   UNL     1      25.308  43.264  48.484  1.00  0.00     0.169 HD
BRANCH  11  14
HETATM   14  C   UNL     1      25.794  41.769  50.493  1.00  0.00     0.335 C 
BRANCH  14  15
HETATM   15  N   UNL     1      26.663  41.870  51.728  1.00  0.00    -0.067 N 
HETATM   16  H   UNL     1      26.640  40.923  52.149  1.00  0.00     0.277 HD
HETATM   17  H   UNL     1      26.243  42.512  52.410  1.00  0.00     0.277 HD
BRANCH  15  18
HETATM   18  C   UNL     1      28.084  42.236  51.447  1.00  0.00     0.236 C 
BRANCH  18  19
HETATM   19  C   UNL     1      28.996  41.785  52.592  1.00  0.00     0.003 C 
HETATM   20  C   UNL     1      28.146  41.465  53.823  1.00  0.00     0.011 C 
HETATM   21  C   UNL     1      30.050  42.834  52.949  1.00  0.00     0.011 C 
ENDBRANCH  18  19
ENDBRANCH  15  18
ENDBRANCH  14  15
ENDBRANCH  11  14
ENDBRANCH   1  10
BRANCH   9  22
HETATM   22  C   UNL     1      25.297  46.247  50.444  1.00  0.00     0.259 C 
HETATM   23  N   UNL     1      24.984  46.197  51.786  1.00  0.00    -0.323 N 
HETATM   24  H   UNL     1      24.007  46.133  52.027  1.00  0.00     0.169 HD
HETATM   25  O   UNL     1      26.401  46.548  49.988  1.00  0.00    -0.267 OA
BRANCH  23  26
HETATM   26  C   UNL     1      25.873  46.290  52.878  1.00  0.00     0.035 A 
HETATM   27  C   UNL     1      26.075  47.451  53.626  1.00  0.00     0.032 A 
HETATM   28  C   UNL     1      26.996  47.463  54.678  1.00  0.00     0.039 A 
HETATM   29  C   UNL     1      27.739  46.325  54.994  1.00  0.00     0.068 A 
HETATM   30  C   UNL     1      27.539  45.162  54.255  1.00  0.00     0.039 A 
HETATM   31  C   UNL     1      26.611  45.146  53.205  1.00  0.00     0.032 A 
BRANCH  29  32
HETATM   32  O   UNL     1      28.610  46.481  56.035  1.00  0.00    -0.356 OA
HETATM   33  C   UNL     1      29.785  45.679  56.019  1.00  0.00     0.210 C 
ENDBRANCH  29  32
ENDBRANCH  23  26
ENDBRANCH   9  22
BRANCH   7  34
HETATM   34  C   UNL     1      19.617  48.990  47.234  1.00  0.00    -0.047 C 
HETATM   35  C   UNL     1      19.031  48.201  46.043  1.00  0.00     0.015 C 
HETATM   36  C   UNL     1      18.589  48.914  48.383  1.00  0.00     0.015 C 
HETATM   37  C   UNL     1      19.755  50.466  46.811  1.00  0.00     0.015 C 
ENDBRANCH   7  34
TORSDOF 9
ENDMDL
MODEL 2
REMARK VINA RESULT:      -8.1      3.016      8.435
REMARK  9 active torsions:
REMARK  status: ('A' for Active; 'I' for Inactive)
REMARK    1  A    between atoms: C_2  and  C_3 
REMARK    2  A    between atoms: C_3  and  N_4 
REMARK    3  A    between atoms: N_4  and  C_7 
REMARK    4  A    between atoms: C_7  and  C_8 
REMARK       I    between atoms: C_8  and  N_9 
REMARK    5  A    between atoms: N_9  and  C_10 
REMARK    6  A    between atoms: C_16  and  C_17 
REMARK    7  A    between atoms: C_22  and  C_23 
REMARK       I    between atoms: C_23  and  N_24 
REMARK    8  A    between atoms: N_24  and  C_25 
REMARK    9  A    between atoms: C_28  and  O_29 
ROOT
HETATM    1  C   UNL     1      27.670  43.573  52.376  1.00  0.00     0.093 A 
HETATM    2  S   UNL     1      28.935  42.455  52.436  1.00  0.00    -0.075 SA
HETATM    3  C   UNL     1      28.147  41.415  51.353  1.00  0.00    -0.008 A 
HETATM    4  C   UNL     1      26.944  41.923  50.894  1.00  0.00    -0.026 A 
HETATM    5  C   UNL     1      26.114  41.128  49.925  1.00  0.00     0.041 C 
HETATM    6  C   UNL     1      26.506  39.643  49.889  1.00  0.00     0.010 C 
HETATM    7  C   UNL     1      28.041  39.443  49.778  1.00  0.00    -0.002 C 
HETATM    8  C   UNL     1      28.730  40.070  51.020  1.00  0.00     0.052 C 
HETATM    9  C   UNL     1      26.655  43.217  51.489  1.00  0.00     0.073 A 
ENDROOT
BRANCH   1  10
HETATM   10  N   UNL     1      27.663  44.697  53.191  1.00  0.00    -0.319 N 
HETATM   11  C   UNL     1      27.034  44.847  54.403  1.00  0.00     0.248 C 
HETATM   12  O   UNL     1      26.445  44.001  55.074  1.00  0.00    -0.271 OA
HETATM   13  H   UNL     1      28.268  45.443  52.835  1.00  0.00     0.169 HD
BRANCH  11  14
HETATM   14  C   UNL     1      27.188  46.244  55.003  1.00  0.00     0.335 C 
BRANCH  14  15
HETATM   15  N   UNL     1      28.637  46.498  55.358  1.00  0.00    -0.067 N 
HETATM   16  H   UNL     1      28.753  47.525  55.289  1.00  0.00     0.277 HD
HETATM   17  H   UNL     1      29.256  46.077  54.655  1.00  0.00     0.277 HD
BRANCH  15  18
HETATM   18  C   UNL     1      29.012  46.063  56.737  1.00  0.00     0.236 C 
BRANCH  18  19
HETATM   19  C   UNL     1      30.413  45.440  56.746  1.00  0.00     0.003 C 
HETATM   20  C   UNL     1      30.452  44.267  55.763  1.00  0.00     0.011 C 
HETATM   21  C   UNL     1      30.832  44.963  58.137  1.00  0.00     0.011 C 
ENDBRANCH  18  19
ENDBRANCH  15  18
ENDBRANCH  14  15
ENDBRANCH  11  14
ENDBRANCH   1  10
BRANCH   9  22
HETATM   22  C   UNL     1      25.490  44.115  51.314  1.00  0.00     0.259 C 
HETATM   23  N   UNL     1      25.557  44.990  50.250  1.00  0.00    -0.323 N 
HETATM   24  H   UNL     1      26.437  45.050  49.760  1.00  0.00     0.169 HD
HETATM   25  O   UNL     1      24.581  44.085  52.145  1.00  0.00    -0.267 OA
BRANCH  23  26
HETATM   26  C   UNL     1      24.551  45.869  49.797  1.00  0.00     0.035 A 
HETATM   27  C   UNL     1      23.421  45.467  49.085  1.00  0.00     0.032 A 
HETATM   28  C   UNL     1      22.485  46.410  48.649  1.00  0.00     0.039 A 
HETATM   29  C   UNL     1      22.666  47.770  48.904  1.00  0.00     0.068 A 
HETATM   30  C   UNL     1      23.789  48.180  49.619  1.00  0.00     0.039 A 
HETATM   31  C   UNL     1      24.725  47.234  50.062  1.00  0.00     0.032 A 
BRANCH  29  32
HETATM   32  O   UNL     1      21.683  48.580  48.412  1.00  0.00    -0.356 OA
HETATM   33  C   UNL     1      20.341  48.139  48.579  1.00  0.00     0.210 C 
ENDBRANCH  29  32
ENDBRANCH  23  26
ENDBRANCH   9  22
BRANCH   7  34
HETATM   34  C   UNL     1      28.459  37.947  49.519  1.00  0.00    -0.047 C 
HETATM   35  C   UNL     1      29.559  37.533  50.522  1.00  0.00     0.015 C 
HETATM   36  C   UNL     1      27.264  36.993  49.734  1.00  0.00     0.015 C 
HETATM   37  C   UNL     1      29.000  37.723  48.093  1.00  0.00     0.015 C 
ENDBRANCH   7  34
TORSDOF 9
ENDMDL
MODEL 3
REMARK VINA RESULT:      -7.9      2.552      7.867
REMARK  9 active torsions:
REMARK  status: ('A' for Active; 'I' for Inactive)
REMARK    1  A    between atoms: C_2  and  C_3 
REMARK    2  A    between atoms: C_3  and  N_4 
REMARK    3  A    between atoms: N_4  and  C_7 
REMARK    4  A    between atoms: C_7  and  C_8 
REMARK       I    between atoms: C_8  and  N_9 
REMARK    5  A    between atoms: N_9  and  C_10 
REMARK    6  A    between atoms: C_16  and  C_17 
REMARK    7  A    between atoms: C_22  and  C_23 
REMARK       I    between atoms: C_23  and  N_24 
REMARK    8  A    between atoms: N_24  and  C_25 
REMARK    9  A    between atoms: C_28  and  O_29 
ROOT
HETATM    1  C   UNL     1      25.529  43.712  50.432  1.00  0.00     0.093 A 
HETATM    2  S   UNL     1      25.215  42.867  49.003  1.00  0.00    -0.075 SA
HETATM    3  C   UNL     1      26.250  41.601  49.453  1.00  0.00    -0.008 A 
HETATM    4  C   UNL     1      26.805  41.778  50.709  1.00  0.00    -0.026 A 
HETATM    5  C   UNL     1      27.748  40.747  51.265  1.00  0.00     0.041 C 
HETATM    6  C   UNL     1      28.318  39.821  50.180  1.00  0.00     0.010 C 
HETATM    7  C   UNL     1      27.216  39.278  49.232  1.00  0.00    -0.002 C 
HETATM    8  C   UNL     1      26.532  40.468  48.507  1.00  0.00     0.052 C 
HETATM    9  C   UNL     1      26.370  43.029  51.308  1.00  0.00     0.073 A 
ENDROOT
BRANCH   1  10
HETATM   10  N   UNL     1      25.015  44.984  50.643  1.00  0.00    -0.319 N 
HETATM   11  C   UNL     1      25.503  46.173  50.157  1.00  0.00     0.248 C 
HETATM   12  O   UNL     1      26.415  46.360  49.353  1.00  0.00    -0.271 OA
HETATM   13  H   UNL     1      24.135  44.971  51.167  1.00  0.00     0.169 HD
BRANCH  11  14
HETATM   14  C   UNL     1      24.722  47.396  50.637  1.00  0.00     0.335 C 
BRANCH  14  15
HETATM   15  N   UNL     1      23.437  47.531  49.849  1.00  0.00    -0.067 N 
HETATM   16  H   UNL     1      22.727  47.825  50.545  1.00  0.00     0.277 HD
HETATM   17  H   UNL     1      23.143  46.617  49.487  1.00  0.00     0.277 HD
BRANCH  15  18
HETATM   18  C   UNL     1      23.494  48.550  48.759  1.00  0.00     0.236 C 
BRANCH  18  19
HETATM   19  C   UNL     1      22.678  49.792  49.135  1.00  0.00     0.003 C 
HETATM   20  C   UNL     1      21.195  49.423  49.204  1.00  0.00     0.011 C 
HETATM   21  C   UNL     1      22.880  50.945  48.151  1.00  0.00     0.011 C 
ENDBRANCH  18  19
ENDBRANCH  15  18
ENDBRANCH  14  15
ENDBRANCH  11  14
ENDBRANCH   1  10
BRANCH   9  22
HETATM   22  C   UNL     1      26.715  43.638  52.613  1.00  0.00     0.259 C 
HETATM   23  N   UNL     1      28.054  43.645  52.941  1.00  0.00    -0.323 N 
HETATM   24  H   UNL     1      28.676  43.122  52.344  1.00  0.00     0.169 HD
HETATM   25  O   UNL     1      25.808  44.030  53.349  1.00  0.00    -0.267 OA
BRANCH  23  26
HETATM   26  C   UNL     1      28.661  44.252  54.062  1.00  0.00     0.035 A 
HETATM   27  C   UNL     1      28.242  45.459  54.622  1.00  0.00     0.032 A 
HETATM   28  C   UNL     1      28.918  46.003  55.718  1.00  0.00     0.039 A 
HETATM   29  C   UNL     1      30.029  45.362  56.266  1.00  0.00     0.068 A 
HETATM   30  C   UNL     1      30.451  44.154  55.715  1.00  0.00     0.039 A 
HETATM   31  C   UNL     1      29.770  43.604  54.620  1.00  0.00     0.032 A 
BRANCH  29  32
HETATM   32  O   UNL     1      30.600  46.010  57.324  1.00  0.00    -0.356 OA
HETATM   33  C   UNL     1      30.816  45.249  58.506  1.00  0.00     0.210 C 
ENDBRANCH  29  32
ENDBRANCH  23  26
ENDBRANCH   9  22
BRANCH   7  34
HETATM   34  C   UNL     1      27.731  38.159  48.251  1.00  0.00    -0.047 C 
HETATM   35  C   UNL     1      26.990  36.834  48.538  1.00  0.00     0.015 C 
HETATM   36  C   UNL     1      27.442  38.535  46.782  1.00  0.00     0.015 C 
HETATM   37  C   UNL     1      29.245  37.902  48.391  1.00  0.00     0.015 C 
ENDBRANCH   7  34
TORSDOF 9
ENDMDL
MODEL 4
REMARK VINA RESULT:      -7.9      2.746      8.545
REMARK  9 active torsions:
REMARK  status: ('A' for Active; 'I' for Inactive)
REMARK    1  A    between atoms: C_2  and  C_3 
REMARK    2  A    between atoms: C_3  and  N_4 
REMARK    3  A    between atoms: N_4  and  C_7 
REMARK    4  A    between atoms: C_7  and  C_8 
REMARK       I    between atoms: C_8  and  N_9 
REMARK    5  A    between atoms: N_9  and  C_10 
REMARK    6  A    between atoms: C_16  and  C_17 
REMARK    7  A    between atoms: C_22  and  C_23 
REMARK       I    between atoms: C_23  and  N_24 
REMARK    8  A    between atoms: N_24  and  C_25 
REMARK    9  A    between atoms: C_28  and  O_29 
ROOT
HETATM    1  C   UNL     1      26.938  42.397  52.167  1.00  0.00     0.093 A 
HETATM    2  S   UNL     1      28.258  41.658  52.919  1.00  0.00    -0.075 SA
HETATM    3  C   UNL     1      28.518  43.003  53.919  1.00  0.00    -0.008 A 
HETATM    4  C   UNL     1      27.580  44.005  53.731  1.00  0.00    -0.026 A 
HETATM    5  C   UNL     1      27.663  45.270  54.538  1.00  0.00     0.041 C 
HETATM    6  C   UNL     1      29.044  45.475  55.178  1.00  0.00     0.010 C 
HETATM    7  C   UNL     1      29.558  44.194  55.888  1.00  0.00    -0.002 C 
HETATM    8  C   UNL     1      29.700  43.053  54.845  1.00  0.00     0.052 C 
HETATM    9  C   UNL     1      26.625  43.647  52.696  1.00  0.00     0.073 A 
ENDROOT
BRANCH   1  10
HETATM   10  N   UNL     1      26.294  41.797  51.093  1.00  0.00    -0.319 N 
HETATM   11  C   UNL     1      26.371  42.152  49.768  1.00  0.00     0.248 C 
HETATM   12  O   UNL     1      27.100  42.988  49.237  1.00  0.00    -0.271 OA
HETATM   13  H   UNL     1      25.772  40.959  51.366  1.00  0.00     0.169 HD
BRANCH  11  14
HETATM   14  C   UNL     1      25.480  41.309  48.856  1.00  0.00     0.335 C 
BRANCH  14  15
HETATM   15  N   UNL     1      25.695  39.838  49.140  1.00  0.00    -0.067 N 
HETATM   16  H   UNL     1      24.867  39.364  48.735  1.00  0.00     0.277 HD
HETATM   17  H   UNL     1      25.677  39.663  50.152  1.00  0.00     0.277 HD
BRANCH  15  18
HETATM   18  C   UNL     1      26.927  39.270  48.516  1.00  0.00     0.236 C 
BRANCH  18  19
HETATM   19  C   UNL     1      27.670  38.368  49.508  1.00  0.00     0.003 C 
HETATM   20  C   UNL     1      29.134  38.243  49.082  1.00  0.00     0.011 C 
HETATM   21  C   UNL     1      27.042  36.977  49.618  1.00  0.00     0.011 C 
ENDBRANCH  18  19
ENDBRANCH  15  18
ENDBRANCH  14  15
ENDBRANCH  11  14
ENDBRANCH   1  10
BRANCH   9  22
HETATM   22  C   UNL     1      25.475  44.404  52.150  1.00  0.00     0.259 C 
HETATM   23  N   UNL     1      25.744  45.213  51.066  1.00  0.00    -0.323 N 
HETATM   24  H   UNL     1      26.713  45.336  50.814  1.00  0.00     0.169 HD
HETATM   25  O   UNL     1      24.385  44.329  52.719  1.00  0.00    -0.267 OA
BRANCH  23  26
HETATM   26  C   UNL     1      24.821  45.951  50.295  1.00  0.00     0.035 A 
HETATM   27  C   UNL     1      24.671  47.336  50.367  1.00  0.00     0.032 A 
HETATM   28  C   UNL     1      23.711  47.986  49.584  1.00  0.00     0.039 A 
HETATM   29  C   UNL     1      22.878  47.266  48.728  1.00  0.00     0.068 A 
HETATM   30  C   UNL     1      23.025  45.884  48.647  1.00  0.00     0.039 A 
HETATM   31  C   UNL     1      23.991  45.232  49.426  1.00  0.00     0.032 A 
BRANCH  29  32
HETATM   32  O   UNL     1      21.979  48.025  48.033  1.00  0.00    -0.356 OA
HETATM   33  C   UNL     1      21.019  48.747  48.796  1.00  0.00     0.210 C 
ENDBRANCH  29  32
ENDBRANCH  23  26
ENDBRANCH   9  22
BRANCH   7  34
HETATM   34  C   UNL     1      30.863  44.431  56.738  1.00  0.00    -0.047 C 
HETATM   35  C   UNL     1      31.527  43.074  57.060  1.00  0.00     0.015 C 
HETATM   36  C   UNL     1      31.893  45.268  55.949  1.00  0.00     0.015 C 
HETATM   37  C   UNL     1      30.576  45.154  58.069  1.00  0.00     0.015 C 
ENDBRANCH   7  34
TORSDOF 9
ENDMDL
MODEL 5
REMARK VINA RESULT:      -7.7      2.693      9.668
REMARK  9 active torsions:
REMARK  status: ('A' for Active; 'I' for Inactive)
REMARK    1  A    between atoms: C_2  and  C_3 
REMARK    2  A    between atoms: C_3  and  N_4 
REMARK    3  A    between atoms: N_4  and  C_7 
REMARK    4  A    between atoms: C_7  and  C_8 
REMARK       I    between atoms: C_8  and  N_9 
REMARK    5  A    between atoms: N_9  and  C_10 
REMARK    6  A    between atoms: C_16  and  C_17 
REMARK    7  A    between atoms: C_22  and  C_23 
REMARK       I    between atoms: C_23  and  N_24 
REMARK    8  A    between atoms: N_24  and  C_25 
REMARK    9  A    between atoms: C_28  and  O_29 
ROOT
HETATM    1  C   UNL     1      26.444  45.614  52.456  1.00  0.00     0.093 A 
HETATM    2  S   UNL     1      26.612  46.555  53.850  1.00  0.00    -0.075 SA
HETATM    3  C   UNL     1      27.895  45.599  54.413  1.00  0.00    -0.008 A 
HETATM    4  C   UNL     1      28.243  44.589  53.531  1.00  0.00    -0.026 A 
HETATM    5  C   UNL     1      29.364  43.647  53.875  1.00  0.00     0.041 C 
HETATM    6  C   UNL     1      29.708  43.657  55.372  1.00  0.00     0.010 C 
HETATM    7  C   UNL     1      29.849  45.098  55.932  1.00  0.00    -0.002 C 
HETATM    8  C   UNL     1      28.500  45.846  55.766  1.00  0.00     0.052 C 
HETATM    9  C   UNL     1      27.392  44.598  52.354  1.00  0.00     0.073 A 
ENDROOT
BRANCH   1  10
HETATM   10  N   UNL     1      25.410  45.840  51.557  1.00  0.00    -0.319 N 
HETATM   11  C   UNL     1      25.223  46.942  50.759  1.00  0.00     0.248 C 
HETATM   12  O   UNL     1      25.971  47.902  50.584  1.00  0.00    -0.271 OA
HETATM   13  H   UNL     1      24.786  45.033  51.466  1.00  0.00     0.169 HD
BRANCH  11  14
HETATM   14  C   UNL     1      23.941  46.885  49.928  1.00  0.00     0.335 C 
BRANCH  14  15
HETATM   15  N   UNL     1      23.302  48.255  49.869  1.00  0.00    -0.067 N 
HETATM   16  H   UNL     1      24.096  48.918  49.801  1.00  0.00     0.277 HD
HETATM   17  H   UNL     1      22.814  48.460  50.748  1.00  0.00     0.277 HD
BRANCH  15  18
HETATM   18  C   UNL     1      22.403  48.459  48.693  1.00  0.00     0.236 C 
BRANCH  18  19
HETATM   19  C   UNL     1      22.742  49.769  47.973  1.00  0.00     0.003 C 
HETATM   20  C   UNL     1      24.218  50.105  48.198  1.00  0.00     0.011 C 
HETATM   21  C   UNL     1      21.869  50.935  48.439  1.00  0.00     0.011 C 
ENDBRANCH  18  19
ENDBRANCH  15  18
ENDBRANCH  14  15
ENDBRANCH  11  14
ENDBRANCH   1  10
BRANCH   9  22
HETATM   22  C   UNL     1      27.381  43.706  51.171  1.00  0.00     0.259 C 
HETATM   23  N   UNL     1      27.298  42.356  51.434  1.00  0.00    -0.323 N 
HETATM   24  H   UNL     1      27.389  42.069  52.397  1.00  0.00     0.169 HD
HETATM   25  O   UNL     1      27.516  44.199  50.050  1.00  0.00    -0.267 OA
BRANCH  23  26
HETATM   26  C   UNL     1      27.165  41.306  50.500  1.00  0.00     0.035 A 
HETATM   27  C   UNL     1      28.143  40.340  50.262  1.00  0.00     0.032 A 
HETATM   28  C   UNL     1      27.939  39.348  49.297  1.00  0.00     0.039 A 
HETATM   29  C   UNL     1      26.763  39.309  48.547  1.00  0.00     0.068 A 
HETATM   30  C   UNL     1      25.779  40.266  48.783  1.00  0.00     0.039 A 
HETATM   31  C   UNL     1      25.980  41.257  49.754  1.00  0.00     0.032 A 
BRANCH  29  32
HETATM   32  O   UNL     1      26.701  38.296  47.633  1.00  0.00    -0.356 OA
HETATM   33  C   UNL     1      26.655  38.668  46.261  1.00  0.00     0.210 C 
ENDBRANCH  29  32
ENDBRANCH  23  26
ENDBRANCH   9  22
BRANCH   7  34
HETATM   34  C   UNL     1      30.414  45.144  57.401  1.00  0.00    -0.047 C 
HETATM   35  C   UNL     1      31.392  43.967  57.619  1.00  0.00     0.015 C 
HETATM   36  C   UNL     1      31.206  46.446  57.650  1.00  0.00     0.015 C 
HETATM   37  C   UNL     1      29.302  45.048  58.465  1.00  0.00     0.015 C 
ENDBRANCH   7  34
TORSDOF 9
ENDMDL
MODEL 6
REMARK VINA RESULT:      -7.6      1.651      2.230
REMARK  9 active torsions:
REMARK  status: ('A' for Active; 'I' for Inactive)
REMARK    1  A    between atoms: C_2  and  C_3 
REMARK    2  A    between atoms: C_3  and  N_4 
REMARK    3  A    between atoms: N_4  and  C_7 
REMARK    4  A    between atoms: C_7  and  C_8 
REMARK       I    between atoms: C_8  and  N_9 
REMARK    5  A    between atoms: N_9  and  C_10 
REMARK    6  A    between atoms: C_16  and  C_17 
REMARK    7  A    between atoms: C_22  and  C_23 
REMARK       I    between atoms: C_23  and  N_24 
REMARK    8  A    between atoms: N_24  and  C_25 
REMARK    9  A    between atoms: C_28  and  O_29 
ROOT
HETATM    1  C   UNL     1      23.147  45.807  48.507  1.00  0.00     0.093 A 
HETATM    2  S   UNL     1      21.761  46.033  47.568  1.00  0.00    -0.075 SA
HETATM    3  C   UNL     1      21.573  47.625  48.121  1.00  0.00    -0.008 A 
HETATM    4  C   UNL     1      22.583  48.020  48.982  1.00  0.00    -0.026 A 
HETATM    5  C   UNL     1      22.570  49.405  49.567  1.00  0.00     0.041 C 
HETATM    6  C   UNL     1      21.192  50.077  49.470  1.00  0.00     0.010 C 
HETATM    7  C   UNL     1      20.572  49.943  48.053  1.00  0.00    -0.002 C 
HETATM    8  C   UNL     1      20.375  48.440  47.721  1.00  0.00     0.052 C 
HETATM    9  C   UNL     1      23.535  46.946  49.209  1.00  0.00     0.073 A 
ENDROOT
BRANCH   1  10
HETATM   10  N   UNL     1      23.773  44.569  48.579  1.00  0.00    -0.319 N 
HETATM   11  C   UNL     1      23.717  43.664  49.611  1.00  0.00     0.248 C 
HETATM   12  O   UNL     1      23.025  43.697  50.626  1.00  0.00    -0.271 OA
HETATM   13  H   UNL     1      24.260  44.325  47.712  1.00  0.00     0.169 HD
BRANCH  11  14
HETATM   14  C   UNL     1      24.579  42.422  49.382  1.00  0.00     0.335 C 
BRANCH  14  15
HETATM   15  N   UNL     1      25.875  42.811  48.705  1.00  0.00    -0.067 N 
HETATM   16  H   UNL     1      25.963  43.831  48.862  1.00  0.00     0.277 HD
HETATM   17  H   UNL     1      25.806  42.667  47.691  1.00  0.00     0.277 HD
BRANCH  15  18
HETATM   18  C   UNL     1      27.083  42.133  49.265  1.00  0.00     0.236 C 
BRANCH  18  19
HETATM   19  C   UNL     1      27.351  40.813  48.533  1.00  0.00     0.003 C 
HETATM   20  C   UNL     1      28.559  40.118  49.165  1.00  0.00     0.011 C 
HETATM   21  C   UNL     1      27.592  41.012  47.036  1.00  0.00     0.011 C 
ENDBRANCH  18  19
ENDBRANCH  15  18
ENDBRANCH  14  15
ENDBRANCH  11  14
ENDBRANCH   1  10
BRANCH   9  22
HETATM   22  C   UNL     1      24.749  46.903  50.057  1.00  0.00     0.259 C 
HETATM   23  N   UNL     1      24.566  46.459  51.350  1.00  0.00    -0.323 N 
HETATM   24  H   UNL     1      23.615  46.329  51.660  1.00  0.00     0.169 HD
HETATM   25  O   UNL     1      25.813  47.322  49.600  1.00  0.00    -0.267 OA
BRANCH  23  26
HETATM   26  C   UNL     1      25.559  46.222  52.324  1.00  0.00     0.035 A 
HETATM   27  C   UNL     1      25.911  47.132  53.321  1.00  0.00     0.032 A 
HETATM   28  C   UNL     1      26.927  46.825  54.232  1.00  0.00     0.039 A 
HETATM   29  C   UNL     1      27.616  45.614  54.158  1.00  0.00     0.068 A 
HETATM   30  C   UNL     1      27.267  44.699  53.168  1.00  0.00     0.039 A 
HETATM   31  C   UNL     1      26.244  45.002  52.258  1.00  0.00     0.032 A 
BRANCH  29  32
HETATM   32  O   UNL     1      28.590  45.452  55.101  1.00  0.00    -0.356 OA
HETATM   33  C   UNL     1      28.487  46.244  56.278  1.00  0.00     0.210 C 
ENDBRANCH  29  32
ENDBRANCH  23  26
ENDBRANCH   9  22
BRANCH   7  34
HETATM   34  C   UNL     1      19.268  50.804  47.858  1.00  0.00    -0.047 C 
HETATM   35  C   UNL     1      18.874  50.819  46.365  1.00  0.00     0.015 C 
HETATM   36  C   UNL     1      18.082  50.196  48.637  1.00  0.00     0.015 C 
HETATM   37  C   UNL     1      19.449  52.263  48.323  1.00  0.00     0.015 C 
ENDBRANCH   7  34
TORSDOF 9
ENDMDL
MODEL 7
REMARK VINA RESULT:      -7.5      2.907      9.776
REMARK  9 active torsions:
REMARK  status: ('A' for Active; 'I' for Inactive)
REMARK    1  A    between atoms: C_2  and  C_3 
REMARK    2  A    between atoms: C_3  and  N_4 
REMARK    3  A    between atoms: N_4  and  C_7 
REMARK    4  A    between atoms: C_7  and  C_8 
REMARK       I    between atoms: C_8  and  N_9 
REMARK    5  A    between atoms: N_9  and  C_10 
REMARK    6  A    between atoms: C_16  and  C_17 
REMARK    7  A    between atoms: C_22  and  C_23 
REMARK       I    between atoms: C_23  and  N_24 
REMARK    8  A    between atoms: N_24  and  C_25 
REMARK    9  A    between atoms: C_28  and  O_29 
ROOT
HETATM    1  C   UNL     1      24.594  46.961  50.316  1.00  0.00     0.093 A 
HETATM    2  S   UNL     1      25.839  47.125  51.447  1.00  0.00    -0.075 SA
HETATM    3  C   UNL     1      26.162  45.460  51.422  1.00  0.00    -0.008 A 
HETATM    4  C   UNL     1      25.368  44.769  50.522  1.00  0.00    -0.026 A 
HETATM    5  C   UNL     1      25.525  43.281  50.373  1.00  0.00     0.041 C 
HETATM    6  C   UNL     1      26.262  42.641  51.559  1.00  0.00     0.010 C 
HETATM    7  C   UNL     1      27.554  43.416  51.934  1.00  0.00    -0.002 C 
HETATM    8  C   UNL     1      27.179  44.863  52.353  1.00  0.00     0.052 C 
HETATM    9  C   UNL     1      24.437  45.658  49.847  1.00  0.00     0.073 A 
ENDROOT
BRANCH   1  10
HETATM   10  N   UNL     1      23.798  48.041  49.960  1.00  0.00    -0.319 N 
HETATM   11  C   UNL     1      24.142  49.105  49.163  1.00  0.00     0.248 C 
HETATM   12  O   UNL     1      25.169  49.277  48.509  1.00  0.00    -0.271 OA
HETATM   13  H   UNL     1      22.836  47.948  50.300  1.00  0.00     0.169 HD
BRANCH  11  14
HETATM   14  C   UNL     1      23.034  50.151  49.028  1.00  0.00     0.335 C 
BRANCH  14  15
HETATM   15  N   UNL     1      21.728  49.589  49.545  1.00  0.00    -0.067 N 
HETATM   16  H   UNL     1      21.955  49.200  50.478  1.00  0.00     0.277 HD
HETATM   17  H   UNL     1      21.419  48.805  48.959  1.00  0.00     0.277 HD
BRANCH  15  18
HETATM   18  C   UNL     1      20.645  50.607  49.699  1.00  0.00     0.236 C 
BRANCH  18  19
HETATM   19  C   UNL     1      20.328  51.268  48.353  1.00  0.00     0.003 C 
HETATM   20  C   UNL     1      19.269  52.354  48.557  1.00  0.00     0.011 C 
HETATM   21  C   UNL     1      19.844  50.263  47.307  1.00  0.00     0.011 C 
ENDBRANCH  18  19
ENDBRANCH  15  18
ENDBRANCH  14  15
ENDBRANCH  11  14
ENDBRANCH   1  10
BRANCH   9  22
HETATM   22  C   UNL     1      23.398  45.367  48.832  1.00  0.00     0.259 C 
HETATM   23  N   UNL     1      22.155  45.915  49.067  1.00  0.00    -0.323 N 
HETATM   24  H   UNL     1      22.008  46.351  49.965  1.00  0.00     0.169 HD
HETATM   25  O   UNL     1      23.671  44.613  47.896  1.00  0.00    -0.267 OA
BRANCH  23  26
HETATM   26  C   UNL     1      21.029  45.885  48.217  1.00  0.00     0.035 A 
HETATM   27  C   UNL     1      19.908  45.082  48.431  1.00  0.00     0.032 A 
HETATM   28  C   UNL     1      18.845  45.094  47.522  1.00  0.00     0.039 A 
HETATM   29  C   UNL     1      18.886  45.895  46.381  1.00  0.00     0.068 A 
HETATM   30  C   UNL     1      20.000  46.702  46.163  1.00  0.00     0.039 A 
HETATM   31  C   UNL     1      21.064  46.697  47.076  1.00  0.00     0.032 A 
BRANCH  29  32
HETATM   32  O   UNL     1      17.788  45.799  45.575  1.00  0.00    -0.356 OA
HETATM   33  C   UNL     1      17.140  44.534  45.517  1.00  0.00     0.210 C 
ENDBRANCH  29  32
ENDBRANCH  23  26
ENDBRANCH   9  22
BRANCH   7  34
HETATM   34  C   UNL     1      28.444  42.667  52.996  1.00  0.00    -0.047 C 
HETATM   35  C   UNL     1      28.020  43.089  54.420  1.00  0.00     0.015 C 
HETATM   36  C   UNL     1      28.256  41.138  52.897  1.00  0.00     0.015 C 
HETATM   37  C   UNL     1      29.945  42.977  52.830  1.00  0.00     0.015 C 
ENDBRANCH   7  34
TORSDOF 9
ENDMDL
MODEL 8
REMARK VINA RESULT:      -7.5      2.980      9.000
REMARK  9 active torsions:
REMARK  status: ('A' for Active; 'I' for Inactive)
REMARK    1  A    between atoms: C_2  and  C_3 
REMARK    2  A    between atoms: C_3  and  N_4 
REMARK    3  A    between atoms: N_4  and  C_7 
REMARK    4  A    between atoms: C_7  and  C_8 
REMARK       I    between atoms: C_8  and  N_9 
REMARK    5  A    between atoms: N_9  and  C_10 
REMARK    6  A    between atoms: C_16  and  C_17 
REMARK    7  A    between atoms: C_22  and  C_23 
REMARK       I    between atoms: C_23  and  N_24 
REMARK    8  A    between atoms: N_24  and  C_25 
REMARK    9  A    between atoms: C_28  and  O_29 
ROOT
HETATM    1  C   UNL     1      23.414  45.520  48.770  1.00  0.00     0.093 A 
HETATM    2  S   UNL     1      24.136  44.099  49.331  1.00  0.00    -0.075 SA
HETATM    3  C   UNL     1      24.905  44.919  50.600  1.00  0.00    -0.008 A 
HETATM    4  C   UNL     1      24.586  46.266  50.645  1.00  0.00    -0.026 A 
HETATM    5  C   UNL     1      25.183  47.143  51.710  1.00  0.00     0.041 C 
HETATM    6  C   UNL     1      26.421  46.516  52.369  1.00  0.00     0.010 C 
HETATM    7  C   UNL     1      26.184  45.037  52.775  1.00  0.00    -0.002 C 
HETATM    8  C   UNL     1      25.867  44.202  51.505  1.00  0.00     0.052 C 
HETATM    9  C   UNL     1      23.686  46.633  49.564  1.00  0.00     0.073 A 
ENDROOT
BRANCH   1  10
HETATM   10  N   UNL     1      22.674  45.536  47.595  1.00  0.00    -0.319 N 
HETATM   11  C   UNL     1      21.420  45.013  47.391  1.00  0.00     0.248 C 
HETATM   12  O   UNL     1      20.646  44.526  48.212  1.00  0.00    -0.271 OA
HETATM   13  H   UNL     1      23.131  46.072  46.851  1.00  0.00     0.169 HD
BRANCH  11  14
HETATM   14  C   UNL     1      20.926  45.156  45.951  1.00  0.00     0.335 C 
BRANCH  14  15
HETATM   15  N   UNL     1      19.413  45.116  45.918  1.00  0.00    -0.067 N 
HETATM   16  H   UNL     1      19.131  44.868  46.884  1.00  0.00     0.277 HD
HETATM   17  H   UNL     1      19.089  44.358  45.306  1.00  0.00     0.277 HD
BRANCH  15  18
HETATM   18  C   UNL     1      18.776  46.417  45.551  1.00  0.00     0.236 C 
BRANCH  18  19
HETATM   19  C   UNL     1      18.893  47.421  46.702  1.00  0.00     0.003 C 
HETATM   20  C   UNL     1      17.863  47.079  47.781  1.00  0.00     0.011 C 
HETATM   21  C   UNL     1      18.699  48.866  46.241  1.00  0.00     0.011 C 
ENDBRANCH  18  19
ENDBRANCH  15  18
ENDBRANCH  14  15
ENDBRANCH  11  14
ENDBRANCH   1  10
BRANCH   9  22
HETATM   22  C   UNL     1      23.100  47.945  49.207  1.00  0.00     0.259 C 
HETATM   23  N   UNL     1      21.744  48.078  49.416  1.00  0.00    -0.323 N 
HETATM   24  H   UNL     1      21.234  47.243  49.661  1.00  0.00     0.169 HD
HETATM   25  O   UNL     1      23.821  48.801  48.692  1.00  0.00    -0.267 OA
BRANCH  23  26
HETATM   26  C   UNL     1      20.961  49.242  49.264  1.00  0.00     0.035 A 
HETATM   27  C   UNL     1      21.325  50.332  48.473  1.00  0.00     0.032 A 
HETATM   28  C   UNL     1      20.500  51.460  48.400  1.00  0.00     0.039 A 
HETATM   29  C   UNL     1      19.308  51.525  49.122  1.00  0.00     0.068 A 
HETATM   30  C   UNL     1      18.936  50.438  49.910  1.00  0.00     0.039 A 
HETATM   31  C   UNL     1      19.759  49.304  49.979  1.00  0.00     0.032 A 
BRANCH  29  32
HETATM   32  O   UNL     1      18.609  52.687  48.968  1.00  0.00    -0.356 OA
HETATM   33  C   UNL     1      17.337  52.763  49.601  1.00  0.00     0.210 C 
ENDBRANCH  29  32
ENDBRANCH  23  26
ENDBRANCH   9  22
BRANCH   7  34
HETATM   34  C   UNL     1      27.350  44.434  53.646  1.00  0.00    -0.047 C 
HETATM   35  C   UNL     1      27.974  45.545  54.519  1.00  0.00     0.015 C 
HETATM   36  C   UNL     1      26.820  43.345  54.602  1.00  0.00     0.015 C 
HETATM   37  C   UNL     1      28.469  43.814  52.786  1.00  0.00     0.015 C 
ENDBRANCH   7  34
TORSDOF 9
ENDMDL
MODEL 9
REMARK VINA RESULT:      -7.4      2.793      5.747
REMARK  9 active torsions:
REMARK  status: ('A' for Active; 'I' for Inactive)
REMARK    1  A    between atoms: C_2  and  C_3 
REMARK    2  A    between atoms: C_3  and  N_4 
REMARK    3  A    between atoms: N_4  and  C_7 
REMARK    4  A    between atoms: C_7  and  C_8 
REMARK       I    between atoms: C_8  and  N_9 
REMARK    5  A    between atoms: N_9  and  C_10 
REMARK    6  A    between atoms: C_16  and  C_17 
REMARK    7  A    between atoms: C_22  and  C_23 
REMARK       I    between atoms: C_23  and  N_24 
REMARK    8  A    between atoms: N_24  and  C_25 
REMARK    9  A    between atoms: C_28  and  O_29 
ROOT
HETATM    1  C   UNL     1      26.014  45.503  50.914  1.00  0.00     0.093 A 
HETATM    2  S   UNL     1      25.857  47.178  51.067  1.00  0.00    -0.075 SA
HETATM    3  C   UNL     1      24.474  47.198  50.086  1.00  0.00    -0.008 A 
HETATM    4  C   UNL     1      24.086  45.935  49.673  1.00  0.00    -0.026 A 
HETATM    5  C   UNL     1      22.876  45.771  48.796  1.00  0.00     0.041 C 
HETATM    6  C   UNL     1      22.462  47.080  48.108  1.00  0.00     0.010 C 
HETATM    7  C   UNL     1      22.413  48.274  49.098  1.00  0.00    -0.002 C 
HETATM    8  C   UNL     1      23.826  48.498  49.700  1.00  0.00     0.052 C 
HETATM    9  C   UNL     1      24.992  44.914  50.173  1.00  0.00     0.073 A 
ENDROOT
BRANCH   1  10
HETATM   10  N   UNL     1      27.105  44.831  51.449  1.00  0.00    -0.319 N 
HETATM   11  C   UNL     1      27.192  44.226  52.679  1.00  0.00     0.248 C 
HETATM   12  O   UNL     1      26.307  44.049  53.515  1.00  0.00    -0.271 OA
HETATM   13  H   UNL     1      27.879  44.746  50.784  1.00  0.00     0.169 HD
BRANCH  11  14
HETATM   14  C   UNL     1      28.568  43.627  52.970  1.00  0.00     0.335 C 
BRANCH  14  15
HETATM   15  N   UNL     1      29.083  44.137  54.299  1.00  0.00    -0.067 N 
HETATM   16  H   UNL     1      28.244  44.202  54.903  1.00  0.00     0.277 HD
HETATM   17  H   UNL     1      29.455  45.089  54.197  1.00  0.00     0.277 HD
BRANCH  15  18
HETATM   18  C   UNL     1      30.079  43.236  54.954  1.00  0.00     0.236 C 
BRANCH  18  19
HETATM   19  C   UNL     1      31.024  44.038  55.855  1.00  0.00     0.003 C 
HETATM   20  C   UNL     1      31.450  43.171  57.043  1.00  0.00     0.011 C 
HETATM   21  C   UNL     1      30.390  45.335  56.361  1.00  0.00     0.011 C 
ENDBRANCH  18  19
ENDBRANCH  15  18
ENDBRANCH  14  15
ENDBRANCH  11  14
ENDBRANCH   1  10
BRANCH   9  22
HETATM   22  C   UNL     1      24.986  43.446  49.975  1.00  0.00     0.259 C 
HETATM   23  N   UNL     1      25.656  42.984  48.862  1.00  0.00    -0.323 N 
HETATM   24  H   UNL     1      25.978  43.675  48.201  1.00  0.00     0.169 HD
HETATM   25  O   UNL     1      24.341  42.740  50.752  1.00  0.00    -0.267 OA
BRANCH  23  26
HETATM   26  C   UNL     1      25.894  41.642  48.498  1.00  0.00     0.035 A 
HETATM   27  C   UNL     1      27.006  40.905  48.907  1.00  0.00     0.032 A 
HETATM   28  C   UNL     1      27.178  39.585  48.477  1.00  0.00     0.039 A 
HETATM   29  C   UNL     1      26.253  38.983  47.624  1.00  0.00     0.068 A 
HETATM   30  C   UNL     1      25.138  39.711  47.215  1.00  0.00     0.039 A 
HETATM   31  C   UNL     1      24.961  41.031  47.651  1.00  0.00     0.032 A 
BRANCH  29  32
HETATM   32  O   UNL     1      26.551  37.697  47.274  1.00  0.00    -0.356 OA
HETATM   33  C   UNL     1      27.772  37.485  46.576  1.00  0.00     0.210 C 
ENDBRANCH  29  32
ENDBRANCH  23  26
ENDBRANCH   9  22
BRANCH   7  34
HETATM   34  C   UNL     1      21.783  49.576  48.477  1.00  0.00    -0.047 C 
HETATM   35  C   UNL     1      22.835  50.298  47.606  1.00  0.00     0.015 C 
HETATM   36  C   UNL     1      20.590  49.231  47.559  1.00  0.00     0.015 C 
HETATM   37  C   UNL     1      21.290  50.565  49.552  1.00  0.00     0.015 C 
ENDBRANCH   7  34
TORSDOF 9
ENDMDL
MODEL 10
REMARK VINA RESULT:      -7.3      2.703      7.047
REMARK  9 active torsions:
REMARK  status: ('A' for Active; 'I' for Inactive)
REMARK    1  A    between atoms: C_2  and  C_3 
REMARK    2  A    between atoms: C_3  and  N_4 
REMARK    3  A    between atoms: N_4  and  C_7 
REMARK    4  A    between atoms: C_7  and  C_8 
REMARK       I    between atoms: C_8  and  N_9 
REMARK    5  A    between atoms: N_9  and  C_10 
REMARK    6  A    between atoms: C_16  and  C_17 
REMARK    7  A    between atoms: C_22  and  C_23 
REMARK       I    between atoms: C_23  and  N_24 
REMARK    8  A    between atoms: N_24  and  C_25 
REMARK    9  A    between atoms: C_28  and  O_29 
ROOT
HETATM    1  C   UNL     1      23.149  46.191  49.264  1.00  0.00     0.093 A 
HETATM    2  S   UNL     1      22.019  45.430  48.265  1.00  0.00    -0.075 SA
HETATM    3  C   UNL     1      22.917  43.992  48.241  1.00  0.00    -0.008 A 
HETATM    4  C   UNL     1      24.054  44.053  49.029  1.00  0.00    -0.026 A 
HETATM    5  C   UNL     1      24.966  42.861  49.122  1.00  0.00     0.041 C 
HETATM    6  C   UNL     1      24.745  41.855  47.983  1.00  0.00     0.010 C 
HETATM    7  C   UNL     1      23.242  41.533  47.768  1.00  0.00    -0.002 C 
HETATM    8  C   UNL     1      22.489  42.834  47.384  1.00  0.00     0.052 C 
HETATM    9  C   UNL     1      24.196  45.357  49.654  1.00  0.00     0.073 A 
ENDROOT
BRANCH   1  10
HETATM   10  N   UNL     1      23.030  47.534  49.593  1.00  0.00    -0.319 N 
HETATM   11  C   UNL     1      22.985  48.604  48.732  1.00  0.00     0.248 C 
HETATM   12  O   UNL     1      22.927  48.602  47.504  1.00  0.00    -0.271 OA
HETATM   13  H   UNL     1      22.893  47.682  50.597  1.00  0.00     0.169 HD
BRANCH  11  14
HETATM   14  C   UNL     1      22.909  49.956  49.442  1.00  0.00     0.335 C 
BRANCH  14  15
HETATM   15  N   UNL     1      21.475  50.266  49.810  1.00  0.00    -0.067 N 
HETATM   16  H   UNL     1      21.527  50.691  50.754  1.00  0.00     0.277 HD
HETATM   17  H   UNL     1      20.933  49.399  49.901  1.00  0.00     0.277 HD
BRANCH  15  18
HETATM   18  C   UNL     1      20.801  51.229  48.887  1.00  0.00     0.236 C 
BRANCH  18  19
HETATM   19  C   UNL     1      19.514  51.773  49.516  1.00  0.00     0.003 C 
HETATM   20  C   UNL     1      18.740  50.622  50.163  1.00  0.00     0.011 C 
HETATM   21  C   UNL     1      18.624  52.490  48.500  1.00  0.00     0.011 C 
ENDBRANCH  18  19
ENDBRANCH  15  18
ENDBRANCH  14  15
ENDBRANCH  11  14
ENDBRANCH   1  10
BRANCH   9  22
HETATM   22  C   UNL     1      25.251  45.882  50.551  1.00  0.00     0.259 C 
HETATM   23  N   UNL     1      25.127  45.554  51.884  1.00  0.00    -0.323 N 
HETATM   24  H   UNL     1      24.269  45.107  52.169  1.00  0.00     0.169 HD
HETATM   25  O   UNL     1      26.120  46.620  50.085  1.00  0.00    -0.267 OA
BRANCH  23  26
HETATM   26  C   UNL     1      26.040  45.830  52.925  1.00  0.00     0.035 A 
HETATM   27  C   UNL     1      26.118  47.052  53.594  1.00  0.00     0.032 A 
HETATM   28  C   UNL     1      27.073  47.249  54.598  1.00  0.00     0.039 A 
HETATM   29  C   UNL     1      27.971  46.238  54.942  1.00  0.00     0.068 A 
HETATM   30  C   UNL     1      27.896  45.015  54.281  1.00  0.00     0.039 A 
HETATM   31  C   UNL     1      26.935  44.813  53.280  1.00  0.00     0.032 A 
BRANCH  29  32
HETATM   32  O   UNL     1      28.856  46.571  55.928  1.00  0.00    -0.356 OA
HETATM   33  C   UNL     1      29.974  45.710  56.107  1.00  0.00     0.210 C 
ENDBRANCH  29  32
ENDBRANCH  23  26
ENDBRANCH   9  22
BRANCH   7  34
HETATM   34  C   UNL     1      22.996  40.346  46.762  1.00  0.00    -0.047 C 
HETATM   35  C   UNL     1      22.811  40.906  45.334  1.00  0.00     0.015 C 
HETATM   36  C   UNL     1      24.208  39.391  46.724  1.00  0.00     0.015 C 
HETATM   37  C   UNL     1      21.745  39.520  47.119  1.00  0.00     0.015 C 
ENDBRANCH   7  34
TORSDOF 9
ENDMDL
