MODEL 1
REMARK VINA RESULT:      -8.5      0.000      0.000
REMARK  5 active torsions:
REMARK  status: ('A' for Active; 'I' for Inactive)
REMARK    1  A    between atoms: C_10  and  N_11 
REMARK    2  A    between atoms: N_11  and  C_12 
REMARK    3  A    between atoms: C_12  and  C_13 
REMARK    4  A    between atoms: C_13  and  N_14 
REMARK       I    between atoms: N_14  and  C_15 
REMARK    5  A    between atoms: C_15  and  C_16 
ROOT
HETATM    1  C   UNL     1      31.926  43.030  56.924  1.00  0.00     0.048 C 
HETATM    2  C   UNL     1      30.856  43.923  56.361  1.00  0.00    -0.060 A 
HETATM    3  C   UNL     1      30.059  43.501  55.291  1.00  0.00     0.037 A 
HETATM    4  C   UNL     1      29.048  44.331  54.789  1.00  0.00     0.044 A 
HETATM    5  C   UNL     1      28.813  45.593  55.364  1.00  0.00    -0.009 A 
HETATM    6  C   UNL     1      29.605  46.006  56.445  1.00  0.00     0.014 A 
HETATM    7  C   UNL     1      30.614  45.175  56.939  1.00  0.00     0.007 A 
HETATM    8  N   UNL     1      28.294  43.935  53.751  1.00  0.00    -0.346 N 
HETATM    9  H   UNL     1      28.485  43.016  53.370  1.00  0.00     0.167 HD
HETATM   10  C   UNL     1      27.319  44.670  53.187  1.00  0.00     0.086 A 
HETATM   11  C   UNL     1      27.018  45.921  53.760  1.00  0.00    -0.023 A 
HETATM   12  C   UNL     1      25.920  46.801  53.222  1.00  0.00     0.052 C 
HETATM   13  C   UNL     1      27.788  46.383  54.836  1.00  0.00     0.023 A 
ENDROOT
BRANCH  10  14
HETATM   14  N   UNL     1      26.569  44.169  52.118  1.00  0.00    -0.277 NA
HETATM   15  H   UNL     1      25.771  44.776  51.914  1.00  0.00     0.129 HD
BRANCH  14  16
HETATM   16  C   UNL     1      27.274  43.745  50.910  1.00  0.00     0.113 C 
BRANCH  16  17
HETATM   17  C   UNL     1      26.827  44.499  49.651  1.00  0.00     0.137 C 
BRANCH  17  18
HETATM   18  N   UNL     1      26.488  45.907  49.833  1.00  0.00    -0.360 N 
HETATM   19  C   UNL     1      27.247  46.986  49.421  1.00  0.00     0.221 C 
HETATM   20  O   UNL     1      28.335  46.866  48.863  1.00  0.00    -0.273 OA
HETATM   21  H   UNL     1      25.583  46.104  50.248  1.00  0.00     0.162 HD
BRANCH  19  22
HETATM   22  C   UNL     1      26.607  48.342  49.719  1.00  0.00     0.070 C 
HETATM   23  C   UNL     1      27.241  49.437  48.863  1.00  0.00     0.019 C 
HETATM   24  C   UNL     1      25.098  48.294  49.485  1.00  0.00     0.019 C 
ENDBRANCH  19  22
ENDBRANCH  17  18
ENDBRANCH  16  17
ENDBRANCH  14  16
ENDBRANCH  10  14
TORSDOF 5
ENDMDL
MODEL 2
REMARK VINA RESULT:      -8.1      2.738      3.882
REMARK  5 active torsions:
REMARK  status: ('A' for Active; 'I' for Inactive)
REMARK    1  A    between atoms: C_10  and  N_11 
REMARK    2  A    between atoms: N_11  and  C_12 
REMARK    3  A    between atoms: C_12  and  C_13 
REMARK    4  A    between atoms: C_13  and  N_14 
REMARK       I    between atoms: N_14  and  C_15 
REMARK    5  A    between atoms: C_15  and  C_16 
ROOT
HETATM    1  C   UNL     1      32.018  42.965  57.021  1.00  0.00     0.048 C 
HETATM    2  C   UNL     1      30.979  44.025  56.785  1.00  0.00    -0.060 A 
HETATM    3  C   UNL     1      30.138  43.969  55.667  1.00  0.00     0.037 A 
HETATM    4  C   UNL     1      29.157  44.950  55.469  1.00  0.00     0.044 A 
HETATM    5  C   UNL     1      28.996  45.994  56.398  1.00  0.00    -0.009 A 
HETATM    6  C   UNL     1      29.832  46.038  57.523  1.00  0.00     0.014 A 
HETATM    7  C   UNL     1      30.811  45.059  57.714  1.00  0.00     0.007 A 
HETATM    8  N   UNL     1      28.361  44.907  54.388  1.00  0.00    -0.346 N 
HETATM    9  H   UNL     1      28.499  44.136  53.747  1.00  0.00     0.167 HD
HETATM   10  C   UNL     1      27.410  45.814  54.102  1.00  0.00     0.086 A 
HETATM   11  C   UNL     1      27.182  46.851  55.028  1.00  0.00    -0.023 A 
HETATM   12  C   UNL     1      26.116  47.892  54.813  1.00  0.00     0.052 C 
HETATM   13  C   UNL     1      27.999  46.944  56.164  1.00  0.00     0.023 A 
ENDROOT
BRANCH  10  14
HETATM   14  N   UNL     1      26.612  45.681  52.960  1.00  0.00    -0.277 NA
HETATM   15  H   UNL     1      27.186  45.553  52.125  1.00  0.00     0.129 HD
BRANCH  14  16
HETATM   16  C   UNL     1      25.476  44.762  53.007  1.00  0.00     0.113 C 
BRANCH  16  17
HETATM   17  C   UNL     1      25.498  43.714  51.887  1.00  0.00     0.137 C 
BRANCH  17  18
HETATM   18  N   UNL     1      26.484  42.646  52.028  1.00  0.00    -0.360 N 
HETATM   19  C   UNL     1      27.839  42.752  51.775  1.00  0.00     0.221 C 
HETATM   20  O   UNL     1      28.365  43.785  51.366  1.00  0.00    -0.273 OA
HETATM   21  H   UNL     1      26.147  41.766  52.402  1.00  0.00     0.162 HD
BRANCH  19  22
HETATM   22  C   UNL     1      28.622  41.471  52.053  1.00  0.00     0.070 C 
HETATM   23  C   UNL     1      28.341  40.962  53.466  1.00  0.00     0.019 C 
HETATM   24  C   UNL     1      28.284  40.392  51.024  1.00  0.00     0.019 C 
ENDBRANCH  19  22
ENDBRANCH  17  18
ENDBRANCH  16  17
ENDBRANCH  14  16
ENDBRANCH  10  14
TORSDOF 5
ENDMDL
MODEL 3
REMARK VINA RESULT:      -8.1      1.317      2.518
REMARK  5 active torsions:
REMARK  status: ('A' for Active; 'I' for Inactive)
REMARK    1  A    between atoms: C_10  and  N_11 
REMARK    2  A    between atoms: N_11  and  C_12 
REMARK    3  A    between atoms: C_12  and  C_13 
REMARK    4  A    between atoms: C_13  and  N_14 
REMARK       I    between atoms: N_14  and  C_15 
REMARK    5  A    between atoms: C_15  and  C_16 
ROOT
HETATM    1  C   UNL     1      30.689  46.153  58.322  1.00  0.00     0.048 C 
HETATM    2  C   UNL     1      30.370  45.281  57.141  1.00  0.00    -0.060 A 
HETATM    3  C   UNL     1      29.320  45.604  56.273  1.00  0.00     0.037 A 
HETATM    4  C   UNL     1      29.047  44.797  55.160  1.00  0.00     0.044 A 
HETATM    5  C   UNL     1      29.832  43.661  54.894  1.00  0.00    -0.009 A 
HETATM    6  C   UNL     1      30.891  43.349  55.759  1.00  0.00     0.014 A 
HETATM    7  C   UNL     1      31.157  44.155  56.869  1.00  0.00     0.007 A 
HETATM    8  N   UNL     1      28.029  45.096  54.337  1.00  0.00    -0.346 N 
HETATM    9  H   UNL     1      27.492  45.927  54.553  1.00  0.00     0.167 HD
HETATM   10  C   UNL     1      27.676  44.371  53.260  1.00  0.00     0.086 A 
HETATM   11  C   UNL     1      28.463  43.250  52.929  1.00  0.00    -0.023 A 
HETATM   12  C   UNL     1      28.170  42.398  51.724  1.00  0.00     0.052 C 
HETATM   13  C   UNL     1      29.528  42.891  53.769  1.00  0.00     0.023 A 
ENDROOT
BRANCH  10  14
HETATM   14  N   UNL     1      26.611  44.767  52.445  1.00  0.00    -0.277 NA
HETATM   15  H   UNL     1      25.840  44.098  52.497  1.00  0.00     0.129 HD
BRANCH  14  16
HETATM   16  C   UNL     1      26.156  46.155  52.518  1.00  0.00     0.113 C 
BRANCH  16  17
HETATM   17  C   UNL     1      25.188  46.535  51.390  1.00  0.00     0.137 C 
BRANCH  17  18
HETATM   18  N   UNL     1      25.636  47.597  50.492  1.00  0.00    -0.360 N 
HETATM   19  C   UNL     1      26.611  47.481  49.520  1.00  0.00     0.221 C 
HETATM   20  O   UNL     1      27.241  46.444  49.323  1.00  0.00    -0.273 OA
HETATM   21  H   UNL     1      25.140  48.479  50.554  1.00  0.00     0.162 HD
BRANCH  19  22
HETATM   22  C   UNL     1      26.831  48.757  48.709  1.00  0.00     0.070 C 
HETATM   23  C   UNL     1      25.573  49.624  48.716  1.00  0.00     0.019 C 
HETATM   24  C   UNL     1      28.022  49.547  49.252  1.00  0.00     0.019 C 
ENDBRANCH  19  22
ENDBRANCH  17  18
ENDBRANCH  16  17
ENDBRANCH  14  16
ENDBRANCH  10  14
TORSDOF 5
ENDMDL
MODEL 4
REMARK VINA RESULT:      -8.0      2.198      3.566
REMARK  5 active torsions:
REMARK  status: ('A' for Active; 'I' for Inactive)
REMARK    1  A    between atoms: C_10  and  N_11 
REMARK    2  A    between atoms: N_11  and  C_12 
REMARK    3  A    between atoms: C_12  and  C_13 
REMARK    4  A    between atoms: C_13  and  N_14 
REMARK       I    between atoms: N_14  and  C_15 
REMARK    5  A    between atoms: C_15  and  C_16 
ROOT
HETATM    1  C   UNL     1      28.981  46.187  56.529  1.00  0.00     0.048 C 
HETATM    2  C   UNL     1      29.091  45.016  55.594  1.00  0.00    -0.060 A 
HETATM    3  C   UNL     1      28.061  44.715  54.695  1.00  0.00     0.037 A 
HETATM    4  C   UNL     1      28.185  43.635  53.811  1.00  0.00     0.044 A 
HETATM    5  C   UNL     1      29.351  42.849  53.806  1.00  0.00    -0.009 A 
HETATM    6  C   UNL     1      30.386  43.162  54.699  1.00  0.00     0.014 A 
HETATM    7  C   UNL     1      30.256  44.239  55.581  1.00  0.00     0.007 A 
HETATM    8  N   UNL     1      27.190  43.335  52.961  1.00  0.00    -0.346 N 
HETATM    9  H   UNL     1      26.370  43.929  52.985  1.00  0.00     0.167 HD
HETATM   10  C   UNL     1      27.207  42.306  52.094  1.00  0.00     0.086 A 
HETATM   11  C   UNL     1      28.374  41.520  52.022  1.00  0.00    -0.023 A 
HETATM   12  C   UNL     1      28.503  40.370  51.059  1.00  0.00     0.052 C 
HETATM   13  C   UNL     1      29.433  41.787  52.901  1.00  0.00     0.023 A 
ENDROOT
BRANCH  10  14
HETATM   14  N   UNL     1      26.132  42.077  51.229  1.00  0.00    -0.277 NA
HETATM   15  H   UNL     1      25.240  42.222  51.707  1.00  0.00     0.129 HD
BRANCH  14  16
HETATM   16  C   UNL     1      26.163  42.689  49.901  1.00  0.00     0.113 C 
BRANCH  16  17
HETATM   17  C   UNL     1      25.008  43.668  49.658  1.00  0.00     0.137 C 
BRANCH  17  18
HETATM   18  N   UNL     1      25.184  45.014  50.197  1.00  0.00    -0.360 N 
HETATM   19  C   UNL     1      24.886  45.420  51.484  1.00  0.00     0.221 C 
HETATM   20  O   UNL     1      24.400  44.669  52.328  1.00  0.00    -0.273 OA
HETATM   21  H   UNL     1      25.622  45.693  49.584  1.00  0.00     0.162 HD
BRANCH  19  22
HETATM   22  C   UNL     1      25.219  46.885  51.765  1.00  0.00     0.070 C 
HETATM   23  C   UNL     1      25.901  47.032  53.123  1.00  0.00     0.019 C 
HETATM   24  C   UNL     1      26.105  47.461  50.661  1.00  0.00     0.019 C 
ENDBRANCH  19  22
ENDBRANCH  17  18
ENDBRANCH  16  17
ENDBRANCH  14  16
ENDBRANCH  10  14
TORSDOF 5
ENDMDL
MODEL 5
REMARK VINA RESULT:      -7.7      3.341      5.117
REMARK  5 active torsions:
REMARK  status: ('A' for Active; 'I' for Inactive)
REMARK    1  A    between atoms: C_10  and  N_11 
REMARK    2  A    between atoms: N_11  and  C_12 
REMARK    3  A    between atoms: C_12  and  C_13 
REMARK    4  A    between atoms: C_13  and  N_14 
REMARK       I    between atoms: N_14  and  C_15 
REMARK    5  A    between atoms: C_15  and  C_16 
ROOT
HETATM    1  C   UNL     1      32.108  43.186  57.063  1.00  0.00     0.048 C 
HETATM    2  C   UNL     1      30.974  43.920  56.406  1.00  0.00    -0.060 A 
HETATM    3  C   UNL     1      30.258  43.341  55.352  1.00  0.00     0.037 A 
HETATM    4  C   UNL     1      29.186  44.024  54.763  1.00  0.00     0.044 A 
HETATM    5  C   UNL     1      28.807  45.295  55.233  1.00  0.00    -0.009 A 
HETATM    6  C   UNL     1      29.519  45.866  56.298  1.00  0.00     0.014 A 
HETATM    7  C   UNL     1      30.589  45.181  56.880  1.00  0.00     0.007 A 
HETATM    8  N   UNL     1      28.510  43.477  53.741  1.00  0.00    -0.346 N 
HETATM    9  H   UNL     1      28.803  42.557  53.436  1.00  0.00     0.167 HD
HETATM   10  C   UNL     1      27.485  44.065  53.098  1.00  0.00     0.086 A 
HETATM   11  C   UNL     1      27.042  45.318  53.565  1.00  0.00    -0.023 A 
HETATM   12  C   UNL     1      25.880  46.039  52.934  1.00  0.00     0.052 C 
HETATM   13  C   UNL     1      27.727  45.935  54.621  1.00  0.00     0.023 A 
ENDROOT
BRANCH  10  14
HETATM   14  N   UNL     1      26.823  43.413  52.052  1.00  0.00    -0.277 NA
HETATM   15  H   UNL     1      26.221  44.060  51.539  1.00  0.00     0.129 HD
BRANCH  14  16
HETATM   16  C   UNL     1      27.602  42.549  51.166  1.00  0.00     0.113 C 
BRANCH  16  17
HETATM   17  C   UNL     1      27.406  41.054  51.450  1.00  0.00     0.137 C 
BRANCH  17  18
HETATM   18  N   UNL     1      28.377  40.152  50.837  1.00  0.00    -0.360 N 
HETATM   19  C   UNL     1      28.201  39.445  49.663  1.00  0.00     0.221 C 
HETATM   20  O   UNL     1      27.163  39.486  49.005  1.00  0.00    -0.273 OA
HETATM   21  H   UNL     1      29.283  40.089  51.288  1.00  0.00     0.162 HD
BRANCH  19  22
HETATM   22  C   UNL     1      29.415  38.613  49.253  1.00  0.00     0.070 C 
HETATM   23  C   UNL     1      29.849  37.694  50.394  1.00  0.00     0.019 C 
HETATM   24  C   UNL     1      29.115  37.795  47.998  1.00  0.00     0.019 C 
ENDBRANCH  19  22
ENDBRANCH  17  18
ENDBRANCH  16  17
ENDBRANCH  14  16
ENDBRANCH  10  14
TORSDOF 5
ENDMDL
MODEL 6
REMARK VINA RESULT:      -7.7      2.105      3.516
REMARK  5 active torsions:
REMARK  status: ('A' for Active; 'I' for Inactive)
REMARK    1  A    between atoms: C_10  and  N_11 
REMARK    2  A    between atoms: N_11  and  C_12 
REMARK    3  A    between atoms: C_12  and  C_13 
REMARK    4  A    between atoms: C_13  and  N_14 
REMARK       I    between atoms: N_14  and  C_15 
REMARK    5  A    between atoms: C_15  and  C_16 
ROOT
HETATM    1  C   UNL     1      27.058  48.268  55.479  1.00  0.00     0.048 C 
HETATM    2  C   UNL     1      27.557  46.892  55.138  1.00  0.00    -0.060 A 
HETATM    3  C   UNL     1      26.923  46.121  54.157  1.00  0.00     0.037 A 
HETATM    4  C   UNL     1      27.411  44.849  53.830  1.00  0.00     0.044 A 
HETATM    5  C   UNL     1      28.553  44.338  54.473  1.00  0.00    -0.009 A 
HETATM    6  C   UNL     1      29.193  45.120  55.445  1.00  0.00     0.014 A 
HETATM    7  C   UNL     1      28.700  46.386  55.770  1.00  0.00     0.007 A 
HETATM    8  N   UNL     1      26.793  44.101  52.902  1.00  0.00    -0.346 N 
HETATM    9  H   UNL     1      25.981  44.506  52.452  1.00  0.00     0.167 HD
HETATM   10  C   UNL     1      27.173  42.863  52.539  1.00  0.00     0.086 A 
HETATM   11  C   UNL     1      28.338  42.329  53.123  1.00  0.00    -0.023 A 
HETATM   12  C   UNL     1      28.863  40.967  52.754  1.00  0.00     0.052 C 
HETATM   13  C   UNL     1      29.009  43.068  54.108  1.00  0.00     0.023 A 
ENDROOT
BRANCH  10  14
HETATM   14  N   UNL     1      26.480  42.161  51.546  1.00  0.00    -0.277 NA
HETATM   15  H   UNL     1      25.486  42.094  51.772  1.00  0.00     0.129 HD
BRANCH  14  16
HETATM   16  C   UNL     1      26.716  42.517  50.148  1.00  0.00     0.113 C 
BRANCH  16  17
HETATM   17  C   UNL     1      25.503  43.174  49.477  1.00  0.00     0.137 C 
BRANCH  17  18
HETATM   18  N   UNL     1      25.347  44.609  49.700  1.00  0.00    -0.360 N 
HETATM   19  C   UNL     1      24.671  45.200  50.751  1.00  0.00     0.221 C 
HETATM   20  O   UNL     1      24.090  44.555  51.621  1.00  0.00    -0.273 OA
HETATM   21  H   UNL     1      25.831  45.222  49.054  1.00  0.00     0.162 HD
BRANCH  19  22
HETATM   22  C   UNL     1      24.715  46.727  50.735  1.00  0.00     0.070 C 
HETATM   23  C   UNL     1      26.157  47.223  50.642  1.00  0.00     0.019 C 
HETATM   24  C   UNL     1      23.888  47.283  49.577  1.00  0.00     0.019 C 
ENDBRANCH  19  22
ENDBRANCH  17  18
ENDBRANCH  16  17
ENDBRANCH  14  16
ENDBRANCH  10  14
TORSDOF 5
ENDMDL
MODEL 7
REMARK VINA RESULT:      -7.5      1.787      2.921
REMARK  5 active torsions:
REMARK  status: ('A' for Active; 'I' for Inactive)
REMARK    1  A    between atoms: C_10  and  N_11 
REMARK    2  A    between atoms: N_11  and  C_12 
REMARK    3  A    between atoms: C_12  and  C_13 
REMARK    4  A    between atoms: C_13  and  N_14 
REMARK       I    between atoms: N_14  and  C_15 
REMARK    5  A    between atoms: C_15  and  C_16 
ROOT
HETATM    1  C   UNL     1      30.440  46.011  57.927  1.00  0.00     0.048 C 
HETATM    2  C   UNL     1      29.974  45.351  56.660  1.00  0.00    -0.060 A 
HETATM    3  C   UNL     1      28.840  45.815  55.983  1.00  0.00     0.037 A 
HETATM    4  C   UNL     1      28.429  45.208  54.789  1.00  0.00     0.044 A 
HETATM    5  C   UNL     1      29.158  44.133  54.249  1.00  0.00    -0.009 A 
HETATM    6  C   UNL     1      30.301  43.680  54.923  1.00  0.00     0.014 A 
HETATM    7  C   UNL     1      30.705  44.288  56.115  1.00  0.00     0.007 A 
HETATM    8  N   UNL     1      27.331  45.642  54.148  1.00  0.00    -0.346 N 
HETATM    9  H   UNL     1      26.838  46.424  54.561  1.00  0.00     0.167 HD
HETATM   10  C   UNL     1      26.847  45.108  53.012  1.00  0.00     0.086 A 
HETATM   11  C   UNL     1      27.571  44.060  52.411  1.00  0.00    -0.023 A 
HETATM   12  C   UNL     1      27.129  43.423  51.120  1.00  0.00     0.052 C 
HETATM   13  C   UNL     1      28.715  43.565  53.052  1.00  0.00     0.023 A 
ENDROOT
BRANCH  10  14
HETATM   14  N   UNL     1      25.705  45.636  52.401  1.00  0.00    -0.277 NA
HETATM   15  H   UNL     1      24.906  45.617  53.038  1.00  0.00     0.129 HD
BRANCH  14  16
HETATM   16  C   UNL     1      25.822  46.906  51.685  1.00  0.00     0.113 C 
BRANCH  16  17
HETATM   17  C   UNL     1      25.668  46.762  50.166  1.00  0.00     0.137 C 
BRANCH  17  18
HETATM   18  N   UNL     1      24.580  47.522  49.556  1.00  0.00    -0.360 N 
HETATM   19  C   UNL     1      24.661  48.816  49.079  1.00  0.00     0.221 C 
HETATM   20  O   UNL     1      25.685  49.492  49.145  1.00  0.00    -0.273 OA
HETATM   21  H   UNL     1      23.705  47.028  49.419  1.00  0.00     0.162 HD
BRANCH  19  22
HETATM   22  C   UNL     1      23.362  49.328  48.457  1.00  0.00     0.070 C 
HETATM   23  C   UNL     1      22.158  48.595  49.043  1.00  0.00     0.019 C 
HETATM   24  C   UNL     1      23.218  50.835  48.665  1.00  0.00     0.019 C 
ENDBRANCH  19  22
ENDBRANCH  17  18
ENDBRANCH  16  17
ENDBRANCH  14  16
ENDBRANCH  10  14
TORSDOF 5
ENDMDL
MODEL 8
REMARK VINA RESULT:      -7.3      2.800      8.503
REMARK  5 active torsions:
REMARK  status: ('A' for Active; 'I' for Inactive)
REMARK    1  A    between atoms: C_10  and  N_11 
REMARK    2  A    between atoms: N_11  and  C_12 
REMARK    3  A    between atoms: C_12  and  C_13 
REMARK    4  A    between atoms: C_13  and  N_14 
REMARK       I    between atoms: N_14  and  C_15 
REMARK    5  A    between atoms: C_15  and  C_16 
ROOT
HETATM    1  C   UNL     1      19.868  49.260  48.460  1.00  0.00     0.048 C 
HETATM    2  C   UNL     1      21.365  49.395  48.488  1.00  0.00    -0.060 A 
HETATM    3  C   UNL     1      22.157  48.457  49.161  1.00  0.00     0.037 A 
HETATM    4  C   UNL     1      23.553  48.578  49.160  1.00  0.00     0.044 A 
HETATM    5  C   UNL     1      24.176  49.635  48.471  1.00  0.00    -0.009 A 
HETATM    6  C   UNL     1      23.379  50.564  47.787  1.00  0.00     0.014 A 
HETATM    7  C   UNL     1      21.987  50.440  47.794  1.00  0.00     0.007 A 
HETATM    8  N   UNL     1      24.314  47.690  49.820  1.00  0.00    -0.346 N 
HETATM    9  H   UNL     1      23.832  46.937  50.296  1.00  0.00     0.167 HD
HETATM   10  C   UNL     1      25.656  47.737  49.895  1.00  0.00     0.086 A 
HETATM   11  C   UNL     1      26.325  48.751  49.182  1.00  0.00    -0.023 A 
HETATM   12  C   UNL     1      27.826  48.865  49.175  1.00  0.00     0.052 C 
HETATM   13  C   UNL     1      25.571  49.710  48.490  1.00  0.00     0.023 A 
ENDROOT
BRANCH  10  14
HETATM   14  N   UNL     1      26.371  46.756  50.591  1.00  0.00    -0.277 NA
HETATM   15  H   UNL     1      27.350  47.029  50.706  1.00  0.00     0.129 HD
BRANCH  14  16
HETATM   16  C   UNL     1      25.793  46.210  51.817  1.00  0.00     0.113 C 
BRANCH  16  17
HETATM   17  C   UNL     1      26.055  44.709  51.994  1.00  0.00     0.137 C 
BRANCH  17  18
HETATM   18  N   UNL     1      27.298  44.351  52.674  1.00  0.00    -0.360 N 
HETATM   19  C   UNL     1      27.402  43.757  53.918  1.00  0.00     0.221 C 
HETATM   20  O   UNL     1      26.426  43.484  54.614  1.00  0.00    -0.273 OA
HETATM   21  H   UNL     1      28.156  44.501  52.155  1.00  0.00     0.162 HD
BRANCH  19  22
HETATM   22  C   UNL     1      28.839  43.467  54.347  1.00  0.00     0.070 C 
HETATM   23  C   UNL     1      29.711  43.153  53.133  1.00  0.00     0.019 C 
HETATM   24  C   UNL     1      29.421  44.644  55.127  1.00  0.00     0.019 C 
ENDBRANCH  19  22
ENDBRANCH  17  18
ENDBRANCH  16  17
ENDBRANCH  14  16
ENDBRANCH  10  14
TORSDOF 5
ENDMDL
MODEL 9
REMARK VINA RESULT:      -7.0      2.429      3.766
REMARK  5 active torsions:
REMARK  status: ('A' for Active; 'I' for Inactive)
REMARK    1  A    between atoms: C_10  and  N_11 
REMARK    2  A    between atoms: N_11  and  C_12 
REMARK    3  A    between atoms: C_12  and  C_13 
REMARK    4  A    between atoms: C_13  and  N_14 
REMARK       I    between atoms: N_14  and  C_15 
REMARK    5  A    between atoms: C_15  and  C_16 
ROOT
HETATM    1  C   UNL     1      26.385  48.783  55.817  1.00  0.00     0.048 C 
HETATM    2  C   UNL     1      26.831  47.513  55.151  1.00  0.00    -0.060 A 
HETATM    3  C   UNL     1      26.142  47.002  54.045  1.00  0.00     0.037 A 
HETATM    4  C   UNL     1      26.582  45.829  53.416  1.00  0.00     0.044 A 
HETATM    5  C   UNL     1      27.728  45.159  53.880  1.00  0.00    -0.009 A 
HETATM    6  C   UNL     1      28.423  45.682  54.980  1.00  0.00     0.014 A 
HETATM    7  C   UNL     1      27.978  46.850  55.605  1.00  0.00     0.007 A 
HETATM    8  N   UNL     1      25.912  45.328  52.365  1.00  0.00    -0.346 N 
HETATM    9  H   UNL     1      25.097  45.843  52.053  1.00  0.00     0.167 HD
HETATM   10  C   UNL     1      26.243  44.199  51.714  1.00  0.00     0.086 A 
HETATM   11  C   UNL     1      27.410  43.520  52.115  1.00  0.00    -0.023 A 
HETATM   12  C   UNL     1      27.882  42.269  51.424  1.00  0.00     0.052 C 
HETATM   13  C   UNL     1      28.134  43.998  53.216  1.00  0.00     0.023 A 
ENDROOT
BRANCH  10  14
HETATM   14  N   UNL     1      25.497  43.759  50.614  1.00  0.00    -0.277 NA
HETATM   15  H   UNL     1      24.703  43.190  50.914  1.00  0.00     0.129 HD
BRANCH  14  16
HETATM   16  C   UNL     1      25.134  44.732  49.585  1.00  0.00     0.113 C 
BRANCH  16  17
HETATM   17  C   UNL     1      23.689  45.234  49.708  1.00  0.00     0.137 C 
BRANCH  17  18
HETATM   18  N   UNL     1      23.447  46.604  49.265  1.00  0.00    -0.360 N 
HETATM   19  C   UNL     1      23.961  47.749  49.843  1.00  0.00     0.221 C 
HETATM   20  O   UNL     1      24.680  47.731  50.840  1.00  0.00    -0.273 OA
HETATM   21  H   UNL     1      22.898  46.715  48.420  1.00  0.00     0.162 HD
BRANCH  19  22
HETATM   22  C   UNL     1      23.560  49.038  49.128  1.00  0.00     0.070 C 
HETATM   23  C   UNL     1      24.772  49.684  48.460  1.00  0.00     0.019 C 
HETATM   24  C   UNL     1      22.467  48.768  48.094  1.00  0.00     0.019 C 
ENDBRANCH  19  22
ENDBRANCH  17  18
ENDBRANCH  16  17
ENDBRANCH  14  16
ENDBRANCH  10  14
TORSDOF 5
ENDMDL
MODEL 10
REMARK VINA RESULT:      -6.9      2.612      5.517
REMARK  5 active torsions:
REMARK  status: ('A' for Active; 'I' for Inactive)
REMARK    1  A    between atoms: C_10  and  N_11 
REMARK    2  A    between atoms: N_11  and  C_12 
REMARK    3  A    between atoms: C_12  and  C_13 
REMARK    4  A    between atoms: C_13  and  N_14 
REMARK       I    between atoms: N_14  and  C_15 
REMARK    5  A    between atoms: C_15  and  C_16 
ROOT
HETATM    1  C   UNL     1      24.538  47.097  50.289  1.00  0.00     0.048 C 
HETATM    2  C   UNL     1      25.429  46.482  51.331  1.00  0.00    -0.060 A 
HETATM    3  C   UNL     1      26.221  45.367  51.032  1.00  0.00     0.037 A 
HETATM    4  C   UNL     1      27.066  44.817  52.005  1.00  0.00     0.044 A 
HETATM    5  C   UNL     1      27.140  45.387  53.289  1.00  0.00    -0.009 A 
HETATM    6  C   UNL     1      26.355  46.512  53.580  1.00  0.00     0.014 A 
HETATM    7  C   UNL     1      25.511  47.054  52.607  1.00  0.00     0.007 A 
HETATM    8  N   UNL     1      27.813  43.737  51.724  1.00  0.00    -0.346 N 
HETATM    9  H   UNL     1      27.742  43.360  50.787  1.00  0.00     0.167 HD
HETATM   10  C   UNL     1      28.634  43.126  52.597  1.00  0.00     0.086 A 
HETATM   11  C   UNL     1      28.774  43.689  53.881  1.00  0.00    -0.023 A 
HETATM   12  C   UNL     1      29.696  43.099  54.915  1.00  0.00     0.052 C 
HETATM   13  C   UNL     1      28.003  44.809  54.223  1.00  0.00     0.023 A 
ENDROOT
BRANCH  10  14
HETATM   14  N   UNL     1      29.391  42.014  52.214  1.00  0.00    -0.277 NA
HETATM   15  H   UNL     1      30.275  41.978  52.727  1.00  0.00     0.129 HD
BRANCH  14  16
HETATM   16  C   UNL     1      28.731  40.712  52.142  1.00  0.00     0.113 C 
BRANCH  16  17
HETATM   17  C   UNL     1      28.379  40.289  50.710  1.00  0.00     0.137 C 
BRANCH  17  18
HETATM   18  N   UNL     1      26.984  40.466  50.313  1.00  0.00    -0.360 N 
HETATM   19  C   UNL     1      26.487  41.488  49.526  1.00  0.00     0.221 C 
HETATM   20  O   UNL     1      27.188  42.396  49.086  1.00  0.00    -0.273 OA
HETATM   21  H   UNL     1      26.338  39.737  50.595  1.00  0.00     0.162 HD
BRANCH  19  22
HETATM   22  C   UNL     1      24.988  41.381  49.248  1.00  0.00     0.070 C 
HETATM   23  C   UNL     1      24.232  42.522  49.926  1.00  0.00     0.019 C 
HETATM   24  C   UNL     1      24.713  41.382  47.745  1.00  0.00     0.019 C 
ENDBRANCH  19  22
ENDBRANCH  17  18
ENDBRANCH  16  17
ENDBRANCH  14  16
ENDBRANCH  10  14
TORSDOF 5
ENDMDL
