MODEL 1
REMARK VINA RESULT:      -9.3      0.000      0.000
REMARK  6 active torsions:
REMARK  status: ('A' for Active; 'I' for Inactive)
REMARK    1  A    between atoms: C_2  and  O_3 
REMARK    2  A    between atoms: C_2  and  C_4 
REMARK    3  A    between atoms: C_7  and  N_8 
REMARK       I    between atoms: N_8  and  C_9 
REMARK    4  A    between atoms: C_9  and  C_10 
REMARK    5  A    between atoms: C_13  and  C_14 
REMARK    6  A    between atoms: C_19  and  C_20 
ROOT
HETATM    1  C   UNL     1      25.312  45.281  51.544  1.00  0.00     0.096 A 
HETATM    2  C   UNL     1      24.674  45.948  50.513  1.00  0.00     0.138 A 
HETATM    3  N   UNL     1      23.950  44.989  49.841  1.00  0.00    -0.240 N 
HETATM    4  C   UNL     1      23.120  45.258  48.683  1.00  0.00     0.221 C 
HETATM    5  C   UNL     1      22.713  46.742  48.668  1.00  0.00     0.068 C 
HETATM    6  C   UNL     1      23.939  47.641  48.880  1.00  0.00     0.143 C 
HETATM    7  N   UNL     1      24.623  47.247  50.122  1.00  0.00    -0.363 N 
HETATM    8  N   UNL     1      24.113  43.750  50.321  1.00  0.00    -0.181 NA
HETATM    9  C   UNL     1      24.901  43.933  51.382  1.00  0.00     0.160 A 
HETATM   10  H   UNL     1      24.725  48.018  50.785  1.00  0.00     0.162 HD
ENDROOT
BRANCH   1  11
HETATM   11  C   UNL     1      26.230  45.753  52.568  1.00  0.00     0.261 C 
HETATM   12  N   UNL     1      27.181  44.823  52.947  1.00  0.00    -0.323 N 
HETATM   13  H   UNL     1      27.122  43.925  52.480  1.00  0.00     0.169 HD
HETATM   14  O   UNL     1      26.084  46.869  53.052  1.00  0.00    -0.267 OA
BRANCH  12  15
HETATM   15  C   UNL     1      28.114  44.931  53.998  1.00  0.00     0.035 A 
HETATM   16  C   UNL     1      28.109  45.959  54.944  1.00  0.00     0.030 A 
HETATM   17  C   UNL     1      29.027  45.965  56.001  1.00  0.00     0.012 A 
HETATM   18  C   UNL     1      29.976  44.946  56.131  1.00  0.00    -0.030 A 
HETATM   19  C   UNL     1      30.003  43.933  55.162  1.00  0.00     0.012 A 
HETATM   20  C   UNL     1      29.082  43.927  54.108  1.00  0.00     0.030 A 
BRANCH  18  21
HETATM   21  C   UNL     1      30.931  44.940  57.305  1.00  0.00     0.147 C 
HETATM   22  C   UNL     1      31.703  43.637  57.440  1.00  0.00     0.044 C 
BRANCH  21  23
HETATM   23  O   UNL     1      30.209  45.174  58.514  1.00  0.00    -0.391 OA
HETATM   24  H   UNL     1      30.019  44.303  58.904  1.00  0.00     0.210 HD
ENDBRANCH  21  23
ENDBRANCH  18  21
ENDBRANCH  12  15
ENDBRANCH   1  11
BRANCH   4  25
HETATM   25  C   UNL     1      21.877  44.394  48.638  1.00  0.00     0.409 C 
HETATM   26  F   UNL     1      21.278  44.278  49.843  1.00  0.00    -0.169 F 
HETATM   27  F   UNL     1      20.961  44.973  47.811  1.00  0.00    -0.169 F 
HETATM   28  F   UNL     1      22.092  43.160  48.141  1.00  0.00    -0.169 F 
ENDBRANCH   4  25
BRANCH   6  29
HETATM   29  C   UNL     1      23.565  49.096  48.840  1.00  0.00     0.075 A 
HETATM   30  O   UNL     1      22.773  49.545  49.862  1.00  0.00    -0.325 OA
HETATM   31  C   UNL     1      22.570  50.871  49.658  1.00  0.00     0.142 A 
HETATM   32  C   UNL     1      23.214  51.289  48.518  1.00  0.00     0.027 A 
HETATM   33  C   UNL     1      23.860  50.145  47.990  1.00  0.00     0.037 A 
ENDBRANCH   6  29
TORSDOF 6
ENDMDL
MODEL 2
REMARK VINA RESULT:      -9.2      2.917      9.094
REMARK  6 active torsions:
REMARK  status: ('A' for Active; 'I' for Inactive)
REMARK    1  A    between atoms: C_2  and  O_3 
REMARK    2  A    between atoms: C_2  and  C_4 
REMARK    3  A    between atoms: C_7  and  N_8 
REMARK       I    between atoms: N_8  and  C_9 
REMARK    4  A    between atoms: C_9  and  C_10 
REMARK    5  A    between atoms: C_13  and  C_14 
REMARK    6  A    between atoms: C_19  and  C_20 
ROOT
HETATM    1  C   UNL     1      24.015  46.737  49.707  1.00  0.00     0.096 A 
HETATM    2  C   UNL     1      24.651  46.161  50.792  1.00  0.00     0.138 A 
HETATM    3  N   UNL     1      24.892  44.854  50.431  1.00  0.00    -0.240 N 
HETATM    4  C   UNL     1      25.556  43.884  51.280  1.00  0.00     0.221 C 
HETATM    5  C   UNL     1      26.420  44.610  52.324  1.00  0.00     0.068 C 
HETATM    6  C   UNL     1      25.615  45.719  53.016  1.00  0.00     0.143 C 
HETATM    7  N   UNL     1      25.062  46.626  51.999  1.00  0.00    -0.363 N 
HETATM    8  N   UNL     1      24.414  44.527  49.225  1.00  0.00    -0.181 NA
HETATM    9  C   UNL     1      23.923  45.680  48.766  1.00  0.00     0.160 A 
HETATM   10  H   UNL     1      25.335  47.601  52.141  1.00  0.00     0.162 HD
ENDROOT
BRANCH   1  11
HETATM   11  C   UNL     1      23.492  48.079  49.505  1.00  0.00     0.261 C 
HETATM   12  N   UNL     1      22.113  48.141  49.416  1.00  0.00    -0.323 N 
HETATM   13  H   UNL     1      21.631  47.252  49.491  1.00  0.00     0.169 HD
HETATM   14  O   UNL     1      24.263  49.021  49.374  1.00  0.00    -0.267 OA
BRANCH  12  15
HETATM   15  C   UNL     1      21.325  49.264  49.090  1.00  0.00     0.035 A 
HETATM   16  C   UNL     1      20.832  49.527  47.810  1.00  0.00     0.030 A 
HETATM   17  C   UNL     1      20.000  50.628  47.575  1.00  0.00     0.012 A 
HETATM   18  C   UNL     1      19.647  51.494  48.614  1.00  0.00    -0.030 A 
HETATM   19  C   UNL     1      20.169  51.249  49.891  1.00  0.00     0.012 A 
HETATM   20  C   UNL     1      20.999  50.146  50.126  1.00  0.00     0.030 A 
BRANCH  18  21
HETATM   21  C   UNL     1      18.708  52.652  48.354  1.00  0.00     0.147 C 
HETATM   22  C   UNL     1      17.582  52.748  49.373  1.00  0.00     0.044 C 
BRANCH  21  23
HETATM   23  O   UNL     1      18.139  52.528  47.051  1.00  0.00    -0.391 OA
HETATM   24  H   UNL     1      18.501  53.254  46.514  1.00  0.00     0.210 HD
ENDBRANCH  21  23
ENDBRANCH  18  21
ENDBRANCH  12  15
ENDBRANCH   1  11
BRANCH   4  25
HETATM   25  C   UNL     1      26.416  42.911  50.500  1.00  0.00     0.409 C 
HETATM   26  F   UNL     1      27.087  43.505  49.489  1.00  0.00    -0.169 F 
HETATM   27  F   UNL     1      27.362  42.387  51.331  1.00  0.00    -0.169 F 
HETATM   28  F   UNL     1      25.734  41.858  50.008  1.00  0.00    -0.169 F 
ENDBRANCH   4  25
BRANCH   6  29
HETATM   29  C   UNL     1      26.437  46.421  54.060  1.00  0.00     0.075 A 
HETATM   30  O   UNL     1      25.877  47.536  54.622  1.00  0.00    -0.325 OA
HETATM   31  C   UNL     1      26.755  48.004  55.545  1.00  0.00     0.142 A 
HETATM   32  C   UNL     1      27.877  47.213  55.588  1.00  0.00     0.027 A 
HETATM   33  C   UNL     1      27.673  46.188  54.633  1.00  0.00     0.037 A 
ENDBRANCH   6  29
TORSDOF 6
ENDMDL
MODEL 3
REMARK VINA RESULT:      -9.1      3.295      5.693
REMARK  6 active torsions:
REMARK  status: ('A' for Active; 'I' for Inactive)
REMARK    1  A    between atoms: C_2  and  O_3 
REMARK    2  A    between atoms: C_2  and  C_4 
REMARK    3  A    between atoms: C_7  and  N_8 
REMARK       I    between atoms: N_8  and  C_9 
REMARK    4  A    between atoms: C_9  and  C_10 
REMARK    5  A    between atoms: C_13  and  C_14 
REMARK    6  A    between atoms: C_19  and  C_20 
ROOT
HETATM    1  C   UNL     1      25.283  43.825  52.018  1.00  0.00     0.096 A 
HETATM    2  C   UNL     1      25.323  42.751  51.147  1.00  0.00     0.138 A 
HETATM    3  N   UNL     1      24.352  43.001  50.203  1.00  0.00    -0.240 N 
HETATM    4  C   UNL     1      24.056  42.123  49.087  1.00  0.00     0.221 C 
HETATM    5  C   UNL     1      25.279  41.241  48.781  1.00  0.00     0.068 C 
HETATM    6  C   UNL     1      25.812  40.592  50.066  1.00  0.00     0.143 C 
HETATM    7  N   UNL     1      26.097  41.639  51.059  1.00  0.00    -0.363 N 
HETATM    8  N   UNL     1      23.652  44.119  50.427  1.00  0.00    -0.181 NA
HETATM    9  C   UNL     1      24.247  44.644  51.501  1.00  0.00     0.160 A 
HETATM   10  H   UNL     1      27.062  41.621  51.394  1.00  0.00     0.162 HD
ENDROOT
BRANCH   1  11
HETATM   11  C   UNL     1      26.046  44.112  53.222  1.00  0.00     0.261 C 
HETATM   12  N   UNL     1      27.407  44.240  53.012  1.00  0.00    -0.323 N 
HETATM   13  H   UNL     1      27.714  44.111  52.054  1.00  0.00     0.169 HD
HETATM   14  O   UNL     1      25.480  44.164  54.306  1.00  0.00    -0.267 OA
BRANCH  12  15
HETATM   15  C   UNL     1      28.416  44.382  53.987  1.00  0.00     0.035 A 
HETATM   16  C   UNL     1      28.548  45.497  54.817  1.00  0.00     0.030 A 
HETATM   17  C   UNL     1      29.534  45.539  55.810  1.00  0.00     0.012 A 
HETATM   18  C   UNL     1      30.415  44.468  55.990  1.00  0.00    -0.030 A 
HETATM   19  C   UNL     1      30.303  43.363  55.135  1.00  0.00     0.012 A 
HETATM   20  C   UNL     1      29.314  43.321  54.145  1.00  0.00     0.030 A 
BRANCH  18  21
HETATM   21  C   UNL     1      31.445  44.507  57.098  1.00  0.00     0.147 C 
HETATM   22  C   UNL     1      32.108  43.161  57.345  1.00  0.00     0.044 C 
BRANCH  21  23
HETATM   23  O   UNL     1      30.831  44.947  58.310  1.00  0.00    -0.391 OA
HETATM   24  H   UNL     1      29.875  44.790  58.216  1.00  0.00     0.210 HD
ENDBRANCH  21  23
ENDBRANCH  18  21
ENDBRANCH  12  15
ENDBRANCH   1  11
BRANCH   4  25
HETATM   25  C   UNL     1      23.652  42.878  47.838  1.00  0.00     0.409 C 
HETATM   26  F   UNL     1      24.227  44.098  47.758  1.00  0.00    -0.169 F 
HETATM   27  F   UNL     1      24.075  42.185  46.742  1.00  0.00    -0.169 F 
HETATM   28  F   UNL     1      22.319  43.016  47.694  1.00  0.00    -0.169 F 
ENDBRANCH   4  25
BRANCH   6  29
HETATM   29  C   UNL     1      26.991  39.703  49.781  1.00  0.00     0.075 A 
HETATM   30  O   UNL     1      26.714  38.379  49.572  1.00  0.00    -0.325 OA
HETATM   31  C   UNL     1      27.892  37.759  49.311  1.00  0.00     0.142 A 
HETATM   32  C   UNL     1      28.930  38.659  49.351  1.00  0.00     0.027 A 
HETATM   33  C   UNL     1      28.350  39.916  49.650  1.00  0.00     0.037 A 
ENDBRANCH   6  29
TORSDOF 6
ENDMDL
MODEL 4
REMARK VINA RESULT:      -9.0      3.355      8.691
REMARK  6 active torsions:
REMARK  status: ('A' for Active; 'I' for Inactive)
REMARK    1  A    between atoms: C_2  and  O_3 
REMARK    2  A    between atoms: C_2  and  C_4 
REMARK    3  A    between atoms: C_7  and  N_8 
REMARK       I    between atoms: N_8  and  C_9 
REMARK    4  A    between atoms: C_9  and  C_10 
REMARK    5  A    between atoms: C_13  and  C_14 
REMARK    6  A    between atoms: C_19  and  C_20 
ROOT
HETATM    1  C   UNL     1      25.161  42.925  50.619  1.00  0.00     0.096 A 
HETATM    2  C   UNL     1      26.181  42.458  51.428  1.00  0.00     0.138 A 
HETATM    3  N   UNL     1      26.552  41.243  50.897  1.00  0.00    -0.240 N 
HETATM    4  C   UNL     1      27.604  40.405  51.439  1.00  0.00     0.221 C 
HETATM    5  C   UNL     1      28.578  41.261  52.266  1.00  0.00     0.068 C 
HETATM    6  C   UNL     1      27.811  42.153  53.251  1.00  0.00     0.143 C 
HETATM    7  N   UNL     1      26.825  42.959  52.514  1.00  0.00    -0.363 N 
HETATM    8  N   UNL     1      25.817  40.864  49.845  1.00  0.00    -0.181 NA
HETATM    9  C   UNL     1      25.005  41.904  49.646  1.00  0.00     0.160 A 
HETATM   10  H   UNL     1      26.937  43.964  52.663  1.00  0.00     0.162 HD
ENDROOT
BRANCH   1  11
HETATM   11  C   UNL     1      24.356  44.134  50.691  1.00  0.00     0.261 C 
HETATM   12  N   UNL     1      24.242  44.810  49.491  1.00  0.00    -0.323 N 
HETATM   13  H   UNL     1      24.735  44.396  48.708  1.00  0.00     0.169 HD
HETATM   14  O   UNL     1      23.896  44.497  51.767  1.00  0.00    -0.267 OA
BRANCH  12  15
HETATM   15  C   UNL     1      23.648  46.070  49.270  1.00  0.00     0.035 A 
HETATM   16  C   UNL     1      22.419  46.252  48.631  1.00  0.00     0.030 A 
HETATM   17  C   UNL     1      21.859  47.530  48.507  1.00  0.00     0.012 A 
HETATM   18  C   UNL     1      22.519  48.654  49.013  1.00  0.00    -0.030 A 
HETATM   19  C   UNL     1      23.768  48.474  49.624  1.00  0.00     0.012 A 
HETATM   20  C   UNL     1      24.325  47.196  49.751  1.00  0.00     0.030 A 
BRANCH  18  21
HETATM   21  C   UNL     1      21.879  50.022  48.914  1.00  0.00     0.147 C 
HETATM   22  C   UNL     1      22.863  51.114  48.523  1.00  0.00     0.044 C 
BRANCH  21  23
HETATM   23  O   UNL     1      21.283  50.366  50.165  1.00  0.00    -0.391 OA
HETATM   24  H   UNL     1      22.001  50.400  50.821  1.00  0.00     0.210 HD
ENDBRANCH  21  23
ENDBRANCH  18  21
ENDBRANCH  12  15
ENDBRANCH   1  11
BRANCH   4  25
HETATM   25  C   UNL     1      28.371  39.660  50.366  1.00  0.00     0.409 C 
HETATM   26  F   UNL     1      28.777  40.466  49.361  1.00  0.00    -0.169 F 
HETATM   27  F   UNL     1      29.504  39.133  50.913  1.00  0.00    -0.169 F 
HETATM   28  F   UNL     1      27.697  38.618  49.841  1.00  0.00    -0.169 F 
ENDBRANCH   4  25
BRANCH   6  29
HETATM   29  C   UNL     1      28.749  42.977  54.088  1.00  0.00     0.075 A 
HETATM   30  O   UNL     1      28.275  44.186  54.517  1.00  0.00    -0.325 OA
HETATM   31  C   UNL     1      29.251  44.758  55.266  1.00  0.00     0.142 A 
HETATM   32  C   UNL     1      30.353  43.939  55.328  1.00  0.00     0.027 A 
HETATM   33  C   UNL     1      30.031  42.787  54.570  1.00  0.00     0.037 A 
ENDBRANCH   6  29
TORSDOF 6
ENDMDL
MODEL 5
REMARK VINA RESULT:      -8.8      1.636      2.264
REMARK  6 active torsions:
REMARK  status: ('A' for Active; 'I' for Inactive)
REMARK    1  A    between atoms: C_2  and  O_3 
REMARK    2  A    between atoms: C_2  and  C_4 
REMARK    3  A    between atoms: C_7  and  N_8 
REMARK       I    between atoms: N_8  and  C_9 
REMARK    4  A    between atoms: C_9  and  C_10 
REMARK    5  A    between atoms: C_13  and  C_14 
REMARK    6  A    between atoms: C_19  and  C_20 
ROOT
HETATM    1  C   UNL     1      24.663  46.055  50.092  1.00  0.00     0.096 A 
HETATM    2  C   UNL     1      23.629  46.710  49.449  1.00  0.00     0.138 A 
HETATM    3  N   UNL     1      23.174  45.837  48.487  1.00  0.00    -0.240 N 
HETATM    4  C   UNL     1      22.080  46.122  47.580  1.00  0.00     0.221 C 
HETATM    5  C   UNL     1      21.174  47.210  48.182  1.00  0.00     0.068 C 
HETATM    6  C   UNL     1      22.011  48.399  48.673  1.00  0.00     0.143 C 
HETATM    7  N   UNL     1      23.034  47.920  49.615  1.00  0.00    -0.363 N 
HETATM    8  N   UNL     1      23.867  44.694  48.421  1.00  0.00    -0.181 NA
HETATM    9  C   UNL     1      24.740  44.805  49.424  1.00  0.00     0.160 A 
HETATM   10  H   UNL     1      22.988  48.382  50.526  1.00  0.00     0.162 HD
ENDROOT
BRANCH   1  11
HETATM   11  C   UNL     1      25.543  46.477  51.169  1.00  0.00     0.261 C 
HETATM   12  N   UNL     1      26.092  45.434  51.893  1.00  0.00    -0.323 N 
HETATM   13  H   UNL     1      25.812  44.505  51.600  1.00  0.00     0.169 HD
HETATM   14  O   UNL     1      25.698  47.670  51.400  1.00  0.00    -0.267 OA
BRANCH  12  15
HETATM   15  C   UNL     1      26.867  45.521  53.068  1.00  0.00     0.035 A 
HETATM   16  C   UNL     1      27.827  44.578  53.441  1.00  0.00     0.030 A 
HETATM   17  C   UNL     1      28.606  44.765  54.590  1.00  0.00     0.012 A 
HETATM   18  C   UNL     1      28.438  45.896  55.394  1.00  0.00    -0.030 A 
HETATM   19  C   UNL     1      27.450  46.825  55.037  1.00  0.00     0.012 A 
HETATM   20  C   UNL     1      26.674  46.639  53.887  1.00  0.00     0.030 A 
BRANCH  18  21
HETATM   21  C   UNL     1      29.320  46.108  56.605  1.00  0.00     0.147 C 
HETATM   22  C   UNL     1      30.387  45.036  56.762  1.00  0.00     0.044 C 
BRANCH  21  23
HETATM   23  O   UNL     1      28.518  46.135  57.786  1.00  0.00    -0.391 OA
HETATM   24  H   UNL     1      28.609  47.025  58.170  1.00  0.00     0.210 HD
ENDBRANCH  21  23
ENDBRANCH  18  21
ENDBRANCH  12  15
ENDBRANCH   1  11
BRANCH   4  25
HETATM   25  C   UNL     1      21.250  44.897  47.256  1.00  0.00     0.409 C 
HETATM   26  F   UNL     1      20.905  44.195  48.358  1.00  0.00    -0.169 F 
HETATM   27  F   UNL     1      20.082  45.290  46.673  1.00  0.00    -0.169 F 
HETATM   28  F   UNL     1      21.837  44.061  46.376  1.00  0.00    -0.169 F 
ENDBRANCH   4  25
BRANCH   6  29
HETATM   29  C   UNL     1      21.139  49.485  49.240  1.00  0.00     0.075 A 
HETATM   30  O   UNL     1      19.992  49.076  49.865  1.00  0.00    -0.325 OA
HETATM   31  C   UNL     1      19.365  50.189  50.321  1.00  0.00     0.142 A 
HETATM   32  C   UNL     1      20.085  51.315  49.999  1.00  0.00     0.027 A 
HETATM   33  C   UNL     1      21.232  50.862  49.303  1.00  0.00     0.037 A 
ENDBRANCH   6  29
TORSDOF 6
ENDMDL
MODEL 6
REMARK VINA RESULT:      -8.4      4.741      9.465
REMARK  6 active torsions:
REMARK  status: ('A' for Active; 'I' for Inactive)
REMARK    1  A    between atoms: C_2  and  O_3 
REMARK    2  A    between atoms: C_2  and  C_4 
REMARK    3  A    between atoms: C_7  and  N_8 
REMARK       I    between atoms: N_8  and  C_9 
REMARK    4  A    between atoms: C_9  and  C_10 
REMARK    5  A    between atoms: C_13  and  C_14 
REMARK    6  A    between atoms: C_19  and  C_20 
ROOT
HETATM    1  C   UNL     1      23.544  46.885  49.314  1.00  0.00     0.096 A 
HETATM    2  C   UNL     1      23.835  45.565  49.022  1.00  0.00     0.138 A 
HETATM    3  N   UNL     1      24.880  45.222  49.850  1.00  0.00    -0.240 N 
HETATM    4  C   UNL     1      25.500  43.911  49.879  1.00  0.00     0.221 C 
HETATM    5  C   UNL     1      24.521  42.860  49.328  1.00  0.00     0.068 C 
HETATM    6  C   UNL     1      23.921  43.327  47.994  1.00  0.00     0.143 C 
HETATM    7  N   UNL     1      23.300  44.648  48.175  1.00  0.00    -0.363 N 
HETATM    8  N   UNL     1      25.321  46.229  50.613  1.00  0.00    -0.181 NA
HETATM    9  C   UNL     1      24.481  47.225  50.323  1.00  0.00     0.160 A 
HETATM   10  H   UNL     1      22.314  44.667  47.907  1.00  0.00     0.162 HD
ENDROOT
BRANCH   1  11
HETATM   11  C   UNL     1      22.563  47.798  48.749  1.00  0.00     0.261 C 
HETATM   12  N   UNL     1      22.060  48.717  49.652  1.00  0.00    -0.323 N 
HETATM   13  H   UNL     1      22.420  48.642  50.596  1.00  0.00     0.169 HD
HETATM   14  O   UNL     1      22.214  47.673  47.582  1.00  0.00    -0.267 OA
BRANCH  12  15
HETATM   15  C   UNL     1      21.009  49.635  49.445  1.00  0.00     0.035 A 
HETATM   16  C   UNL     1      19.724  49.482  49.971  1.00  0.00     0.030 A 
HETATM   17  C   UNL     1      18.749  50.468  49.779  1.00  0.00     0.012 A 
HETATM   18  C   UNL     1      19.036  51.627  49.051  1.00  0.00    -0.030 A 
HETATM   19  C   UNL     1      20.316  51.764  48.495  1.00  0.00     0.012 A 
HETATM   20  C   UNL     1      21.290  50.779  48.690  1.00  0.00     0.030 A 
BRANCH  18  21
HETATM   21  C   UNL     1      17.987  52.707  48.892  1.00  0.00     0.147 C 
HETATM   22  C   UNL     1      16.835  52.568  49.875  1.00  0.00     0.044 C 
BRANCH  21  23
HETATM   23  O   UNL     1      17.466  52.679  47.564  1.00  0.00    -0.391 OA
HETATM   24  H   UNL     1      17.256  53.598  47.323  1.00  0.00     0.210 HD
ENDBRANCH  21  23
ENDBRANCH  18  21
ENDBRANCH  12  15
ENDBRANCH   1  11
BRANCH   4  25
HETATM   25  C   UNL     1      25.949  43.504  51.267  1.00  0.00     0.409 C 
HETATM   26  F   UNL     1      25.020  43.764  52.213  1.00  0.00    -0.169 F 
HETATM   27  F   UNL     1      26.152  42.156  51.293  1.00  0.00    -0.169 F 
HETATM   28  F   UNL     1      27.118  44.060  51.644  1.00  0.00    -0.169 F 
ENDBRANCH   4  25
BRANCH   6  29
HETATM   29  C   UNL     1      22.983  42.298  47.427  1.00  0.00     0.075 A 
HETATM   30  O   UNL     1      23.058  41.045  47.971  1.00  0.00    -0.325 OA
HETATM   31  C   UNL     1      22.127  40.281  47.347  1.00  0.00     0.142 A 
HETATM   32  C   UNL     1      21.451  41.017  46.404  1.00  0.00     0.027 A 
HETATM   33  C   UNL     1      21.999  42.321  46.457  1.00  0.00     0.037 A 
ENDBRANCH   6  29
TORSDOF 6
ENDMDL
MODEL 7
REMARK VINA RESULT:      -8.3      4.061      9.381
REMARK  6 active torsions:
REMARK  status: ('A' for Active; 'I' for Inactive)
REMARK    1  A    between atoms: C_2  and  O_3 
REMARK    2  A    between atoms: C_2  and  C_4 
REMARK    3  A    between atoms: C_7  and  N_8 
REMARK       I    between atoms: N_8  and  C_9 
REMARK    4  A    between atoms: C_9  and  C_10 
REMARK    5  A    between atoms: C_13  and  C_14 
REMARK    6  A    between atoms: C_19  and  C_20 
ROOT
HETATM    1  C   UNL     1      24.861  46.375  50.467  1.00  0.00     0.096 A 
HETATM    2  C   UNL     1      25.656  45.251  50.339  1.00  0.00     0.138 A 
HETATM    3  N   UNL     1      26.426  45.207  51.481  1.00  0.00    -0.240 N 
HETATM    4  C   UNL     1      27.404  44.175  51.764  1.00  0.00     0.221 C 
HETATM    5  C   UNL     1      27.071  42.907  50.960  1.00  0.00     0.068 C 
HETATM    6  C   UNL     1      26.818  43.251  49.486  1.00  0.00     0.143 C 
HETATM    7  N   UNL     1      25.766  44.277  49.399  1.00  0.00    -0.363 N 
HETATM    8  N   UNL     1      26.229  46.241  52.307  1.00  0.00    -0.181 NA
HETATM    9  C   UNL     1      25.247  46.924  51.716  1.00  0.00     0.160 A 
HETATM   10  H   UNL     1      24.976  43.991  48.818  1.00  0.00     0.162 HD
ENDROOT
BRANCH   1  11
HETATM   11  C   UNL     1      23.871  46.955  49.574  1.00  0.00     0.261 C 
HETATM   12  N   UNL     1      23.479  48.236  49.919  1.00  0.00    -0.323 N 
HETATM   13  H   UNL     1      23.914  48.614  50.753  1.00  0.00     0.169 HD
HETATM   14  O   UNL     1      23.422  46.292  48.647  1.00  0.00    -0.267 OA
BRANCH  12  15
HETATM   15  C   UNL     1      22.450  49.003  49.336  1.00  0.00     0.035 A 
HETATM   16  C   UNL     1      22.595  50.337  48.948  1.00  0.00     0.030 A 
HETATM   17  C   UNL     1      21.548  51.017  48.314  1.00  0.00     0.012 A 
HETATM   18  C   UNL     1      20.330  50.379  48.059  1.00  0.00    -0.030 A 
HETATM   19  C   UNL     1      20.174  49.051  48.479  1.00  0.00     0.012 A 
HETATM   20  C   UNL     1      21.222  48.371  49.110  1.00  0.00     0.030 A 
BRANCH  18  21
HETATM   21  C   UNL     1      19.225  51.111  47.330  1.00  0.00     0.147 C 
HETATM   22  C   UNL     1      18.687  52.305  48.104  1.00  0.00     0.044 C 
BRANCH  21  23
HETATM   23  O   UNL     1      18.148  50.213  47.062  1.00  0.00    -0.391 OA
HETATM   24  H   UNL     1      17.429  50.741  46.674  1.00  0.00     0.210 HD
ENDBRANCH  21  23
ENDBRANCH  18  21
ENDBRANCH  12  15
ENDBRANCH   1  11
BRANCH   4  25
HETATM   25  C   UNL     1      27.486  43.833  53.237  1.00  0.00     0.409 C 
HETATM   26  F   UNL     1      26.270  43.738  53.819  1.00  0.00    -0.169 F 
HETATM   27  F   UNL     1      28.073  42.610  53.379  1.00  0.00    -0.169 F 
HETATM   28  F   UNL     1      28.243  44.688  53.952  1.00  0.00    -0.169 F 
ENDBRANCH   4  25
BRANCH   6  29
HETATM   29  C   UNL     1      26.518  42.019  48.680  1.00  0.00     0.075 A 
HETATM   30  O   UNL     1      27.528  41.559  47.879  1.00  0.00    -0.325 OA
HETATM   31  C   UNL     1      27.072  40.441  47.261  1.00  0.00     0.142 A 
HETATM   32  C   UNL     1      25.781  40.169  47.645  1.00  0.00     0.027 A 
HETATM   33  C   UNL     1      25.422  41.185  48.564  1.00  0.00     0.037 A 
ENDBRANCH   6  29
TORSDOF 6
ENDMDL
MODEL 8
REMARK VINA RESULT:      -8.2      3.608      8.571
REMARK  6 active torsions:
REMARK  status: ('A' for Active; 'I' for Inactive)
REMARK    1  A    between atoms: C_2  and  O_3 
REMARK    2  A    between atoms: C_2  and  C_4 
REMARK    3  A    between atoms: C_7  and  N_8 
REMARK       I    between atoms: N_8  and  C_9 
REMARK    4  A    between atoms: C_9  and  C_10 
REMARK    5  A    between atoms: C_13  and  C_14 
REMARK    6  A    between atoms: C_19  and  C_20 
ROOT
HETATM    1  C   UNL     1      25.000  43.411  51.014  1.00  0.00     0.096 A 
HETATM    2  C   UNL     1      25.745  43.771  52.123  1.00  0.00     0.138 A 
HETATM    3  N   UNL     1      26.642  42.745  52.318  1.00  0.00    -0.240 N 
HETATM    4  C   UNL     1      27.629  42.718  53.380  1.00  0.00     0.221 C 
HETATM    5  C   UNL     1      27.915  44.150  53.862  1.00  0.00     0.068 C 
HETATM    6  C   UNL     1      26.604  44.900  54.138  1.00  0.00     0.143 C 
HETATM    7  N   UNL     1      25.758  44.859  52.935  1.00  0.00    -0.363 N 
HETATM    8  N   UNL     1      26.501  41.729  51.459  1.00  0.00    -0.181 NA
HETATM    9  C   UNL     1      25.536  42.152  50.639  1.00  0.00     0.160 A 
HETATM   10  H   UNL     1      25.488  45.787  52.603  1.00  0.00     0.162 HD
ENDROOT
BRANCH   1  11
HETATM   11  C   UNL     1      23.891  44.074  50.347  1.00  0.00     0.261 C 
HETATM   12  N   UNL     1      24.237  45.251  49.709  1.00  0.00    -0.323 N 
HETATM   13  H   UNL     1      25.211  45.519  49.787  1.00  0.00     0.169 HD
HETATM   14  O   UNL     1      22.762  43.608  50.432  1.00  0.00    -0.267 OA
BRANCH  12  15
HETATM   15  C   UNL     1      23.371  46.180  49.097  1.00  0.00     0.035 A 
HETATM   16  C   UNL     1      22.337  45.829  48.227  1.00  0.00     0.030 A 
HETATM   17  C   UNL     1      21.474  46.802  47.709  1.00  0.00     0.012 A 
HETATM   18  C   UNL     1      21.629  48.150  48.046  1.00  0.00    -0.030 A 
HETATM   19  C   UNL     1      22.688  48.507  48.894  1.00  0.00     0.012 A 
HETATM   20  C   UNL     1      23.548  47.532  49.413  1.00  0.00     0.030 A 
BRANCH  18  21
HETATM   21  C   UNL     1      20.659  49.185  47.517  1.00  0.00     0.147 C 
HETATM   22  C   UNL     1      20.957  50.591  48.014  1.00  0.00     0.044 C 
BRANCH  21  23
HETATM   23  O   UNL     1      19.329  48.834  47.897  1.00  0.00    -0.391 OA
HETATM   24  H   UNL     1      18.735  49.482  47.479  1.00  0.00     0.210 HD
ENDBRANCH  21  23
ENDBRANCH  18  21
ENDBRANCH  12  15
ENDBRANCH   1  11
BRANCH   4  25
HETATM   25  C   UNL     1      28.926  42.058  52.960  1.00  0.00     0.409 C 
HETATM   26  F   UNL     1      29.981  42.467  53.698  1.00  0.00    -0.169 F 
HETATM   27  F   UNL     1      28.825  40.712  53.154  1.00  0.00    -0.169 F 
HETATM   28  F   UNL     1      29.220  42.220  51.655  1.00  0.00    -0.169 F 
ENDBRANCH   4  25
BRANCH   6  29
HETATM   29  C   UNL     1      26.865  46.293  54.637  1.00  0.00     0.075 A 
HETATM   30  O   UNL     1      25.768  47.097  54.790  1.00  0.00    -0.325 OA
HETATM   31  C   UNL     1      26.208  48.289  55.266  1.00  0.00     0.142 A 
HETATM   32  C   UNL     1      27.573  48.273  55.421  1.00  0.00     0.027 A 
HETATM   33  C   UNL     1      28.000  46.984  55.019  1.00  0.00     0.037 A 
ENDBRANCH   6  29
TORSDOF 6
ENDMDL
MODEL 9
REMARK VINA RESULT:      -8.2      5.011      9.876
REMARK  6 active torsions:
REMARK  status: ('A' for Active; 'I' for Inactive)
REMARK    1  A    between atoms: C_2  and  O_3 
REMARK    2  A    between atoms: C_2  and  C_4 
REMARK    3  A    between atoms: C_7  and  N_8 
REMARK       I    between atoms: N_8  and  C_9 
REMARK    4  A    between atoms: C_9  and  C_10 
REMARK    5  A    between atoms: C_13  and  C_14 
REMARK    6  A    between atoms: C_19  and  C_20 
ROOT
HETATM    1  C   UNL     1      20.567  47.011  48.466  1.00  0.00     0.096 A 
HETATM    2  C   UNL     1      21.861  46.764  48.887  1.00  0.00     0.138 A 
HETATM    3  N   UNL     1      21.948  45.399  49.042  1.00  0.00    -0.240 N 
HETATM    4  C   UNL     1      23.146  44.702  49.468  1.00  0.00     0.221 C 
HETATM    5  C   UNL     1      24.384  45.566  49.172  1.00  0.00     0.068 C 
HETATM    6  C   UNL     1      24.180  46.997  49.687  1.00  0.00     0.143 C 
HETATM    7  N   UNL     1      22.944  47.551  49.112  1.00  0.00    -0.363 N 
HETATM    8  N   UNL     1      20.800  44.752  48.809  1.00  0.00    -0.181 NA
HETATM    9  C   UNL     1      19.974  45.724  48.414  1.00  0.00     0.160 A 
HETATM   10  H   UNL     1      23.096  48.425  48.604  1.00  0.00     0.162 HD
ENDROOT
BRANCH   1  11
HETATM   11  C   UNL     1      19.878  48.256  48.167  1.00  0.00     0.261 C 
HETATM   12  N   UNL     1      19.129  48.755  49.217  1.00  0.00    -0.323 N 
HETATM   13  H   UNL     1      19.138  48.196  50.062  1.00  0.00     0.169 HD
HETATM   14  O   UNL     1      19.949  48.739  47.043  1.00  0.00    -0.267 OA
BRANCH  12  15
HETATM   15  C   UNL     1      18.251  49.858  49.195  1.00  0.00     0.035 A 
HETATM   16  C   UNL     1      16.969  49.824  48.641  1.00  0.00     0.030 A 
HETATM   17  C   UNL     1      16.126  50.941  48.715  1.00  0.00     0.012 A 
HETATM   18  C   UNL     1      16.550  52.118  49.340  1.00  0.00    -0.030 A 
HETATM   19  C   UNL     1      17.849  52.162  49.866  1.00  0.00     0.012 A 
HETATM   20  C   UNL     1      18.689  51.045  49.794  1.00  0.00     0.030 A 
BRANCH  18  21
HETATM   21  C   UNL     1      15.612  53.300  49.455  1.00  0.00     0.147 C 
HETATM   22  C   UNL     1      14.405  53.020  50.337  1.00  0.00     0.044 C 
BRANCH  21  23
HETATM   23  O   UNL     1      15.155  53.679  48.157  1.00  0.00    -0.391 OA
HETATM   24  H   UNL     1      14.629  52.936  47.814  1.00  0.00     0.210 HD
ENDBRANCH  21  23
ENDBRANCH  18  21
ENDBRANCH  12  15
ENDBRANCH   1  11
BRANCH   4  25
HETATM   25  C   UNL     1      23.305  43.348  48.808  1.00  0.00     0.409 C 
HETATM   26  F   UNL     1      24.586  42.920  48.799  1.00  0.00    -0.169 F 
HETATM   27  F   UNL     1      22.598  42.421  49.515  1.00  0.00    -0.169 F 
HETATM   28  F   UNL     1      22.822  43.298  47.550  1.00  0.00    -0.169 F 
ENDBRANCH   4  25
BRANCH   6  29
HETATM   29  C   UNL     1      25.392  47.849  49.431  1.00  0.00     0.075 A 
HETATM   30  O   UNL     1      25.180  49.013  48.744  1.00  0.00    -0.325 OA
HETATM   31  C   UNL     1      26.378  49.640  48.638  1.00  0.00     0.142 A 
HETATM   32  C   UNL     1      27.366  48.900  49.241  1.00  0.00     0.027 A 
HETATM   33  C   UNL     1      26.731  47.744  49.757  1.00  0.00     0.037 A 
ENDBRANCH   6  29
TORSDOF 6
ENDMDL
MODEL 10
REMARK VINA RESULT:      -8.2      3.273      5.078
REMARK  6 active torsions:
REMARK  status: ('A' for Active; 'I' for Inactive)
REMARK    1  A    between atoms: C_2  and  O_3 
REMARK    2  A    between atoms: C_2  and  C_4 
REMARK    3  A    between atoms: C_7  and  N_8 
REMARK       I    between atoms: N_8  and  C_9 
REMARK    4  A    between atoms: C_9  and  C_10 
REMARK    5  A    between atoms: C_13  and  C_14 
REMARK    6  A    between atoms: C_19  and  C_20 
ROOT
HETATM    1  C   UNL     1      24.406  47.365  49.646  1.00  0.00     0.096 A 
HETATM    2  C   UNL     1      23.108  47.328  49.170  1.00  0.00     0.138 A 
HETATM    3  N   UNL     1      22.699  48.641  49.100  1.00  0.00    -0.240 N 
HETATM    4  C   UNL     1      21.391  49.064  48.639  1.00  0.00     0.221 C 
HETATM    5  C   UNL     1      20.777  47.973  47.745  1.00  0.00     0.068 C 
HETATM    6  C   UNL     1      20.876  46.599  48.422  1.00  0.00     0.143 C 
HETATM    7  N   UNL     1      22.279  46.329  48.773  1.00  0.00    -0.363 N 
HETATM    8  N   UNL     1      23.609  49.517  49.544  1.00  0.00    -0.181 NA
HETATM    9  C   UNL     1      24.661  48.748  49.832  1.00  0.00     0.160 A 
HETATM   10  H   UNL     1      22.632  45.458  48.370  1.00  0.00     0.162 HD
ENDROOT
BRANCH   1  11
HETATM   11  C   UNL     1      25.344  46.298  49.955  1.00  0.00     0.261 C 
HETATM   12  N   UNL     1      25.231  45.799  51.239  1.00  0.00    -0.323 N 
HETATM   13  H   UNL     1      24.521  46.237  51.816  1.00  0.00     0.169 HD
HETATM   14  O   UNL     1      26.177  45.958  49.123  1.00  0.00    -0.267 OA
BRANCH  12  15
HETATM   15  C   UNL     1      26.077  44.866  51.874  1.00  0.00     0.035 A 
HETATM   16  C   UNL     1      26.158  43.518  51.519  1.00  0.00     0.030 A 
HETATM   17  C   UNL     1      27.071  42.665  52.151  1.00  0.00     0.012 A 
HETATM   18  C   UNL     1      27.919  43.140  53.156  1.00  0.00    -0.030 A 
HETATM   19  C   UNL     1      27.814  44.486  53.535  1.00  0.00     0.012 A 
HETATM   20  C   UNL     1      26.903  45.338  52.900  1.00  0.00     0.030 A 
BRANCH  18  21
HETATM   21  C   UNL     1      28.934  42.217  53.796  1.00  0.00     0.147 C 
HETATM   22  C   UNL     1      29.898  42.941  54.723  1.00  0.00     0.044 C 
BRANCH  21  23
HETATM   23  O   UNL     1      29.685  41.551  52.781  1.00  0.00    -0.391 OA
HETATM   24  H   UNL     1      29.703  40.607  53.016  1.00  0.00     0.210 HD
ENDBRANCH  21  23
ENDBRANCH  18  21
ENDBRANCH  12  15
ENDBRANCH   1  11
BRANCH   4  25
HETATM   25  C   UNL     1      21.429  50.375  47.883  1.00  0.00     0.409 C 
HETATM   26  F   UNL     1      22.550  50.516  47.141  1.00  0.00    -0.169 F 
HETATM   27  F   UNL     1      20.385  50.416  47.007  1.00  0.00    -0.169 F 
HETATM   28  F   UNL     1      21.291  51.461  48.670  1.00  0.00    -0.169 F 
ENDBRANCH   4  25
BRANCH   6  29
HETATM   29  C   UNL     1      20.255  45.525  47.574  1.00  0.00     0.075 A 
HETATM   30  O   UNL     1      21.101  44.847  46.740  1.00  0.00    -0.325 OA
HETATM   31  C   UNL     1      20.361  43.917  46.087  1.00  0.00     0.142 A 
HETATM   32  C   UNL     1      19.046  43.982  46.481  1.00  0.00     0.027 A 
HETATM   33  C   UNL     1      18.975  45.018  47.443  1.00  0.00     0.037 A 
ENDBRANCH   6  29
TORSDOF 6
ENDMDL
