MODEL 1
REMARK VINA RESULT:      -7.7      0.000      0.000
REMARK  6 active torsions:
REMARK  status: ('A' for Active; 'I' for Inactive)
REMARK    1  A    between atoms: N_2  and  C_4 
REMARK    2  A    between atoms: N_2  and  C_11 
REMARK    3  A    between atoms: C_4  and  C_5 
REMARK    4  A    between atoms: C_5  and  O_6 
REMARK    5  A    between atoms: C_11  and  C_12 
REMARK    6  A    between atoms: C_13  and  C_14 
ROOT
HETATM    1  C   UNL     1      26.671  45.331  53.874  1.00  0.00     0.016 A 
HETATM    2  C   UNL     1      27.805  45.813  54.607  1.00  0.00     0.096 A 
HETATM    3  N   UNL     1      27.750  47.142  54.743  1.00  0.00    -0.174 NA
HETATM    4  N   UNL     1      26.586  47.507  54.200  1.00  0.00    -0.288 N 
HETATM    5  H   UNL     1      26.327  48.490  54.233  1.00  0.00     0.188 HD
HETATM    6  C   UNL     1      25.899  46.459  53.656  1.00  0.00     0.120 A 
ENDROOT
BRANCH   1   7
HETATM    7  C   UNL     1      26.401  43.925  53.471  1.00  0.00     0.277 C 
BRANCH   7   8
HETATM    8  N   UNL     1      26.745  43.602  52.031  1.00  0.00    -0.068 N 
HETATM    9  C   UNL     1      27.492  42.294  51.921  1.00  0.00     0.270 C 
HETATM   10  H   UNL     1      27.385  44.335  51.715  1.00  0.00     0.279 HD
BRANCH   8  11
HETATM   11  C   UNL     1      25.494  43.652  51.155  1.00  0.00     0.272 C 
BRANCH  11  12
HETATM   12  C   UNL     1      25.499  44.806  50.125  1.00  0.00     0.082 C 
HETATM   13  C   UNL     1      24.424  45.848  50.458  1.00  0.00     0.039 C 
HETATM   14  C   UNL     1      24.907  47.104  49.747  1.00  0.00     0.003 C 
HETATM   15  C   UNL     1      26.415  47.079  49.944  1.00  0.00     0.003 C 
HETATM   16  C   UNL     1      26.811  45.604  50.084  1.00  0.00     0.039 C 
BRANCH  12  17
HETATM   17  O   UNL     1      25.235  44.262  48.828  1.00  0.00    -0.388 OA
HETATM   18  H   UNL     1      25.748  44.756  48.160  1.00  0.00     0.210 HD
ENDBRANCH  12  17
ENDBRANCH  11  12
ENDBRANCH   8  11
ENDBRANCH   7   8
ENDBRANCH   1   7
BRANCH   2  19
HETATM   19  C   UNL     1      28.929  45.057  55.155  1.00  0.00    -0.003 A 
HETATM   20  C   UNL     1      29.496  45.407  56.386  1.00  0.00     0.037 A 
HETATM   21  C   UNL     1      30.557  44.661  56.903  1.00  0.00     0.035 A 
HETATM   22 CL   UNL     1      31.221  45.088  58.432  1.00  0.00    -0.084 Cl
HETATM   23  C   UNL     1      31.075  43.578  56.197  1.00  0.00     0.024 A 
HETATM   24  C   UNL     1      30.532  43.240  54.959  1.00  0.00     0.003 A 
HETATM   25  C   UNL     1      29.465  43.977  54.440  1.00  0.00     0.014 A 
ENDBRANCH   2  19
TORSDOF 6
ENDMDL
MODEL 2
REMARK VINA RESULT:      -7.6     12.763     14.204
REMARK  6 active torsions:
REMARK  status: ('A' for Active; 'I' for Inactive)
REMARK    1  A    between atoms: N_2  and  C_4 
REMARK    2  A    between atoms: N_2  and  C_11 
REMARK    3  A    between atoms: C_4  and  C_5 
REMARK    4  A    between atoms: C_5  and  O_6 
REMARK    5  A    between atoms: C_11  and  C_12 
REMARK    6  A    between atoms: C_13  and  C_14 
ROOT
HETATM    1  C   UNL     1      31.434  50.176  39.844  1.00  0.00     0.016 A 
HETATM    2  C   UNL     1      32.131  49.698  41.002  1.00  0.00     0.096 A 
HETATM    3  N   UNL     1      32.162  48.360  41.016  1.00  0.00    -0.174 NA
HETATM    4  N   UNL     1      31.588  47.980  39.873  1.00  0.00    -0.288 N 
HETATM    5  H   UNL     1      31.544  46.985  39.666  1.00  0.00     0.188 HD
HETATM    6  C   UNL     1      31.125  49.030  39.132  1.00  0.00     0.120 A 
ENDROOT
BRANCH   1   7
HETATM    7  C   UNL     1      31.141  51.593  39.500  1.00  0.00     0.277 C 
BRANCH   7   8
HETATM    8  N   UNL     1      30.276  52.323  40.509  1.00  0.00    -0.068 N 
HETATM    9  C   UNL     1      30.872  53.659  40.885  1.00  0.00     0.270 C 
HETATM   10  H   UNL     1      30.275  51.750  41.357  1.00  0.00     0.279 HD
BRANCH   8  11
HETATM   11  C   UNL     1      28.838  52.430  40.005  1.00  0.00     0.272 C 
BRANCH  11  12
HETATM   12  C   UNL     1      27.894  51.347  40.578  1.00  0.00     0.082 C 
HETATM   13  C   UNL     1      27.436  50.377  39.481  1.00  0.00     0.039 C 
HETATM   14  C   UNL     1      27.017  49.133  40.252  1.00  0.00     0.003 C 
HETATM   15  C   UNL     1      28.053  49.023  41.361  1.00  0.00     0.003 C 
HETATM   16  C   UNL     1      28.542  50.450  41.642  1.00  0.00     0.039 C 
BRANCH  12  17
HETATM   17  O   UNL     1      26.745  51.992  41.138  1.00  0.00    -0.388 OA
HETATM   18  H   UNL     1      26.351  52.585  40.471  1.00  0.00     0.210 HD
ENDBRANCH  12  17
ENDBRANCH  11  12
ENDBRANCH   8  11
ENDBRANCH   7   8
ENDBRANCH   1   7
BRANCH   2  19
HETATM   19  C   UNL     1      32.740  50.465  42.086  1.00  0.00    -0.003 A 
HETATM   20  C   UNL     1      34.085  50.848  42.027  1.00  0.00     0.037 A 
HETATM   21  C   UNL     1      34.644  51.597  43.062  1.00  0.00     0.035 A 
HETATM   22 CL   UNL     1      36.291  52.084  42.957  1.00  0.00    -0.084 Cl
HETATM   23  C   UNL     1      33.882  51.958  44.171  1.00  0.00     0.024 A 
HETATM   24  C   UNL     1      32.548  51.559  44.248  1.00  0.00     0.003 A 
HETATM   25  C   UNL     1      31.980  50.816  43.211  1.00  0.00     0.014 A 
ENDBRANCH   2  19
TORSDOF 6
ENDMDL
MODEL 3
REMARK VINA RESULT:      -7.6      2.327      4.444
REMARK  6 active torsions:
REMARK  status: ('A' for Active; 'I' for Inactive)
REMARK    1  A    between atoms: N_2  and  C_4 
REMARK    2  A    between atoms: N_2  and  C_11 
REMARK    3  A    between atoms: C_4  and  C_5 
REMARK    4  A    between atoms: C_5  and  O_6 
REMARK    5  A    between atoms: C_11  and  C_12 
REMARK    6  A    between atoms: C_13  and  C_14 
ROOT
HETATM    1  C   UNL     1      25.146  45.377  51.741  1.00  0.00     0.016 A 
HETATM    2  C   UNL     1      25.775  46.577  52.209  1.00  0.00     0.096 A 
HETATM    3  N   UNL     1      25.737  47.528  51.269  1.00  0.00    -0.174 NA
HETATM    4  N   UNL     1      25.036  47.004  50.261  1.00  0.00    -0.288 N 
HETATM    5  H   UNL     1      24.856  47.587  49.448  1.00  0.00     0.188 HD
HETATM    6  C   UNL     1      24.661  45.710  50.488  1.00  0.00     0.120 A 
ENDROOT
BRANCH   1   7
HETATM    7  C   UNL     1      25.036  44.084  52.469  1.00  0.00     0.277 C 
BRANCH   7   8
HETATM    8  N   UNL     1      25.754  42.924  51.810  1.00  0.00    -0.068 N 
HETATM    9  C   UNL     1      24.943  42.346  50.674  1.00  0.00     0.270 C 
HETATM   10  H   UNL     1      25.832  42.191  52.520  1.00  0.00     0.279 HD
BRANCH   8  11
HETATM   11  C   UNL     1      27.165  43.333  51.390  1.00  0.00     0.272 C 
BRANCH  11  12
HETATM   12  C   UNL     1      28.282  42.525  52.090  1.00  0.00     0.082 C 
HETATM   13  C   UNL     1      29.534  43.386  52.307  1.00  0.00     0.039 C 
HETATM   14  C   UNL     1      30.268  42.677  53.436  1.00  0.00     0.003 C 
HETATM   15  C   UNL     1      29.155  42.221  54.367  1.00  0.00     0.003 C 
HETATM   16  C   UNL     1      27.910  42.025  53.493  1.00  0.00     0.039 C 
BRANCH  12  17
HETATM   17  O   UNL     1      28.625  41.407  51.264  1.00  0.00    -0.388 OA
HETATM   18  H   UNL     1      29.495  41.060  51.536  1.00  0.00     0.210 HD
ENDBRANCH  12  17
ENDBRANCH  11  12
ENDBRANCH   8  11
ENDBRANCH   7   8
ENDBRANCH   1   7
BRANCH   2  19
HETATM   19  C   UNL     1      26.417  46.832  53.497  1.00  0.00    -0.003 A 
HETATM   20  C   UNL     1      27.508  46.064  53.919  1.00  0.00     0.037 A 
HETATM   21  C   UNL     1      28.121  46.335  55.143  1.00  0.00     0.035 A 
HETATM   22 CL   UNL     1      29.479  45.400  55.631  1.00  0.00    -0.084 Cl
HETATM   23  C   UNL     1      27.647  47.355  55.965  1.00  0.00     0.024 A 
HETATM   24  C   UNL     1      26.545  48.108  55.562  1.00  0.00     0.003 A 
HETATM   25  C   UNL     1      25.932  47.847  54.334  1.00  0.00     0.014 A 
ENDBRANCH   2  19
TORSDOF 6
ENDMDL
MODEL 4
REMARK VINA RESULT:      -7.5      1.951      3.496
REMARK  6 active torsions:
REMARK  status: ('A' for Active; 'I' for Inactive)
REMARK    1  A    between atoms: N_2  and  C_4 
REMARK    2  A    between atoms: N_2  and  C_11 
REMARK    3  A    between atoms: C_4  and  C_5 
REMARK    4  A    between atoms: C_5  and  O_6 
REMARK    5  A    between atoms: C_11  and  C_12 
REMARK    6  A    between atoms: C_13  and  C_14 
ROOT
HETATM    1  C   UNL     1      27.756  42.904  52.123  1.00  0.00     0.016 A 
HETATM    2  C   UNL     1      28.291  42.597  53.417  1.00  0.00     0.096 A 
HETATM    3  N   UNL     1      28.096  41.308  53.716  1.00  0.00    -0.174 NA
HETATM    4  N   UNL     1      27.536  40.772  52.629  1.00  0.00    -0.288 N 
HETATM    5  H   UNL     1      27.338  39.775  52.633  1.00  0.00     0.188 HD
HETATM    6  C   UNL     1      27.302  41.688  51.642  1.00  0.00     0.120 A 
ENDROOT
BRANCH   1   7
HETATM    7  C   UNL     1      27.727  44.236  51.462  1.00  0.00     0.277 C 
BRANCH   7   8
HETATM    8  N   UNL     1      26.338  44.788  51.210  1.00  0.00    -0.068 N 
HETATM    9  C   UNL     1      26.133  46.111  51.909  1.00  0.00     0.270 C 
HETATM   10  H   UNL     1      25.683  44.125  51.633  1.00  0.00     0.279 HD
BRANCH   8  11
HETATM   11  C   UNL     1      26.050  44.853  49.711  1.00  0.00     0.272 C 
BRANCH  11  12
HETATM   12  C   UNL     1      24.990  43.832  49.235  1.00  0.00     0.082 C 
HETATM   13  C   UNL     1      24.236  43.223  50.425  1.00  0.00     0.039 C 
HETATM   14  C   UNL     1      22.940  42.717  49.809  1.00  0.00     0.003 C 
HETATM   15  C   UNL     1      22.572  43.789  48.795  1.00  0.00     0.003 C 
HETATM   16  C   UNL     1      23.890  44.436  48.350  1.00  0.00     0.039 C 
BRANCH  12  17
HETATM   17  O   UNL     1      25.653  42.785  48.519  1.00  0.00    -0.388 OA
HETATM   18  H   UNL     1      25.473  42.882  47.564  1.00  0.00     0.210 HD
ENDBRANCH  12  17
ENDBRANCH  11  12
ENDBRANCH   8  11
ENDBRANCH   7   8
ENDBRANCH   1   7
BRANCH   2  19
HETATM   19  C   UNL     1      28.955  43.486  54.368  1.00  0.00    -0.003 A 
HETATM   20  C   UNL     1      30.061  43.050  55.106  1.00  0.00     0.037 A 
HETATM   21  C   UNL     1      30.694  43.920  55.995  1.00  0.00     0.035 A 
HETATM   22 CL   UNL     1      32.070  43.376  56.871  1.00  0.00    -0.084 Cl
HETATM   23  C   UNL     1      30.226  45.220  56.173  1.00  0.00     0.024 A 
HETATM   24  C   UNL     1      29.109  45.653  55.460  1.00  0.00     0.003 A 
HETATM   25  C   UNL     1      28.476  44.790  54.562  1.00  0.00     0.014 A 
ENDBRANCH   2  19
TORSDOF 6
ENDMDL
MODEL 5
REMARK VINA RESULT:      -7.5      1.984      3.223
REMARK  6 active torsions:
REMARK  status: ('A' for Active; 'I' for Inactive)
REMARK    1  A    between atoms: N_2  and  C_4 
REMARK    2  A    between atoms: N_2  and  C_11 
REMARK    3  A    between atoms: C_4  and  C_5 
REMARK    4  A    between atoms: C_5  and  O_6 
REMARK    5  A    between atoms: C_11  and  C_12 
REMARK    6  A    between atoms: C_13  and  C_14 
ROOT
HETATM    1  C   UNL     1      27.936  42.694  52.041  1.00  0.00     0.016 A 
HETATM    2  C   UNL     1      28.540  42.388  53.305  1.00  0.00     0.096 A 
HETATM    3  N   UNL     1      28.489  41.073  53.548  1.00  0.00    -0.174 NA
HETATM    4  N   UNL     1      27.953  40.530  52.452  1.00  0.00    -0.288 N 
HETATM    5  H   UNL     1      27.859  39.519  52.414  1.00  0.00     0.188 HD
HETATM    6  C   UNL     1      27.596  41.459  51.516  1.00  0.00     0.120 A 
ENDROOT
BRANCH   1   7
HETATM    7  C   UNL     1      27.750  44.044  51.445  1.00  0.00     0.277 C 
BRANCH   7   8
HETATM    8  N   UNL     1      26.314  44.529  51.414  1.00  0.00    -0.068 N 
HETATM    9  C   UNL     1      25.478  43.849  52.472  1.00  0.00     0.270 C 
HETATM   10  H   UNL     1      25.932  44.244  50.507  1.00  0.00     0.279 HD
BRANCH   8  11
HETATM   11  C   UNL     1      26.260  46.053  51.497  1.00  0.00     0.272 C 
BRANCH  11  12
HETATM   12  C   UNL     1      25.866  46.737  50.166  1.00  0.00     0.082 C 
HETATM   13  C   UNL     1      24.570  47.543  50.322  1.00  0.00     0.039 C 
HETATM   14  C   UNL     1      24.629  48.545  49.178  1.00  0.00     0.003 C 
HETATM   15  C   UNL     1      26.095  48.948  49.119  1.00  0.00     0.003 C 
HETATM   16  C   UNL     1      26.896  47.755  49.656  1.00  0.00     0.039 C 
BRANCH  12  17
HETATM   17  O   UNL     1      25.668  45.725  49.173  1.00  0.00    -0.388 OA
HETATM   18  H   UNL     1      24.728  45.463  49.163  1.00  0.00     0.210 HD
ENDBRANCH  12  17
ENDBRANCH  11  12
ENDBRANCH   8  11
ENDBRANCH   7   8
ENDBRANCH   1   7
BRANCH   2  19
HETATM   19  C   UNL     1      29.137  43.299  54.279  1.00  0.00    -0.003 A 
HETATM   20  C   UNL     1      28.483  44.479  54.652  1.00  0.00     0.037 A 
HETATM   21  C   UNL     1      29.059  45.327  55.599  1.00  0.00     0.035 A 
HETATM   22 CL   UNL     1      28.227  46.758  56.067  1.00  0.00    -0.084 Cl
HETATM   23  C   UNL     1      30.293  45.023  56.169  1.00  0.00     0.024 A 
HETATM   24  C   UNL     1      30.961  43.862  55.784  1.00  0.00     0.003 A 
HETATM   25  C   UNL     1      30.387  43.004  54.843  1.00  0.00     0.014 A 
ENDBRANCH   2  19
TORSDOF 6
ENDMDL
MODEL 6
REMARK VINA RESULT:      -7.4     12.957     14.160
REMARK  6 active torsions:
REMARK  status: ('A' for Active; 'I' for Inactive)
REMARK    1  A    between atoms: N_2  and  C_4 
REMARK    2  A    between atoms: N_2  and  C_11 
REMARK    3  A    between atoms: C_4  and  C_5 
REMARK    4  A    between atoms: C_5  and  O_6 
REMARK    5  A    between atoms: C_11  and  C_12 
REMARK    6  A    between atoms: C_13  and  C_14 
ROOT
HETATM    1  C   UNL     1      30.281  48.606  41.105  1.00  0.00     0.016 A 
HETATM    2  C   UNL     1      31.707  48.632  41.250  1.00  0.00     0.096 A 
HETATM    3  N   UNL     1      32.260  47.553  40.686  1.00  0.00    -0.174 NA
HETATM    4  N   UNL     1      31.249  46.891  40.119  1.00  0.00    -0.288 N 
HETATM    5  H   UNL     1      31.462  46.046  39.595  1.00  0.00     0.188 HD
HETATM    6  C   UNL     1      30.035  47.476  40.344  1.00  0.00     0.120 A 
ENDROOT
BRANCH   1   7
HETATM    7  C   UNL     1      29.310  49.596  41.644  1.00  0.00     0.277 C 
BRANCH   7   8
HETATM    8  N   UNL     1      28.549  50.374  40.589  1.00  0.00    -0.068 N 
HETATM    9  C   UNL     1      27.133  49.868  40.444  1.00  0.00     0.270 C 
HETATM   10  H   UNL     1      29.021  50.193  39.699  1.00  0.00     0.279 HD
BRANCH   8  11
HETATM   11  C   UNL     1      28.623  51.874  40.871  1.00  0.00     0.272 C 
BRANCH  11  12
HETATM   12  C   UNL     1      29.770  52.593  40.123  1.00  0.00     0.082 C 
HETATM   13  C   UNL     1      30.940  52.896  41.067  1.00  0.00     0.039 C 
HETATM   14  C   UNL     1      32.127  53.065  40.129  1.00  0.00     0.003 C 
HETATM   15  C   UNL     1      31.907  51.999  39.065  1.00  0.00     0.003 C 
HETATM   16  C   UNL     1      30.393  51.768  38.988  1.00  0.00     0.039 C 
BRANCH  12  17
HETATM   17  O   UNL     1      29.269  53.825  39.594  1.00  0.00    -0.388 OA
HETATM   18  H   UNL     1      28.421  53.660  39.140  1.00  0.00     0.210 HD
ENDBRANCH  12  17
ENDBRANCH  11  12
ENDBRANCH   8  11
ENDBRANCH   7   8
ENDBRANCH   1   7
BRANCH   2  19
HETATM   19  C   UNL     1      32.541  49.630  41.917  1.00  0.00    -0.003 A 
HETATM   20  C   UNL     1      32.076  50.315  43.046  1.00  0.00     0.037 A 
HETATM   21  C   UNL     1      32.895  51.250  43.681  1.00  0.00     0.035 A 
HETATM   22 CL   UNL     1      32.317  52.060  45.085  1.00  0.00    -0.084 Cl
HETATM   23  C   UNL     1      34.170  51.527  43.193  1.00  0.00     0.024 A 
HETATM   24  C   UNL     1      34.629  50.867  42.055  1.00  0.00     0.003 A 
HETATM   25  C   UNL     1      33.819  49.924  41.419  1.00  0.00     0.014 A 
ENDBRANCH   2  19
TORSDOF 6
ENDMDL
MODEL 7
REMARK VINA RESULT:      -7.3     13.088     14.441
REMARK  6 active torsions:
REMARK  status: ('A' for Active; 'I' for Inactive)
REMARK    1  A    between atoms: N_2  and  C_4 
REMARK    2  A    between atoms: N_2  and  C_11 
REMARK    3  A    between atoms: C_4  and  C_5 
REMARK    4  A    between atoms: C_5  and  O_6 
REMARK    5  A    between atoms: C_11  and  C_12 
REMARK    6  A    between atoms: C_13  and  C_14 
ROOT
HETATM    1  C   UNL     1      30.419  48.884  40.209  1.00  0.00     0.016 A 
HETATM    2  C   UNL     1      30.803  49.167  41.561  1.00  0.00     0.096 A 
HETATM    3  N   UNL     1      29.908  48.668  42.421  1.00  0.00    -0.174 NA
HETATM    4  N   UNL     1      29.022  48.010  41.670  1.00  0.00    -0.288 N 
HETATM    5  H   UNL     1      28.267  47.516  42.139  1.00  0.00     0.188 HD
HETATM    6  C   UNL     1      29.277  48.112  40.331  1.00  0.00     0.120 A 
ENDROOT
BRANCH   1   7
HETATM    7  C   UNL     1      31.122  49.318  38.972  1.00  0.00     0.277 C 
BRANCH   7   8
HETATM    8  N   UNL     1      31.242  50.820  38.807  1.00  0.00    -0.068 N 
HETATM    9  C   UNL     1      32.470  51.192  38.009  1.00  0.00     0.270 C 
HETATM   10  H   UNL     1      31.372  51.205  39.746  1.00  0.00     0.279 HD
BRANCH   8  11
HETATM   11  C   UNL     1      29.953  51.401  38.227  1.00  0.00     0.272 C 
BRANCH  11  12
HETATM   12  C   UNL     1      29.145  52.252  39.234  1.00  0.00     0.082 C 
HETATM   13  C   UNL     1      27.956  51.462  39.796  1.00  0.00     0.039 C 
HETATM   14  C   UNL     1      27.632  52.177  41.100  1.00  0.00     0.003 C 
HETATM   15  C   UNL     1      28.996  52.534  41.671  1.00  0.00     0.003 C 
HETATM   16  C   UNL     1      29.943  52.682  40.474  1.00  0.00     0.039 C 
BRANCH  12  17
HETATM   17  O   UNL     1      28.654  53.415  38.560  1.00  0.00    -0.388 OA
HETATM   18  H   UNL     1      29.358  53.779  37.990  1.00  0.00     0.210 HD
ENDBRANCH  12  17
ENDBRANCH  11  12
ENDBRANCH   8  11
ENDBRANCH   7   8
ENDBRANCH   1   7
BRANCH   2  19
HETATM   19  C   UNL     1      31.968  49.904  42.047  1.00  0.00    -0.003 A 
HETATM   20  C   UNL     1      33.225  49.728  41.457  1.00  0.00     0.037 A 
HETATM   21  C   UNL     1      34.322  50.455  41.922  1.00  0.00     0.035 A 
HETATM   22 CL   UNL     1      35.852  50.249  41.164  1.00  0.00    -0.084 Cl
HETATM   23  C   UNL     1      34.186  51.346  42.985  1.00  0.00     0.024 A 
HETATM   24  C   UNL     1      32.942  51.506  43.593  1.00  0.00     0.003 A 
HETATM   25  C   UNL     1      31.839  50.788  43.128  1.00  0.00     0.014 A 
ENDBRANCH   2  19
TORSDOF 6
ENDMDL
MODEL 8
REMARK VINA RESULT:      -7.1     12.715     15.044
REMARK  6 active torsions:
REMARK  status: ('A' for Active; 'I' for Inactive)
REMARK    1  A    between atoms: N_2  and  C_4 
REMARK    2  A    between atoms: N_2  and  C_11 
REMARK    3  A    between atoms: C_4  and  C_5 
REMARK    4  A    between atoms: C_5  and  O_6 
REMARK    5  A    between atoms: C_11  and  C_12 
REMARK    6  A    between atoms: C_13  and  C_14 
ROOT
HETATM    1  C   UNL     1      28.397  49.433  38.497  1.00  0.00     0.016 A 
HETATM    2  C   UNL     1      28.479  50.830  38.809  1.00  0.00     0.096 A 
HETATM    3  N   UNL     1      27.367  51.466  38.425  1.00  0.00    -0.174 NA
HETATM    4  N   UNL     1      26.555  50.514  37.961  1.00  0.00    -0.288 N 
HETATM    5  H   UNL     1      25.626  50.785  37.649  1.00  0.00     0.188 HD
HETATM    6  C   UNL     1      27.126  49.272  37.975  1.00  0.00     0.120 A 
ENDROOT
BRANCH   1   7
HETATM    7  C   UNL     1      29.451  48.407  38.716  1.00  0.00     0.277 C 
BRANCH   7   8
HETATM    8  N   UNL     1      29.793  48.150  40.170  1.00  0.00    -0.068 N 
HETATM    9  C   UNL     1      28.671  47.433  40.883  1.00  0.00     0.270 C 
HETATM   10  H   UNL     1      29.885  49.069  40.612  1.00  0.00     0.279 HD
BRANCH   8  11
HETATM   11  C   UNL     1      31.135  47.429  40.288  1.00  0.00     0.272 C 
BRANCH  11  12
HETATM   12  C   UNL     1      32.101  48.071  41.310  1.00  0.00     0.082 C 
HETATM   13  C   UNL     1      32.703  49.371  40.759  1.00  0.00     0.039 C 
HETATM   14  C   UNL     1      33.143  50.122  42.007  1.00  0.00     0.003 C 
HETATM   15  C   UNL     1      32.035  49.843  43.012  1.00  0.00     0.003 C 
HETATM   16  C   UNL     1      31.434  48.485  42.629  1.00  0.00     0.039 C 
BRANCH  12  17
HETATM   17  O   UNL     1      33.159  47.147  41.582  1.00  0.00    -0.388 OA
HETATM   18  H   UNL     1      33.962  47.424  41.101  1.00  0.00     0.210 HD
ENDBRANCH  12  17
ENDBRANCH  11  12
ENDBRANCH   8  11
ENDBRANCH   7   8
ENDBRANCH   1   7
BRANCH   2  19
HETATM   19  C   UNL     1      29.576  51.566  39.434  1.00  0.00    -0.003 A 
HETATM   20  C   UNL     1      29.502  51.961  40.775  1.00  0.00     0.037 A 
HETATM   21  C   UNL     1      30.568  52.646  41.361  1.00  0.00     0.035 A 
HETATM   22 CL   UNL     1      30.471  53.096  43.018  1.00  0.00    -0.084 Cl
HETATM   23  C   UNL     1      31.705  52.960  40.620  1.00  0.00     0.024 A 
HETATM   24  C   UNL     1      31.774  52.592  39.277  1.00  0.00     0.003 A 
HETATM   25  C   UNL     1      30.715  51.899  38.687  1.00  0.00     0.014 A 
ENDBRANCH   2  19
TORSDOF 6
ENDMDL
MODEL 9
REMARK VINA RESULT:      -7.1      2.160      3.382
REMARK  6 active torsions:
REMARK  status: ('A' for Active; 'I' for Inactive)
REMARK    1  A    between atoms: N_2  and  C_4 
REMARK    2  A    between atoms: N_2  and  C_11 
REMARK    3  A    between atoms: C_4  and  C_5 
REMARK    4  A    between atoms: C_5  and  O_6 
REMARK    5  A    between atoms: C_11  and  C_12 
REMARK    6  A    between atoms: C_13  and  C_14 
ROOT
HETATM    1  C   UNL     1      27.348  42.636  52.101  1.00  0.00     0.016 A 
HETATM    2  C   UNL     1      28.571  42.616  52.848  1.00  0.00     0.096 A 
HETATM    3  N   UNL     1      29.351  41.604  52.451  1.00  0.00    -0.174 NA
HETATM    4  N   UNL     1      28.706  41.039  51.428  1.00  0.00    -0.288 N 
HETATM    5  H   UNL     1      29.154  40.261  50.950  1.00  0.00     0.188 HD
HETATM    6  C   UNL     1      27.493  41.615  51.178  1.00  0.00     0.120 A 
ENDROOT
BRANCH   1   7
HETATM    7  C   UNL     1      26.205  43.570  52.285  1.00  0.00     0.277 C 
BRANCH   7   8
HETATM    8  N   UNL     1      25.754  44.275  51.021  1.00  0.00    -0.068 N 
HETATM    9  C   UNL     1      25.267  43.291  49.983  1.00  0.00     0.270 C 
HETATM   10  H   UNL     1      26.584  44.729  50.631  1.00  0.00     0.279 HD
BRANCH   8  11
HETATM   11  C   UNL     1      24.727  45.358  51.347  1.00  0.00     0.272 C 
BRANCH  11  12
HETATM   12  C   UNL     1      25.228  46.796  51.072  1.00  0.00     0.082 C 
HETATM   13  C   UNL     1      26.551  46.780  50.296  1.00  0.00     0.039 C 
HETATM   14  C   UNL     1      26.606  48.157  49.650  1.00  0.00     0.003 C 
HETATM   15  C   UNL     1      25.168  48.423  49.232  1.00  0.00     0.003 C 
HETATM   16  C   UNL     1      24.280  47.634  50.203  1.00  0.00     0.039 C 
BRANCH  12  17
HETATM   17  O   UNL     1      25.431  47.456  52.326  1.00  0.00    -0.388 OA
HETATM   18  H   UNL     1      26.366  47.364  52.591  1.00  0.00     0.210 HD
ENDBRANCH  12  17
ENDBRANCH  11  12
ENDBRANCH   8  11
ENDBRANCH   7   8
ENDBRANCH   1   7
BRANCH   2  19
HETATM   19  C   UNL     1      29.001  43.506  53.924  1.00  0.00    -0.003 A 
HETATM   20  C   UNL     1      30.033  43.134  54.794  1.00  0.00     0.037 A 
HETATM   21  C   UNL     1      30.444  44.005  55.804  1.00  0.00     0.035 A 
HETATM   22 CL   UNL     1      31.734  43.543  56.843  1.00  0.00    -0.084 Cl
HETATM   23  C   UNL     1      29.825  45.242  55.970  1.00  0.00     0.024 A 
HETATM   24  C   UNL     1      28.780  45.609  55.124  1.00  0.00     0.003 A 
HETATM   25  C   UNL     1      28.369  44.745  54.106  1.00  0.00     0.014 A 
ENDBRANCH   2  19
TORSDOF 6
ENDMDL
MODEL 10
REMARK VINA RESULT:      -7.0     12.753     15.382
REMARK  6 active torsions:
REMARK  status: ('A' for Active; 'I' for Inactive)
REMARK    1  A    between atoms: N_2  and  C_4 
REMARK    2  A    between atoms: N_2  and  C_11 
REMARK    3  A    between atoms: C_4  and  C_5 
REMARK    4  A    between atoms: C_5  and  O_6 
REMARK    5  A    between atoms: C_11  and  C_12 
REMARK    6  A    between atoms: C_13  and  C_14 
ROOT
HETATM    1  C   UNL     1      31.727  50.377  39.348  1.00  0.00     0.016 A 
HETATM    2  C   UNL     1      30.564  50.031  38.585  1.00  0.00     0.096 A 
HETATM    3  N   UNL     1      30.424  50.850  37.537  1.00  0.00    -0.174 NA
HETATM    4  N   UNL     1      31.497  51.644  37.562  1.00  0.00    -0.288 N 
HETATM    5  H   UNL     1      31.606  52.327  36.816  1.00  0.00     0.188 HD
HETATM    6  C   UNL     1      32.311  51.409  38.634  1.00  0.00     0.120 A 
ENDROOT
BRANCH   1   7
HETATM    7  C   UNL     1      32.189  49.740  40.610  1.00  0.00     0.277 C 
BRANCH   7   8
HETATM    8  N   UNL     1      31.263  49.938  41.794  1.00  0.00    -0.068 N 
HETATM    9  C   UNL     1      31.349  48.782  42.763  1.00  0.00     0.270 C 
HETATM   10  H   UNL     1      30.311  49.940  41.420  1.00  0.00     0.279 HD
BRANCH   8  11
HETATM   11  C   UNL     1      31.518  51.292  42.455  1.00  0.00     0.272 C 
BRANCH  11  12
HETATM   12  C   UNL     1      30.456  52.363  42.113  1.00  0.00     0.082 C 
HETATM   13  C   UNL     1      30.964  53.318  41.026  1.00  0.00     0.039 C 
HETATM   14  C   UNL     1      29.689  53.905  40.436  1.00  0.00     0.003 C 
HETATM   15  C   UNL     1      28.724  52.729  40.409  1.00  0.00     0.003 C 
HETATM   16  C   UNL     1      29.149  51.791  41.545  1.00  0.00     0.039 C 
BRANCH  12  17
HETATM   17  O   UNL     1      30.168  53.116  43.296  1.00  0.00    -0.388 OA
HETATM   18  H   UNL     1      29.215  53.048  43.498  1.00  0.00     0.210 HD
ENDBRANCH  12  17
ENDBRANCH  11  12
ENDBRANCH   8  11
ENDBRANCH   7   8
ENDBRANCH   1   7
BRANCH   2  19
HETATM   19  C   UNL     1      29.588  48.971  38.833  1.00  0.00    -0.003 A 
HETATM   20  C   UNL     1      29.954  47.623  38.738  1.00  0.00     0.037 A 
HETATM   21  C   UNL     1      29.014  46.625  38.998  1.00  0.00     0.035 A 
HETATM   22 CL   UNL     1      29.489  44.975  38.907  1.00  0.00    -0.084 Cl
HETATM   23  C   UNL     1      27.702  46.953  39.334  1.00  0.00     0.024 A 
HETATM   24  C   UNL     1      27.325  48.294  39.405  1.00  0.00     0.003 A 
HETATM   25  C   UNL     1      28.263  49.298  39.155  1.00  0.00     0.014 A 
ENDBRANCH   2  19
TORSDOF 6
ENDMDL
