MODEL 1
REMARK VINA RESULT:      -9.5      0.000      0.000
REMARK  3 active torsions:
REMARK  status: ('A' for Active; 'I' for Inactive)
REMARK    1  A    between atoms: C_3  and  C_4 
REMARK       I    between atoms: C_4  and  N_5 
REMARK    2  A    between atoms: N_5  and  C_6 
REMARK    3  A    between atoms: C_13  and  C_14 
REMARK       I    between atoms: C_14  and  N_15 
ROOT
HETATM    1  C   UNL     1      25.842  47.613  50.699  1.00  0.00     0.035 A 
HETATM    2  C   UNL     1      24.546  47.880  50.239  1.00  0.00     0.046 A 
HETATM    3  C   UNL     1      24.362  48.744  49.138  1.00  0.00     0.030 A 
HETATM    4  C   UNL     1      25.476  49.327  48.549  1.00  0.00     0.063 A 
HETATM    5  N   UNL     1      24.987  50.099  47.533  1.00  0.00    -0.277 N 
HETATM    6  H   UNL     1      25.518  50.673  46.889  1.00  0.00     0.189 HD
HETATM    7  N   UNL     1      23.652  50.056  47.395  1.00  0.00    -0.168 NA
HETATM    8  C   UNL     1      23.250  49.219  48.380  1.00  0.00     0.156 A 
HETATM    9  C   UNL     1      26.781  49.093  48.989  1.00  0.00     0.034 A 
HETATM   10  C   UNL     1      26.940  48.216  50.070  1.00  0.00     0.032 A 
ENDROOT
BRANCH   1  11
HETATM   11  N   UNL     1      26.122  46.717  51.746  1.00  0.00    -0.325 N 
HETATM   12  C   UNL     1      25.712  45.401  51.870  1.00  0.00     0.252 C 
HETATM   13  O   UNL     1      24.896  44.818  51.163  1.00  0.00    -0.270 OA
HETATM   14  H   UNL     1      26.691  47.059  52.516  1.00  0.00     0.169 HD
BRANCH  12  15
HETATM   15  C   UNL     1      26.452  44.657  52.985  1.00  0.00     0.229 C 
HETATM   16  C   UNL     1      27.418  43.584  52.434  1.00  0.00     0.056 C 
HETATM   17  C   UNL     1      28.065  43.900  51.087  1.00  0.00     0.018 C 
HETATM   18  C   UNL     1      28.430  43.633  53.525  1.00  0.00    -0.018 A 
HETATM   19  C   UNL     1      28.254  44.792  54.266  1.00  0.00     0.076 A 
HETATM   20  C   UNL     1      29.463  42.758  53.810  1.00  0.00     0.010 A 
HETATM   21  O   UNL     1      27.200  45.559  53.845  1.00  0.00    -0.335 OA
HETATM   22  C   UNL     1      29.098  45.130  55.304  1.00  0.00     0.037 A 
HETATM   23  C   UNL     1      30.141  44.254  55.608  1.00  0.00     0.003 A 
HETATM   24  C   UNL     1      30.322  43.074  54.866  1.00  0.00     0.001 A 
ENDBRANCH  12  15
ENDBRANCH   1  11
BRANCH   8  25
HETATM   25  C   UNL     1      21.831  48.883  48.563  1.00  0.00     0.270 C 
HETATM   26  N   UNL     1      21.288  49.370  49.721  1.00  0.00    -0.365 N 
HETATM   27  H   UNL     1      21.874  49.917  50.340  1.00  0.00     0.159 HD
HETATM   28  H   UNL     1      20.314  49.206  49.923  1.00  0.00     0.159 HD
HETATM   29  O   UNL     1      21.156  48.237  47.769  1.00  0.00    -0.266 OA
ENDBRANCH   8  25
TORSDOF 3
ENDMDL
MODEL 2
REMARK VINA RESULT:      -9.1      3.706      4.828
REMARK  3 active torsions:
REMARK  status: ('A' for Active; 'I' for Inactive)
REMARK    1  A    between atoms: C_3  and  C_4 
REMARK       I    between atoms: C_4  and  N_5 
REMARK    2  A    between atoms: N_5  and  C_6 
REMARK    3  A    between atoms: C_13  and  C_14 
REMARK       I    between atoms: C_14  and  N_15 
ROOT
HETATM    1  C   UNL     1      25.768  42.187  50.950  1.00  0.00     0.035 A 
HETATM    2  C   UNL     1      24.718  43.028  50.557  1.00  0.00     0.046 A 
HETATM    3  C   UNL     1      23.919  42.671  49.450  1.00  0.00     0.030 A 
HETATM    4  C   UNL     1      24.207  41.500  48.762  1.00  0.00     0.063 A 
HETATM    5  N   UNL     1      23.281  41.430  47.760  1.00  0.00    -0.277 N 
HETATM    6  H   UNL     1      23.191  40.705  47.057  1.00  0.00     0.189 HD
HETATM    7  N   UNL     1      22.400  42.444  47.744  1.00  0.00    -0.168 NA
HETATM    8  C   UNL     1      22.780  43.220  48.786  1.00  0.00     0.156 A 
HETATM    9  C   UNL     1      25.252  40.645  49.119  1.00  0.00     0.034 A 
HETATM   10  C   UNL     1      26.019  41.009  50.233  1.00  0.00     0.032 A 
ENDROOT
BRANCH   1  11
HETATM   11  N   UNL     1      26.573  42.431  52.077  1.00  0.00    -0.325 N 
HETATM   12  C   UNL     1      27.359  43.540  52.336  1.00  0.00     0.252 C 
HETATM   13  O   UNL     1      27.621  44.451  51.556  1.00  0.00    -0.270 OA
HETATM   14  H   UNL     1      26.597  41.715  52.799  1.00  0.00     0.169 HD
BRANCH  12  15
HETATM   15  C   UNL     1      27.852  43.586  53.784  1.00  0.00     0.229 C 
HETATM   16  C   UNL     1      29.149  42.771  53.988  1.00  0.00     0.056 C 
HETATM   17  C   UNL     1      30.103  42.730  52.796  1.00  0.00     0.018 C 
HETATM   18  C   UNL     1      29.732  43.578  55.096  1.00  0.00    -0.018 A 
HETATM   19  C   UNL     1      29.087  44.804  55.163  1.00  0.00     0.076 A 
HETATM   20  C   UNL     1      30.786  43.283  55.943  1.00  0.00     0.010 A 
HETATM   21  O   UNL     1      28.079  44.945  54.245  1.00  0.00    -0.335 OA
HETATM   22  C   UNL     1      29.467  45.782  56.058  1.00  0.00     0.037 A 
HETATM   23  C   UNL     1      30.525  45.496  56.924  1.00  0.00     0.003 A 
HETATM   24  C   UNL     1      31.179  44.254  56.867  1.00  0.00     0.001 A 
ENDBRANCH  12  15
ENDBRANCH   1  11
BRANCH   8  25
HETATM   25  C   UNL     1      22.046  44.446  49.131  1.00  0.00     0.270 C 
HETATM   26  N   UNL     1      22.843  45.547  49.288  1.00  0.00    -0.365 N 
HETATM   27  H   UNL     1      23.842  45.448  49.148  1.00  0.00     0.159 HD
HETATM   28  H   UNL     1      22.425  46.439  49.505  1.00  0.00     0.159 HD
HETATM   29  O   UNL     1      20.829  44.521  49.264  1.00  0.00    -0.266 OA
ENDBRANCH   8  25
TORSDOF 3
ENDMDL
MODEL 3
REMARK VINA RESULT:      -9.0      3.449      9.551
REMARK  3 active torsions:
REMARK  status: ('A' for Active; 'I' for Inactive)
REMARK    1  A    between atoms: C_3  and  C_4 
REMARK       I    between atoms: C_4  and  N_5 
REMARK    2  A    between atoms: N_5  and  C_6 
REMARK    3  A    between atoms: C_13  and  C_14 
REMARK       I    between atoms: C_14  and  N_15 
ROOT
HETATM    1  C   UNL     1      22.898  49.452  49.119  1.00  0.00     0.035 A 
HETATM    2  C   UNL     1      23.782  48.471  49.586  1.00  0.00     0.046 A 
HETATM    3  C   UNL     1      25.146  48.537  49.230  1.00  0.00     0.030 A 
HETATM    4  C   UNL     1      25.576  49.568  48.405  1.00  0.00     0.063 A 
HETATM    5  N   UNL     1      26.917  49.365  48.240  1.00  0.00    -0.277 N 
HETATM    6  H   UNL     1      27.559  49.927  47.693  1.00  0.00     0.189 HD
HETATM    7  N   UNL     1      27.405  48.303  48.900  1.00  0.00    -0.168 NA
HETATM    8  C   UNL     1      26.322  47.780  49.521  1.00  0.00     0.156 A 
HETATM    9  C   UNL     1      24.720  50.555  47.912  1.00  0.00     0.034 A 
HETATM   10  C   UNL     1      23.375  50.481  48.295  1.00  0.00     0.032 A 
ENDROOT
BRANCH   1  11
HETATM   11  N   UNL     1      21.538  49.501  49.475  1.00  0.00    -0.325 N 
HETATM   12  C   UNL     1      20.912  50.401  50.319  1.00  0.00     0.252 C 
HETATM   13  O   UNL     1      21.458  51.232  51.038  1.00  0.00    -0.270 OA
HETATM   14  H   UNL     1      20.925  48.795  49.076  1.00  0.00     0.169 HD
BRANCH  12  15
HETATM   15  C   UNL     1      19.386  50.326  50.231  1.00  0.00     0.229 C 
HETATM   16  C   UNL     1      18.775  51.568  49.544  1.00  0.00     0.056 C 
HETATM   17  C   UNL     1      19.630  52.212  48.454  1.00  0.00     0.018 C 
HETATM   18  C   UNL     1      17.578  50.911  48.950  1.00  0.00    -0.018 A 
HETATM   19  C   UNL     1      17.754  49.536  48.958  1.00  0.00     0.076 A 
HETATM   20  C   UNL     1      16.447  51.479  48.390  1.00  0.00     0.010 A 
HETATM   21  O   UNL     1      18.934  49.136  49.530  1.00  0.00    -0.335 OA
HETATM   22  C   UNL     1      16.826  48.677  48.407  1.00  0.00     0.037 A 
HETATM   23  C   UNL     1      15.676  49.234  47.845  1.00  0.00     0.003 A 
HETATM   24  C   UNL     1      15.487  50.627  47.838  1.00  0.00     0.001 A 
ENDBRANCH  12  15
ENDBRANCH   1  11
BRANCH   8  25
HETATM   25  C   UNL     1      26.434  46.593  50.381  1.00  0.00     0.270 C 
HETATM   26  N   UNL     1      26.881  45.475  49.731  1.00  0.00    -0.365 N 
HETATM   27  H   UNL     1      27.108  45.543  48.746  1.00  0.00     0.159 HD
HETATM   28  H   UNL     1      27.008  44.617  50.245  1.00  0.00     0.159 HD
HETATM   29  O   UNL     1      26.171  46.568  51.578  1.00  0.00    -0.266 OA
ENDBRANCH   8  25
TORSDOF 3
ENDMDL
MODEL 4
REMARK VINA RESULT:      -8.8      5.747      7.409
REMARK  3 active torsions:
REMARK  status: ('A' for Active; 'I' for Inactive)
REMARK    1  A    between atoms: C_3  and  C_4 
REMARK       I    between atoms: C_4  and  N_5 
REMARK    2  A    between atoms: N_5  and  C_6 
REMARK    3  A    between atoms: C_13  and  C_14 
REMARK       I    between atoms: C_14  and  N_15 
ROOT
HETATM    1  C   UNL     1      26.691  41.267  51.114  1.00  0.00     0.035 A 
HETATM    2  C   UNL     1      27.169  40.149  50.417  1.00  0.00     0.046 A 
HETATM    3  C   UNL     1      26.518  39.735  49.235  1.00  0.00     0.030 A 
HETATM    4  C   UNL     1      25.402  40.439  48.801  1.00  0.00     0.063 A 
HETATM    5  N   UNL     1      25.000  39.811  47.657  1.00  0.00    -0.277 N 
HETATM    6  H   UNL     1      24.210  40.054  47.069  1.00  0.00     0.189 HD
HETATM    7  N   UNL     1      25.766  38.770  47.294  1.00  0.00    -0.168 NA
HETATM    8  C   UNL     1      26.712  38.711  48.260  1.00  0.00     0.156 A 
HETATM    9  C   UNL     1      24.893  41.550  49.477  1.00  0.00     0.034 A 
HETATM   10  C   UNL     1      25.567  41.954  50.636  1.00  0.00     0.032 A 
ENDROOT
BRANCH   1  11
HETATM   11  N   UNL     1      27.314  41.786  52.263  1.00  0.00    -0.325 N 
HETATM   12  C   UNL     1      27.849  43.050  52.442  1.00  0.00     0.252 C 
HETATM   13  O   UNL     1      28.018  43.903  51.576  1.00  0.00    -0.270 OA
HETATM   14  H   UNL     1      27.394  41.173  53.070  1.00  0.00     0.169 HD
BRANCH  12  15
HETATM   15  C   UNL     1      28.170  43.351  53.908  1.00  0.00     0.229 C 
HETATM   16  C   UNL     1      29.512  42.728  54.354  1.00  0.00     0.056 C 
HETATM   17  C   UNL     1      30.593  42.635  53.278  1.00  0.00     0.018 C 
HETATM   18  C   UNL     1      29.882  43.741  55.381  1.00  0.00    -0.018 A 
HETATM   19  C   UNL     1      29.113  44.881  55.202  1.00  0.00     0.076 A 
HETATM   20  C   UNL     1      30.860  43.690  56.359  1.00  0.00     0.010 A 
HETATM   21  O   UNL     1      28.205  44.777  54.181  1.00  0.00    -0.335 OA
HETATM   22  C   UNL     1      29.290  46.010  55.975  1.00  0.00     0.037 A 
HETATM   23  C   UNL     1      30.267  45.971  56.971  1.00  0.00     0.003 A 
HETATM   24  C   UNL     1      31.047  44.817  57.163  1.00  0.00     0.001 A 
ENDBRANCH  12  15
ENDBRANCH   1  11
BRANCH   8  25
HETATM   25  C   UNL     1      27.778  37.700  48.222  1.00  0.00     0.270 C 
HETATM   26  N   UNL     1      27.643  36.712  49.160  1.00  0.00    -0.365 N 
HETATM   27  H   UNL     1      26.843  36.738  49.781  1.00  0.00     0.159 HD
HETATM   28  H   UNL     1      28.317  35.964  49.197  1.00  0.00     0.159 HD
HETATM   29  O   UNL     1      28.716  37.698  47.431  1.00  0.00    -0.266 OA
ENDBRANCH   8  25
TORSDOF 3
ENDMDL
MODEL 5
REMARK VINA RESULT:      -8.5      4.687      5.820
REMARK  3 active torsions:
REMARK  status: ('A' for Active; 'I' for Inactive)
REMARK    1  A    between atoms: C_3  and  C_4 
REMARK       I    between atoms: C_4  and  N_5 
REMARK    2  A    between atoms: N_5  and  C_6 
REMARK    3  A    between atoms: C_13  and  C_14 
REMARK       I    between atoms: C_14  and  N_15 
ROOT
HETATM    1  C   UNL     1      27.247  42.166  50.903  1.00  0.00     0.035 A 
HETATM    2  C   UNL     1      25.951  42.545  50.530  1.00  0.00     0.046 A 
HETATM    3  C   UNL     1      25.260  41.795  49.555  1.00  0.00     0.030 A 
HETATM    4  C   UNL     1      25.894  40.707  48.971  1.00  0.00     0.063 A 
HETATM    5  N   UNL     1      24.991  40.195  48.081  1.00  0.00    -0.277 N 
HETATM    6  H   UNL     1      25.116  39.394  47.473  1.00  0.00     0.189 HD
HETATM    7  N   UNL     1      23.816  40.844  48.046  1.00  0.00    -0.168 NA
HETATM    8  C   UNL     1      23.965  41.836  48.955  1.00  0.00     0.156 A 
HETATM    9  C   UNL     1      27.189  40.308  49.310  1.00  0.00     0.034 A 
HETATM   10  C   UNL     1      27.847  41.055  50.295  1.00  0.00     0.032 A 
ENDROOT
BRANCH   1  11
HETATM   11  N   UNL     1      27.983  42.816  51.910  1.00  0.00    -0.325 N 
HETATM   12  C   UNL     1      28.316  42.335  53.164  1.00  0.00     0.252 C 
HETATM   13  O   UNL     1      27.894  41.309  53.691  1.00  0.00    -0.270 OA
HETATM   14  H   UNL     1      28.319  43.755  51.712  1.00  0.00     0.169 HD
BRANCH  12  15
HETATM   15  C   UNL     1      29.369  43.196  53.865  1.00  0.00     0.229 C 
HETATM   16  C   UNL     1      28.774  44.504  54.433  1.00  0.00     0.056 C 
HETATM   17  C   UNL     1      27.327  44.422  54.915  1.00  0.00     0.018 C 
HETATM   18  C   UNL     1      29.701  44.672  55.587  1.00  0.00    -0.018 A 
HETATM   19  C   UNL     1      30.363  43.476  55.825  1.00  0.00     0.076 A 
HETATM   20  C   UNL     1      29.905  45.771  56.402  1.00  0.00     0.010 A 
HETATM   21  O   UNL     1      30.036  42.482  54.940  1.00  0.00    -0.335 OA
HETATM   22  C   UNL     1      31.238  43.323  56.880  1.00  0.00     0.037 A 
HETATM   23  C   UNL     1      31.459  44.425  57.708  1.00  0.00     0.003 A 
HETATM   24  C   UNL     1      30.797  45.642  57.470  1.00  0.00     0.001 A 
ENDBRANCH  12  15
ENDBRANCH   1  11
BRANCH   8  25
HETATM   25  C   UNL     1      22.875  42.780  49.238  1.00  0.00     0.270 C 
HETATM   26  N   UNL     1      22.383  43.413  48.129  1.00  0.00    -0.365 N 
HETATM   27  H   UNL     1      22.779  43.185  47.224  1.00  0.00     0.159 HD
HETATM   28  H   UNL     1      21.619  44.064  48.224  1.00  0.00     0.159 HD
HETATM   29  O   UNL     1      22.412  43.002  50.352  1.00  0.00    -0.266 OA
ENDBRANCH   8  25
TORSDOF 3
ENDMDL
MODEL 6
REMARK VINA RESULT:      -8.4      3.846      8.488
REMARK  3 active torsions:
REMARK  status: ('A' for Active; 'I' for Inactive)
REMARK    1  A    between atoms: C_3  and  C_4 
REMARK       I    between atoms: C_4  and  N_5 
REMARK    2  A    between atoms: N_5  and  C_6 
REMARK    3  A    between atoms: C_13  and  C_14 
REMARK       I    between atoms: C_14  and  N_15 
ROOT
HETATM    1  C   UNL     1      27.883  44.121  53.850  1.00  0.00     0.035 A 
HETATM    2  C   UNL     1      28.256  44.738  55.052  1.00  0.00     0.046 A 
HETATM    3  C   UNL     1      29.520  44.459  55.614  1.00  0.00     0.030 A 
HETATM    4  C   UNL     1      30.359  43.560  54.968  1.00  0.00     0.063 A 
HETATM    5  N   UNL     1      31.485  43.497  55.740  1.00  0.00    -0.277 N 
HETATM    6  H   UNL     1      32.312  42.935  55.573  1.00  0.00     0.189 HD
HETATM    7  N   UNL     1      31.463  44.290  56.823  1.00  0.00    -0.168 NA
HETATM    8  C   UNL     1      30.254  44.895  56.758  1.00  0.00     0.156 A 
HETATM    9  C   UNL     1      30.015  42.919  53.776  1.00  0.00     0.034 A 
HETATM   10  C   UNL     1      28.764  43.226  53.227  1.00  0.00     0.032 A 
ENDROOT
BRANCH   1  11
HETATM   11  N   UNL     1      26.672  44.388  53.187  1.00  0.00    -0.325 N 
HETATM   12  C   UNL     1      26.174  45.616  52.789  1.00  0.00     0.252 C 
HETATM   13  O   UNL     1      26.625  46.719  53.082  1.00  0.00    -0.270 OA
HETATM   14  H   UNL     1      26.075  43.595  52.966  1.00  0.00     0.169 HD
BRANCH  12  15
HETATM   15  C   UNL     1      24.981  45.488  51.839  1.00  0.00     0.229 C 
HETATM   16  C   UNL     1      25.347  45.856  50.384  1.00  0.00     0.056 C 
HETATM   17  C   UNL     1      26.778  45.533  49.956  1.00  0.00     0.018 C 
HETATM   18  C   UNL     1      24.379  44.962  49.691  1.00  0.00    -0.018 A 
HETATM   19  C   UNL     1      23.910  44.010  50.584  1.00  0.00     0.076 A 
HETATM   20  C   UNL     1      23.984  44.947  48.365  1.00  0.00     0.010 A 
HETATM   21  O   UNL     1      24.410  44.151  51.852  1.00  0.00    -0.335 OA
HETATM   22  C   UNL     1      23.045  43.007  50.195  1.00  0.00     0.037 A 
HETATM   23  C   UNL     1      22.633  42.983  48.861  1.00  0.00     0.003 A 
HETATM   24  C   UNL     1      23.099  43.948  47.952  1.00  0.00     0.001 A 
ENDBRANCH  12  15
ENDBRANCH   1  11
BRANCH   8  25
HETATM   25  C   UNL     1      29.837  45.877  57.770  1.00  0.00     0.270 C 
HETATM   26  N   UNL     1      30.856  46.322  58.568  1.00  0.00    -0.365 N 
HETATM   27  H   UNL     1      31.792  45.969  58.403  1.00  0.00     0.159 HD
HETATM   28  H   UNL     1      30.668  47.012  59.278  1.00  0.00     0.159 HD
HETATM   29  O   UNL     1      28.693  46.293  57.912  1.00  0.00    -0.266 OA
ENDBRANCH   8  25
TORSDOF 3
ENDMDL
MODEL 7
REMARK VINA RESULT:      -8.2     11.426     14.456
REMARK  3 active torsions:
REMARK  status: ('A' for Active; 'I' for Inactive)
REMARK    1  A    between atoms: C_3  and  C_4 
REMARK       I    between atoms: C_4  and  N_5 
REMARK    2  A    between atoms: N_5  and  C_6 
REMARK    3  A    between atoms: C_13  and  C_14 
REMARK       I    between atoms: C_14  and  N_15 
ROOT
HETATM    1  C   UNL     1      31.743  51.574  42.214  1.00  0.00     0.035 A 
HETATM    2  C   UNL     1      32.802  51.435  41.306  1.00  0.00     0.046 A 
HETATM    3  C   UNL     1      34.131  51.440  41.781  1.00  0.00     0.030 A 
HETATM    4  C   UNL     1      34.357  51.604  43.141  1.00  0.00     0.063 A 
HETATM    5  N   UNL     1      35.715  51.569  43.290  1.00  0.00    -0.277 N 
HETATM    6  H   UNL     1      36.240  51.661  44.152  1.00  0.00     0.189 HD
HETATM    7  N   UNL     1      36.395  51.379  42.148  1.00  0.00    -0.168 NA
HETATM    8  C   UNL     1      35.428  51.294  41.204  1.00  0.00     0.156 A 
HETATM    9  C   UNL     1      33.327  51.756  44.072  1.00  0.00     0.034 A 
HETATM   10  C   UNL     1      32.016  51.728  43.580  1.00  0.00     0.032 A 
ENDROOT
BRANCH   1  11
HETATM   11  N   UNL     1      30.389  51.517  41.837  1.00  0.00    -0.325 N 
HETATM   12  C   UNL     1      29.666  52.454  41.121  1.00  0.00     0.252 C 
HETATM   13  O   UNL     1      30.033  53.585  40.815  1.00  0.00    -0.270 OA
HETATM   14  H   UNL     1      29.860  50.696  42.119  1.00  0.00     0.169 HD
BRANCH  12  15
HETATM   15  C   UNL     1      28.313  51.917  40.648  1.00  0.00     0.229 C 
HETATM   16  C   UNL     1      28.216  51.846  39.107  1.00  0.00     0.056 C 
HETATM   17  C   UNL     1      29.521  51.548  38.371  1.00  0.00     0.018 C 
HETATM   18  C   UNL     1      27.284  50.688  39.009  1.00  0.00    -0.018 A 
HETATM   19  C   UNL     1      27.246  50.022  40.225  1.00  0.00     0.076 A 
HETATM   20  C   UNL     1      26.569  50.220  37.921  1.00  0.00     0.010 A 
HETATM   21  O   UNL     1      28.023  50.602  41.194  1.00  0.00    -0.335 OA
HETATM   22  C   UNL     1      26.512  48.868  40.403  1.00  0.00     0.037 A 
HETATM   23  C   UNL     1      25.780  48.387  39.316  1.00  0.00     0.003 A 
HETATM   24  C   UNL     1      25.808  49.060  38.082  1.00  0.00     0.001 A 
ENDBRANCH  12  15
ENDBRANCH   1  11
BRANCH   8  25
HETATM   25  C   UNL     1      35.760  51.062  39.791  1.00  0.00     0.270 C 
HETATM   26  N   UNL     1      36.468  49.913  39.565  1.00  0.00    -0.365 N 
HETATM   27  H   UNL     1      36.693  49.319  40.354  1.00  0.00     0.159 HD
HETATM   28  H   UNL     1      36.723  49.661  38.623  1.00  0.00     0.159 HD
HETATM   29  O   UNL     1      35.441  51.802  38.866  1.00  0.00    -0.266 OA
ENDBRANCH   8  25
TORSDOF 3
ENDMDL
MODEL 8
REMARK VINA RESULT:      -8.0      2.936      8.625
REMARK  3 active torsions:
REMARK  status: ('A' for Active; 'I' for Inactive)
REMARK    1  A    between atoms: C_3  and  C_4 
REMARK       I    between atoms: C_4  and  N_5 
REMARK    2  A    between atoms: N_5  and  C_6 
REMARK    3  A    between atoms: C_13  and  C_14 
REMARK       I    between atoms: C_14  and  N_15 
ROOT
HETATM    1  C   UNL     1      27.433  44.707  52.894  1.00  0.00     0.035 A 
HETATM    2  C   UNL     1      27.881  45.158  54.142  1.00  0.00     0.046 A 
HETATM    3  C   UNL     1      29.020  44.566  54.729  1.00  0.00     0.030 A 
HETATM    4  C   UNL     1      29.658  43.530  54.059  1.00  0.00     0.063 A 
HETATM    5  N   UNL     1      30.702  43.168  54.863  1.00  0.00    -0.277 N 
HETATM    6  H   UNL     1      31.385  42.439  54.691  1.00  0.00     0.189 HD
HETATM    7  N   UNL     1      30.813  43.889  55.991  1.00  0.00    -0.168 NA
HETATM    8  C   UNL     1      29.780  44.761  55.921  1.00  0.00     0.156 A 
HETATM    9  C   UNL     1      29.232  43.047  52.820  1.00  0.00     0.034 A 
HETATM   10  C   UNL     1      28.113  43.665  52.248  1.00  0.00     0.032 A 
ENDROOT
BRANCH   1  11
HETATM   11  N   UNL     1      26.348  45.281  52.207  1.00  0.00    -0.325 N 
HETATM   12  C   UNL     1      26.103  45.270  50.845  1.00  0.00     0.252 C 
HETATM   13  O   UNL     1      26.870  44.890  49.966  1.00  0.00    -0.270 OA
HETATM   14  H   UNL     1      25.650  45.770  52.761  1.00  0.00     0.169 HD
BRANCH  12  15
HETATM   15  C   UNL     1      24.685  45.732  50.499  1.00  0.00     0.229 C 
HETATM   16  C   UNL     1      24.591  47.266  50.335  1.00  0.00     0.056 C 
HETATM   17  C   UNL     1      25.838  47.952  49.779  1.00  0.00     0.018 C 
HETATM   18  C   UNL     1      23.486  47.302  49.337  1.00  0.00    -0.018 A 
HETATM   19  C   UNL     1      23.330  46.044  48.775  1.00  0.00     0.076 A 
HETATM   20  C   UNL     1      22.715  48.370  48.913  1.00  0.00     0.010 A 
HETATM   21  O   UNL     1      24.181  45.102  49.291  1.00  0.00    -0.335 OA
HETATM   22  C   UNL     1      22.418  45.801  47.769  1.00  0.00     0.037 A 
HETATM   23  C   UNL     1      21.628  46.867  47.335  1.00  0.00     0.003 A 
HETATM   24  C   UNL     1      21.775  48.144  47.904  1.00  0.00     0.001 A 
ENDBRANCH  12  15
ENDBRANCH   1  11
BRANCH   8  25
HETATM   25  C   UNL     1      29.553  45.760  56.976  1.00  0.00     0.270 C 
HETATM   26  N   UNL     1      30.576  45.859  57.879  1.00  0.00    -0.365 N 
HETATM   27  H   UNL     1      31.392  45.272  57.755  1.00  0.00     0.159 HD
HETATM   28  H   UNL     1      30.518  46.533  58.627  1.00  0.00     0.159 HD
HETATM   29  O   UNL     1      28.556  46.467  57.067  1.00  0.00    -0.266 OA
ENDBRANCH   8  25
TORSDOF 3
ENDMDL
MODEL 9
REMARK VINA RESULT:      -8.0      6.013      7.896
REMARK  3 active torsions:
REMARK  status: ('A' for Active; 'I' for Inactive)
REMARK    1  A    between atoms: C_3  and  C_4 
REMARK       I    between atoms: C_4  and  N_5 
REMARK    2  A    between atoms: N_5  and  C_6 
REMARK    3  A    between atoms: C_13  and  C_14 
REMARK       I    between atoms: C_14  and  N_15 
ROOT
HETATM    1  C   UNL     1      28.606  39.870  50.812  1.00  0.00     0.035 A 
HETATM    2  C   UNL     1      27.746  39.940  49.708  1.00  0.00     0.046 A 
HETATM    3  C   UNL     1      27.756  38.902  48.751  1.00  0.00     0.030 A 
HETATM    4  C   UNL     1      28.638  37.843  48.919  1.00  0.00     0.063 A 
HETATM    5  N   UNL     1      28.419  37.017  47.852  1.00  0.00    -0.277 N 
HETATM    6  H   UNL     1      28.890  36.143  47.647  1.00  0.00     0.189 HD
HETATM    7  N   UNL     1      27.459  37.435  47.012  1.00  0.00    -0.168 NA
HETATM    8  C   UNL     1      27.035  38.600  47.557  1.00  0.00     0.156 A 
HETATM    9  C   UNL     1      29.517  37.747  50.000  1.00  0.00     0.034 A 
HETATM   10  C   UNL     1      29.474  38.778  50.947  1.00  0.00     0.032 A 
ENDROOT
BRANCH   1  11
HETATM   11  N   UNL     1      28.618  40.824  51.845  1.00  0.00    -0.325 N 
HETATM   12  C   UNL     1      28.124  42.117  51.813  1.00  0.00     0.252 C 
HETATM   13  O   UNL     1      27.722  42.723  50.825  1.00  0.00    -0.270 OA
HETATM   14  H   UNL     1      29.039  40.552  52.729  1.00  0.00     0.169 HD
BRANCH  12  15
HETATM   15  C   UNL     1      28.045  42.750  53.204  1.00  0.00     0.229 C 
HETATM   16  C   UNL     1      29.414  42.766  53.921  1.00  0.00     0.056 C 
HETATM   17  C   UNL     1      30.636  42.918  53.016  1.00  0.00     0.018 C 
HETATM   18  C   UNL     1      29.211  43.996  54.735  1.00  0.00    -0.018 A 
HETATM   19  C   UNL     1      28.137  44.712  54.229  1.00  0.00     0.076 A 
HETATM   20  C   UNL     1      29.947  44.479  55.803  1.00  0.00     0.010 A 
HETATM   21  O   UNL     1      27.526  44.107  53.161  1.00  0.00    -0.335 OA
HETATM   22  C   UNL     1      27.761  45.933  54.751  1.00  0.00     0.037 A 
HETATM   23  C   UNL     1      28.491  46.430  55.833  1.00  0.00     0.003 A 
HETATM   24  C   UNL     1      29.576  45.707  56.356  1.00  0.00     0.001 A 
ENDBRANCH  12  15
ENDBRANCH   1  11
BRANCH   8  25
HETATM   25  C   UNL     1      25.955  39.382  46.939  1.00  0.00     0.270 C 
HETATM   26  N   UNL     1      24.766  39.319  47.613  1.00  0.00    -0.365 N 
HETATM   27  H   UNL     1      24.718  38.771  48.464  1.00  0.00     0.159 HD
HETATM   28  H   UNL     1      23.972  39.840  47.275  1.00  0.00     0.159 HD
HETATM   29  O   UNL     1      26.070  40.052  45.919  1.00  0.00    -0.266 OA
ENDBRANCH   8  25
TORSDOF 3
ENDMDL
MODEL 10
REMARK VINA RESULT:      -8.0     17.521     20.494
REMARK  3 active torsions:
REMARK  status: ('A' for Active; 'I' for Inactive)
REMARK    1  A    between atoms: C_3  and  C_4 
REMARK       I    between atoms: C_4  and  N_5 
REMARK    2  A    between atoms: N_5  and  C_6 
REMARK    3  A    between atoms: C_13  and  C_14 
REMARK       I    between atoms: C_14  and  N_15 
ROOT
HETATM    1  C   UNL     1      38.403  41.357  64.013  1.00  0.00     0.035 A 
HETATM    2  C   UNL     1      38.970  40.658  65.088  1.00  0.00     0.046 A 
HETATM    3  C   UNL     1      39.832  39.570  64.833  1.00  0.00     0.030 A 
HETATM    4  C   UNL     1      40.081  39.205  63.517  1.00  0.00     0.063 A 
HETATM    5  N   UNL     1      40.932  38.139  63.591  1.00  0.00    -0.277 N 
HETATM    6  H   UNL     1      41.324  37.611  62.819  1.00  0.00     0.189 HD
HETATM    7  N   UNL     1      41.276  37.787  64.841  1.00  0.00    -0.168 NA
HETATM    8  C   UNL     1      40.605  38.666  65.622  1.00  0.00     0.156 A 
HETATM    9  C   UNL     1      39.524  39.871  62.423  1.00  0.00     0.034 A 
HETATM   10  C   UNL     1      38.688  40.960  62.700  1.00  0.00     0.032 A 
ENDROOT
BRANCH   1  11
HETATM   11  N   UNL     1      37.586  42.490  64.173  1.00  0.00    -0.325 N 
HETATM   12  C   UNL     1      36.430  42.605  64.925  1.00  0.00     0.252 C 
HETATM   13  O   UNL     1      35.816  41.692  65.469  1.00  0.00    -0.270 OA
HETATM   14  H   UNL     1      37.859  43.337  63.682  1.00  0.00     0.169 HD
BRANCH  12  15
HETATM   15  C   UNL     1      35.982  44.059  65.097  1.00  0.00     0.229 C 
HETATM   16  C   UNL     1      36.422  44.651  66.455  1.00  0.00     0.056 C 
HETATM   17  C   UNL     1      37.744  44.127  67.013  1.00  0.00     0.018 C 
HETATM   18  C   UNL     1      36.561  46.072  66.029  1.00  0.00    -0.018 A 
HETATM   19  C   UNL     1      36.606  46.135  64.644  1.00  0.00     0.076 A 
HETATM   20  C   UNL     1      36.696  47.215  66.797  1.00  0.00     0.010 A 
HETATM   21  O   UNL     1      36.477  44.915  64.033  1.00  0.00    -0.335 OA
HETATM   22  C   UNL     1      36.797  47.326  63.973  1.00  0.00     0.037 A 
HETATM   23  C   UNL     1      36.929  48.488  64.735  1.00  0.00     0.003 A 
HETATM   24  C   UNL     1      36.877  48.433  66.138  1.00  0.00     0.001 A 
ENDBRANCH  12  15
ENDBRANCH   1  11
BRANCH   8  25
HETATM   25  C   UNL     1      40.727  38.632  67.086  1.00  0.00     0.270 C 
HETATM   26  N   UNL     1      40.514  37.397  67.635  1.00  0.00    -0.365 N 
HETATM   27  H   UNL     1      40.309  36.620  67.018  1.00  0.00     0.159 HD
HETATM   28  H   UNL     1      40.597  37.274  68.632  1.00  0.00     0.159 HD
HETATM   29  O   UNL     1      41.005  39.599  67.788  1.00  0.00    -0.266 OA
ENDBRANCH   8  25
TORSDOF 3
ENDMDL
