MODEL 1
REMARK VINA RESULT:      -9.8      0.000      0.000
REMARK  5 active torsions:
REMARK  status: ('A' for Active; 'I' for Inactive)
REMARK    1  A    between atoms: C_2  and  O_3 
REMARK    2  A    between atoms: O_3  and  C_4 
REMARK    3  A    between atoms: C_7  and  C_8 
REMARK       I    between atoms: N_11  and  C_12 
REMARK    4  A    between atoms: C_12  and  C_13 
REMARK    5  A    between atoms: C_16  and  C_17 
ROOT
HETATM    1  C   UNL     1      22.206  49.944  48.348  1.00  0.00    -0.049 C 
HETATM    2  C   UNL     1      23.429  50.801  48.123  1.00  0.00     0.059 C 
HETATM    3  C   UNL     1      24.707  49.975  47.997  1.00  0.00     0.131 C 
HETATM    4  N   UNL     1      24.809  48.942  49.024  1.00  0.00    -0.344 N 
HETATM    5  C   UNL     1      26.105  48.556  49.389  1.00  0.00     0.254 C 
HETATM    6  O   UNL     1      27.122  49.144  49.027  1.00  0.00    -0.267 OA
HETATM    7  C   UNL     1      23.671  48.033  49.140  1.00  0.00     0.154 C 
HETATM    8  C   UNL     1      22.361  48.690  48.818  1.00  0.00     0.001 C 
ENDROOT
BRANCH   5   9
HETATM    9  C   UNL     1      26.287  47.336  50.204  1.00  0.00     0.032 A 
HETATM   10  C   UNL     1      25.992  47.404  51.569  1.00  0.00     0.018 A 
HETATM   11  C   UNL     1      26.185  46.279  52.375  1.00  0.00     0.016 A 
HETATM   12  C   UNL     1      26.668  45.081  51.827  1.00  0.00     0.014 A 
HETATM   13  C   UNL     1      26.919  45.017  50.446  1.00  0.00     0.016 A 
HETATM   14  C   UNL     1      26.717  46.137  49.631  1.00  0.00     0.018 A 
BRANCH  12  15
HETATM   15  C   UNL     1      26.925  43.923  52.678  1.00  0.00     0.181 A 
HETATM   16  N   UNL     1      26.438  43.779  53.922  1.00  0.00    -0.152 NA
HETATM   17  N   UNL     1      26.969  42.608  54.298  1.00  0.00    -0.263 N 
HETATM   18  H   UNL     1      26.761  42.243  55.220  1.00  0.00     0.190 HD
HETATM   19  C   UNL     1      27.758  42.078  53.321  1.00  0.00     0.118 A 
HETATM   20  C   UNL     1      28.505  40.814  53.477  1.00  0.00     0.093 C 
HETATM   21  N   UNL     1      27.741  42.882  52.281  1.00  0.00    -0.212 NA
ENDBRANCH  12  15
ENDBRANCH   5   9
BRANCH   1  22
HETATM   22  C   UNL     1      20.870  50.526  48.057  1.00  0.00    -0.030 A 
HETATM   23  C   UNL     1      19.988  49.902  47.159  1.00  0.00     0.014 A 
HETATM   24  C   UNL     1      18.710  50.422  46.904  1.00  0.00     0.037 A 
HETATM   25  C   UNL     1      18.285  51.583  47.543  1.00  0.00     0.068 A 
HETATM   26  C   UNL     1      19.151  52.221  48.429  1.00  0.00     0.037 A 
HETATM   27  C   UNL     1      20.421  51.694  48.692  1.00  0.00     0.014 A 
BRANCH  25  28
HETATM   28  O   UNL     1      17.073  52.194  47.385  1.00  0.00    -0.352 OA
BRANCH  28  29
HETATM   29  C   UNL     1      15.928  51.497  47.871  1.00  0.00     0.171 C 
HETATM   30  C   UNL     1      15.535  52.113  49.202  1.00  0.00     0.034 C 
ENDBRANCH  28  29
ENDBRANCH  25  28
ENDBRANCH   1  22
TORSDOF 5
ENDMDL
MODEL 2
REMARK VINA RESULT:      -9.0      5.811     12.478
REMARK  5 active torsions:
REMARK  status: ('A' for Active; 'I' for Inactive)
REMARK    1  A    between atoms: C_2  and  O_3 
REMARK    2  A    between atoms: O_3  and  C_4 
REMARK    3  A    between atoms: C_7  and  C_8 
REMARK       I    between atoms: N_11  and  C_12 
REMARK    4  A    between atoms: C_12  and  C_13 
REMARK    5  A    between atoms: C_16  and  C_17 
ROOT
HETATM    1  C   UNL     1      20.072  50.939  48.064  1.00  0.00    -0.049 C 
HETATM    2  C   UNL     1      19.266  50.384  46.914  1.00  0.00     0.059 C 
HETATM    3  C   UNL     1      18.096  51.288  46.530  1.00  0.00     0.131 C 
HETATM    4  N   UNL     1      17.346  51.757  47.691  1.00  0.00    -0.344 N 
HETATM    5  C   UNL     1      15.993  52.051  47.478  1.00  0.00     0.254 C 
HETATM    6  O   UNL     1      15.388  51.779  46.444  1.00  0.00    -0.267 OA
HETATM    7  C   UNL     1      18.124  52.414  48.739  1.00  0.00     0.154 C 
HETATM    8  C   UNL     1      19.511  51.858  48.875  1.00  0.00     0.001 C 
ENDROOT
BRANCH   5   9
HETATM    9  C   UNL     1      15.248  52.788  48.521  1.00  0.00     0.032 A 
HETATM   10  C   UNL     1      14.588  53.965  48.155  1.00  0.00     0.018 A 
HETATM   11  C   UNL     1      13.904  54.705  49.123  1.00  0.00     0.016 A 
HETATM   12  C   UNL     1      13.868  54.275  50.458  1.00  0.00     0.014 A 
HETATM   13  C   UNL     1      14.501  53.068  50.801  1.00  0.00     0.016 A 
HETATM   14  C   UNL     1      15.179  52.317  49.834  1.00  0.00     0.018 A 
BRANCH  12  15
HETATM   15  C   UNL     1      13.203  55.076  51.481  1.00  0.00     0.181 A 
HETATM   16  N   UNL     1      11.911  55.439  51.431  1.00  0.00    -0.152 NA
HETATM   17  N   UNL     1      11.783  56.177  52.542  1.00  0.00    -0.263 N 
HETATM   18  H   UNL     1      10.883  56.589  52.763  1.00  0.00     0.190 HD
HETATM   19  C   UNL     1      12.960  56.265  53.224  1.00  0.00     0.118 A 
HETATM   20  C   UNL     1      13.124  57.052  54.463  1.00  0.00     0.093 C 
HETATM   21  N   UNL     1      13.873  55.571  52.582  1.00  0.00    -0.212 NA
ENDBRANCH  12  15
ENDBRANCH   5   9
BRANCH   1  22
HETATM   22  C   UNL     1      21.454  50.434  48.269  1.00  0.00    -0.030 A 
HETATM   23  C   UNL     1      22.561  51.294  48.177  1.00  0.00     0.014 A 
HETATM   24  C   UNL     1      23.868  50.836  48.404  1.00  0.00     0.037 A 
HETATM   25  C   UNL     1      24.097  49.502  48.727  1.00  0.00     0.068 A 
HETATM   26  C   UNL     1      23.012  48.633  48.813  1.00  0.00     0.037 A 
HETATM   27  C   UNL     1      21.708  49.094  48.598  1.00  0.00     0.014 A 
BRANCH  25  28
HETATM   28  O   UNL     1      25.314  48.928  48.971  1.00  0.00    -0.352 OA
BRANCH  28  29
HETATM   29  C   UNL     1      26.455  49.560  48.395  1.00  0.00     0.171 C 
HETATM   30  C   UNL     1      27.690  49.024  49.096  1.00  0.00     0.034 C 
ENDBRANCH  28  29
ENDBRANCH  25  28
ENDBRANCH   1  22
TORSDOF 5
ENDMDL
MODEL 3
REMARK VINA RESULT:      -8.9      3.146     10.695
REMARK  5 active torsions:
REMARK  status: ('A' for Active; 'I' for Inactive)
REMARK    1  A    between atoms: C_2  and  O_3 
REMARK    2  A    between atoms: O_3  and  C_4 
REMARK    3  A    between atoms: C_7  and  C_8 
REMARK       I    between atoms: N_11  and  C_12 
REMARK    4  A    between atoms: C_12  and  C_13 
REMARK    5  A    between atoms: C_16  and  C_17 
ROOT
HETATM    1  C   UNL     1      25.982  46.679  50.647  1.00  0.00    -0.049 C 
HETATM    2  C   UNL     1      26.793  47.293  49.531  1.00  0.00     0.059 C 
HETATM    3  C   UNL     1      26.283  48.675  49.128  1.00  0.00     0.131 C 
HETATM    4  N   UNL     1      24.831  48.715  48.983  1.00  0.00    -0.344 N 
HETATM    5  C   UNL     1      24.324  49.662  48.084  1.00  0.00     0.254 C 
HETATM    6  O   UNL     1      25.021  50.317  47.313  1.00  0.00    -0.267 OA
HETATM    7  C   UNL     1      24.054  48.242  50.126  1.00  0.00     0.154 C 
HETATM    8  C   UNL     1      24.736  47.138  50.880  1.00  0.00     0.001 C 
ENDROOT
BRANCH   5   9
HETATM    9  C   UNL     1      22.874  49.952  48.092  1.00  0.00     0.032 A 
HETATM   10  C   UNL     1      22.001  48.965  47.627  1.00  0.00     0.018 A 
HETATM   11  C   UNL     1      20.627  49.218  47.588  1.00  0.00     0.016 A 
HETATM   12  C   UNL     1      20.115  50.453  48.015  1.00  0.00     0.014 A 
HETATM   13  C   UNL     1      21.003  51.419  48.518  1.00  0.00     0.016 A 
HETATM   14  C   UNL     1      22.379  51.167  48.570  1.00  0.00     0.018 A 
BRANCH  12  15
HETATM   15  C   UNL     1      18.688  50.741  47.920  1.00  0.00     0.181 A 
HETATM   16  N   UNL     1      17.979  50.670  46.781  1.00  0.00    -0.152 NA
HETATM   17  N   UNL     1      16.760  51.052  47.184  1.00  0.00    -0.263 N 
HETATM   18  H   UNL     1      16.004  51.091  46.511  1.00  0.00     0.190 HD
HETATM   19  C   UNL     1      16.744  51.357  48.513  1.00  0.00     0.118 A 
HETATM   20  C   UNL     1      15.543  51.849  49.219  1.00  0.00     0.093 C 
HETATM   21  N   UNL     1      17.946  51.159  49.006  1.00  0.00    -0.212 NA
ENDBRANCH  12  15
ENDBRANCH   5   9
BRANCH   1  22
HETATM   22  C   UNL     1      26.586  45.576  51.438  1.00  0.00    -0.030 A 
HETATM   23  C   UNL     1      26.439  45.520  52.834  1.00  0.00     0.014 A 
HETATM   24  C   UNL     1      26.973  44.464  53.587  1.00  0.00     0.037 A 
HETATM   25  C   UNL     1      27.671  43.437  52.958  1.00  0.00     0.068 A 
HETATM   26  C   UNL     1      27.834  43.481  51.575  1.00  0.00     0.037 A 
HETATM   27  C   UNL     1      27.290  44.529  50.824  1.00  0.00     0.014 A 
BRANCH  25  28
HETATM   28  O   UNL     1      28.240  42.355  53.569  1.00  0.00    -0.352 OA
BRANCH  28  29
HETATM   29  C   UNL     1      29.651  42.201  53.430  1.00  0.00     0.171 C 
HETATM   30  C   UNL     1      30.324  43.140  54.415  1.00  0.00     0.034 C 
ENDBRANCH  28  29
ENDBRANCH  25  28
ENDBRANCH   1  22
TORSDOF 5
ENDMDL
MODEL 4
REMARK VINA RESULT:      -8.7      4.242      7.398
REMARK  5 active torsions:
REMARK  status: ('A' for Active; 'I' for Inactive)
REMARK    1  A    between atoms: C_2  and  O_3 
REMARK    2  A    between atoms: O_3  and  C_4 
REMARK    3  A    between atoms: C_7  and  C_8 
REMARK       I    between atoms: N_11  and  C_12 
REMARK    4  A    between atoms: C_12  and  C_13 
REMARK    5  A    between atoms: C_16  and  C_17 
ROOT
HETATM    1  C   UNL     1      16.267  52.326  49.558  1.00  0.00    -0.049 C 
HETATM    2  C   UNL     1      15.722  51.344  48.548  1.00  0.00     0.059 C 
HETATM    3  C   UNL     1      16.541  50.057  48.482  1.00  0.00     0.131 C 
HETATM    4  N   UNL     1      17.978  50.310  48.442  1.00  0.00    -0.344 N 
HETATM    5  C   UNL     1      18.760  49.341  47.800  1.00  0.00     0.254 C 
HETATM    6  O   UNL     1      18.297  48.412  47.142  1.00  0.00    -0.267 OA
HETATM    7  C   UNL     1      18.515  51.154  49.506  1.00  0.00     0.154 C 
HETATM    8  C   UNL     1      17.548  52.207  49.962  1.00  0.00     0.001 C 
ENDROOT
BRANCH   5   9
HETATM    9  C   UNL     1      20.230  49.384  47.962  1.00  0.00     0.032 A 
HETATM   10  C   UNL     1      20.895  50.570  47.641  1.00  0.00     0.018 A 
HETATM   11  C   UNL     1      22.286  50.635  47.749  1.00  0.00     0.016 A 
HETATM   12  C   UNL     1      23.022  49.520  48.182  1.00  0.00     0.014 A 
HETATM   13  C   UNL     1      22.334  48.349  48.540  1.00  0.00     0.016 A 
HETATM   14  C   UNL     1      20.939  48.282  48.444  1.00  0.00     0.018 A 
BRANCH  12  15
HETATM   15  C   UNL     1      24.480  49.567  48.240  1.00  0.00     0.181 A 
HETATM   16  N   UNL     1      25.247  50.249  47.373  1.00  0.00    -0.152 NA
HETATM   17  N   UNL     1      26.482  49.960  47.803  1.00  0.00    -0.263 N 
HETATM   18  H   UNL     1      27.281  50.354  47.319  1.00  0.00     0.190 HD
HETATM   19  C   UNL     1      26.456  49.122  48.878  1.00  0.00     0.118 A 
HETATM   20  C   UNL     1      27.673  48.603  49.533  1.00  0.00     0.093 C 
HETATM   21  N   UNL     1      25.203  48.866  49.183  1.00  0.00    -0.212 NA
ENDBRANCH  12  15
ENDBRANCH   5   9
BRANCH   1  22
HETATM   22  C   UNL     1      15.371  53.402  50.055  1.00  0.00    -0.030 A 
HETATM   23  C   UNL     1      14.042  53.128  50.416  1.00  0.00     0.014 A 
HETATM   24  C   UNL     1      13.197  54.128  50.921  1.00  0.00     0.037 A 
HETATM   25  C   UNL     1      13.665  55.429  51.076  1.00  0.00     0.068 A 
HETATM   26  C   UNL     1      14.979  55.721  50.715  1.00  0.00     0.037 A 
HETATM   27  C   UNL     1      15.824  54.719  50.222  1.00  0.00     0.014 A 
BRANCH  25  28
HETATM   28  O   UNL     1      12.952  56.493  51.553  1.00  0.00    -0.352 OA
BRANCH  28  29
HETATM   29  C   UNL     1      13.690  57.539  52.180  1.00  0.00     0.171 C 
HETATM   30  C   UNL     1      13.332  57.544  53.656  1.00  0.00     0.034 C 
ENDBRANCH  28  29
ENDBRANCH  25  28
ENDBRANCH   1  22
TORSDOF 5
ENDMDL
MODEL 5
REMARK VINA RESULT:      -8.7      3.466     10.908
REMARK  5 active torsions:
REMARK  status: ('A' for Active; 'I' for Inactive)
REMARK    1  A    between atoms: C_2  and  O_3 
REMARK    2  A    between atoms: O_3  and  C_4 
REMARK    3  A    between atoms: C_7  and  C_8 
REMARK       I    between atoms: N_11  and  C_12 
REMARK    4  A    between atoms: C_12  and  C_13 
REMARK    5  A    between atoms: C_16  and  C_17 
ROOT
HETATM    1  C   UNL     1      25.823  45.553  51.470  1.00  0.00    -0.049 C 
HETATM    2  C   UNL     1      25.471  44.462  50.486  1.00  0.00     0.059 C 
HETATM    3  C   UNL     1      24.874  45.011  49.191  1.00  0.00     0.131 C 
HETATM    4  N   UNL     1      23.858  46.030  49.432  1.00  0.00    -0.344 N 
HETATM    5  C   UNL     1      22.864  46.158  48.453  1.00  0.00     0.254 C 
HETATM    6  O   UNL     1      22.712  45.368  47.524  1.00  0.00    -0.267 OA
HETATM    7  C   UNL     1      24.257  47.153  50.278  1.00  0.00     0.154 C 
HETATM    8  C   UNL     1      25.241  46.763  51.341  1.00  0.00     0.001 C 
ENDROOT
BRANCH   5   9
HETATM    9  C   UNL     1      21.975  47.339  48.485  1.00  0.00     0.032 A 
HETATM   10  C   UNL     1      22.506  48.576  48.109  1.00  0.00     0.018 A 
HETATM   11  C   UNL     1      21.704  49.718  48.161  1.00  0.00     0.016 A 
HETATM   12  C   UNL     1      20.367  49.635  48.582  1.00  0.00     0.014 A 
HETATM   13  C   UNL     1      19.837  48.377  48.916  1.00  0.00     0.016 A 
HETATM   14  C   UNL     1      20.633  47.228  48.856  1.00  0.00     0.018 A 
BRANCH  12  15
HETATM   15  C   UNL     1      19.545  50.836  48.692  1.00  0.00     0.181 A 
HETATM   16  N   UNL     1      19.853  52.014  48.126  1.00  0.00    -0.152 NA
HETATM   17  N   UNL     1      18.843  52.795  48.534  1.00  0.00    -0.263 N 
HETATM   18  H   UNL     1      18.818  53.766  48.245  1.00  0.00     0.190 HD
HETATM   19  C   UNL     1      17.971  52.112  49.328  1.00  0.00     0.118 A 
HETATM   20  C   UNL     1      16.787  52.733  49.956  1.00  0.00     0.093 C 
HETATM   21  N   UNL     1      18.383  50.869  49.438  1.00  0.00    -0.212 NA
ENDBRANCH  12  15
ENDBRANCH   5   9
BRANCH   1  22
HETATM   22  C   UNL     1      26.788  45.244  52.556  1.00  0.00    -0.030 A 
HETATM   23  C   UNL     1      27.650  44.139  52.466  1.00  0.00     0.014 A 
HETATM   24  C   UNL     1      28.591  43.857  53.467  1.00  0.00     0.037 A 
HETATM   25  C   UNL     1      28.690  44.678  54.587  1.00  0.00     0.068 A 
HETATM   26  C   UNL     1      27.836  45.773  54.698  1.00  0.00     0.037 A 
HETATM   27  C   UNL     1      26.906  46.059  53.691  1.00  0.00     0.014 A 
BRANCH  25  28
HETATM   28  O   UNL     1      29.557  44.518  55.631  1.00  0.00    -0.352 OA
BRANCH  28  29
HETATM   29  C   UNL     1      30.612  43.575  55.458  1.00  0.00     0.171 C 
HETATM   30  C   UNL     1      31.391  43.500  56.759  1.00  0.00     0.034 C 
ENDBRANCH  28  29
ENDBRANCH  25  28
ENDBRANCH   1  22
TORSDOF 5
ENDMDL
MODEL 6
REMARK VINA RESULT:      -8.2      3.858     10.923
REMARK  5 active torsions:
REMARK  status: ('A' for Active; 'I' for Inactive)
REMARK    1  A    between atoms: C_2  and  O_3 
REMARK    2  A    between atoms: O_3  and  C_4 
REMARK    3  A    between atoms: C_7  and  C_8 
REMARK       I    between atoms: N_11  and  C_12 
REMARK    4  A    between atoms: C_12  and  C_13 
REMARK    5  A    between atoms: C_16  and  C_17 
ROOT
HETATM    1  C   UNL     1      26.307  44.955  51.631  1.00  0.00    -0.049 C 
HETATM    2  C   UNL     1      26.296  43.843  50.609  1.00  0.00     0.059 C 
HETATM    3  C   UNL     1      25.646  44.265  49.292  1.00  0.00     0.131 C 
HETATM    4  N   UNL     1      24.391  44.983  49.494  1.00  0.00    -0.344 N 
HETATM    5  C   UNL     1      23.449  44.887  48.462  1.00  0.00     0.254 C 
HETATM    6  O   UNL     1      23.551  44.115  47.511  1.00  0.00    -0.267 OA
HETATM    7  C   UNL     1      24.446  46.142  50.383  1.00  0.00     0.154 C 
HETATM    8  C   UNL     1      25.443  45.980  51.493  1.00  0.00     0.001 C 
ENDROOT
BRANCH   5   9
HETATM    9  C   UNL     1      22.287  45.801  48.465  1.00  0.00     0.032 A 
HETATM   10  C   UNL     1      22.508  47.152  48.181  1.00  0.00     0.018 A 
HETATM   11  C   UNL     1      21.438  48.049  48.210  1.00  0.00     0.016 A 
HETATM   12  C   UNL     1      20.142  47.607  48.517  1.00  0.00     0.014 A 
HETATM   13  C   UNL     1      19.930  46.239  48.758  1.00  0.00     0.016 A 
HETATM   14  C   UNL     1      20.996  45.334  48.720  1.00  0.00     0.018 A 
BRANCH  12  15
HETATM   15  C   UNL     1      19.033  48.553  48.604  1.00  0.00     0.181 A 
HETATM   16  N   UNL     1      17.908  48.463  47.877  1.00  0.00    -0.152 NA
HETATM   17  N   UNL     1      17.231  49.550  48.270  1.00  0.00    -0.263 N 
HETATM   18  H   UNL     1      16.318  49.737  47.872  1.00  0.00     0.190 HD
HETATM   19  C   UNL     1      17.933  50.273  49.188  1.00  0.00     0.118 A 
HETATM   20  C   UNL     1      17.449  51.544  49.764  1.00  0.00     0.093 C 
HETATM   21  N   UNL     1      19.072  49.661  49.426  1.00  0.00    -0.212 NA
ENDBRANCH  12  15
ENDBRANCH   5   9
BRANCH   1  22
HETATM   22  C   UNL     1      27.263  44.865  52.765  1.00  0.00    -0.030 A 
HETATM   23  C   UNL     1      27.175  45.742  53.858  1.00  0.00     0.014 A 
HETATM   24  C   UNL     1      28.049  45.644  54.951  1.00  0.00     0.037 A 
HETATM   25  C   UNL     1      29.035  44.663  54.974  1.00  0.00     0.068 A 
HETATM   26  C   UNL     1      29.143  43.789  53.894  1.00  0.00     0.037 A 
HETATM   27  C   UNL     1      28.263  43.882  52.809  1.00  0.00     0.014 A 
BRANCH  25  28
HETATM   28  O   UNL     1      29.948  44.458  55.971  1.00  0.00    -0.352 OA
BRANCH  28  29
HETATM   29  C   UNL     1      30.849  43.364  55.809  1.00  0.00     0.171 C 
HETATM   30  C   UNL     1      31.610  43.189  57.111  1.00  0.00     0.034 C 
ENDBRANCH  28  29
ENDBRANCH  25  28
ENDBRANCH   1  22
TORSDOF 5
ENDMDL
MODEL 7
REMARK VINA RESULT:      -8.0      3.328      5.096
REMARK  5 active torsions:
REMARK  status: ('A' for Active; 'I' for Inactive)
REMARK    1  A    between atoms: C_2  and  O_3 
REMARK    2  A    between atoms: O_3  and  C_4 
REMARK    3  A    between atoms: C_7  and  C_8 
REMARK       I    between atoms: N_11  and  C_12 
REMARK    4  A    between atoms: C_12  and  C_13 
REMARK    5  A    between atoms: C_16  and  C_17 
ROOT
HETATM    1  C   UNL     1      24.268  45.865  49.648  1.00  0.00    -0.049 C 
HETATM    2  C   UNL     1      24.672  44.703  48.772  1.00  0.00     0.059 C 
HETATM    3  C   UNL     1      25.201  43.519  49.579  1.00  0.00     0.131 C 
HETATM    4  N   UNL     1      26.150  43.925  50.611  1.00  0.00    -0.344 N 
HETATM    5  C   UNL     1      27.111  42.974  50.978  1.00  0.00     0.254 C 
HETATM    6  O   UNL     1      27.297  41.920  50.375  1.00  0.00    -0.267 OA
HETATM    7  C   UNL     1      25.694  44.958  51.537  1.00  0.00     0.154 C 
HETATM    8  C   UNL     1      24.761  45.946  50.899  1.00  0.00     0.001 C 
ENDROOT
BRANCH   5   9
HETATM    9  C   UNL     1      27.918  43.204  52.196  1.00  0.00     0.032 A 
HETATM   10  C   UNL     1      27.348  43.945  53.235  1.00  0.00     0.018 A 
HETATM   11  C   UNL     1      28.095  44.211  54.386  1.00  0.00     0.016 A 
HETATM   12  C   UNL     1      29.409  43.736  54.511  1.00  0.00     0.014 A 
HETATM   13  C   UNL     1      29.951  42.956  53.475  1.00  0.00     0.016 A 
HETATM   14  C   UNL     1      29.205  42.678  52.325  1.00  0.00     0.018 A 
BRANCH  12  15
HETATM   15  C   UNL     1      30.210  44.061  55.686  1.00  0.00     0.181 A 
HETATM   16  N   UNL     1      31.261  43.337  56.106  1.00  0.00    -0.152 NA
HETATM   17  N   UNL     1      31.631  43.993  57.214  1.00  0.00    -0.263 N 
HETATM   18  H   UNL     1      32.424  43.657  57.748  1.00  0.00     0.190 HD
HETATM   19  C   UNL     1      30.821  45.062  57.457  1.00  0.00     0.118 A 
HETATM   20  C   UNL     1      30.968  45.941  58.635  1.00  0.00     0.093 C 
HETATM   21  N   UNL     1      29.920  45.136  56.503  1.00  0.00    -0.212 NA
ENDBRANCH  12  15
ENDBRANCH   5   9
BRANCH   1  22
HETATM   22  C   UNL     1      23.350  46.890  49.085  1.00  0.00    -0.030 A 
HETATM   23  C   UNL     1      22.365  46.543  48.146  1.00  0.00     0.014 A 
HETATM   24  C   UNL     1      21.469  47.493  47.636  1.00  0.00     0.037 A 
HETATM   25  C   UNL     1      21.539  48.819  48.054  1.00  0.00     0.068 A 
HETATM   26  C   UNL     1      22.515  49.183  48.979  1.00  0.00     0.037 A 
HETATM   27  C   UNL     1      23.401  48.230  49.496  1.00  0.00     0.014 A 
BRANCH  25  28
HETATM   28  O   UNL     1      20.732  49.841  47.638  1.00  0.00    -0.352 OA
BRANCH  28  29
HETATM   29  C   UNL     1      19.849  50.403  48.606  1.00  0.00     0.171 C 
HETATM   30  C   UNL     1      20.040  51.909  48.594  1.00  0.00     0.034 C 
ENDBRANCH  28  29
ENDBRANCH  25  28
ENDBRANCH   1  22
TORSDOF 5
ENDMDL
MODEL 8
REMARK VINA RESULT:      -8.0      5.005      8.932
REMARK  5 active torsions:
REMARK  status: ('A' for Active; 'I' for Inactive)
REMARK    1  A    between atoms: C_2  and  O_3 
REMARK    2  A    between atoms: O_3  and  C_4 
REMARK    3  A    between atoms: C_7  and  C_8 
REMARK       I    between atoms: N_11  and  C_12 
REMARK    4  A    between atoms: C_12  and  C_13 
REMARK    5  A    between atoms: C_16  and  C_17 
ROOT
HETATM    1  C   UNL     1      14.953  53.680  49.807  1.00  0.00    -0.049 C 
HETATM    2  C   UNL     1      14.608  53.659  48.337  1.00  0.00     0.059 C 
HETATM    3  C   UNL     1      15.205  52.453  47.613  1.00  0.00     0.131 C 
HETATM    4  N   UNL     1      16.604  52.229  47.962  1.00  0.00    -0.344 N 
HETATM    5  C   UNL     1      17.393  51.602  46.989  1.00  0.00     0.254 C 
HETATM    6  O   UNL     1      17.024  51.399  45.835  1.00  0.00    -0.267 OA
HETATM    7  C   UNL     1      16.904  52.117  49.388  1.00  0.00     0.154 C 
HETATM    8  C   UNL     1      16.011  52.968  50.242  1.00  0.00     0.001 C 
ENDROOT
BRANCH   5   9
HETATM    9  C   UNL     1      18.729  51.093  47.368  1.00  0.00     0.032 A 
HETATM   10  C   UNL     1      19.591  51.949  48.059  1.00  0.00     0.018 A 
HETATM   11  C   UNL     1      20.872  51.512  48.401  1.00  0.00     0.016 A 
HETATM   12  C   UNL     1      21.301  50.219  48.063  1.00  0.00     0.014 A 
HETATM   13  C   UNL     1      20.407  49.356  47.407  1.00  0.00     0.016 A 
HETATM   14  C   UNL     1      19.118  49.785  47.070  1.00  0.00     0.018 A 
BRANCH  12  15
HETATM   15  C   UNL     1      22.659  49.780  48.370  1.00  0.00     0.181 A 
HETATM   16  N   UNL     1      22.969  48.918  49.352  1.00  0.00    -0.152 NA
HETATM   17  N   UNL     1      24.304  48.862  49.267  1.00  0.00    -0.263 N 
HETATM   18  H   UNL     1      24.818  48.267  49.907  1.00  0.00     0.190 HD
HETATM   19  C   UNL     1      24.778  49.674  48.280  1.00  0.00     0.118 A 
HETATM   20  C   UNL     1      26.216  49.845  47.988  1.00  0.00     0.093 C 
HETATM   21  N   UNL     1      23.760  50.259  47.689  1.00  0.00    -0.212 NA
ENDBRANCH  12  15
ENDBRANCH   5   9
BRANCH   1  22
HETATM   22  C   UNL     1      14.118  54.505  50.719  1.00  0.00    -0.030 A 
HETATM   23  C   UNL     1      14.628  54.981  51.938  1.00  0.00     0.014 A 
HETATM   24  C   UNL     1      13.862  55.790  52.789  1.00  0.00     0.037 A 
HETATM   25  C   UNL     1      12.562  56.142  52.439  1.00  0.00     0.068 A 
HETATM   26  C   UNL     1      12.035  55.672  51.238  1.00  0.00     0.037 A 
HETATM   27  C   UNL     1      12.806  54.874  50.384  1.00  0.00     0.014 A 
BRANCH  25  28
HETATM   28  O   UNL     1      11.710  56.919  53.173  1.00  0.00    -0.352 OA
BRANCH  28  29
HETATM   29  C   UNL     1      12.298  57.928  53.993  1.00  0.00     0.171 C 
HETATM   30  C   UNL     1      12.161  59.256  53.271  1.00  0.00     0.034 C 
ENDBRANCH  28  29
ENDBRANCH  25  28
ENDBRANCH   1  22
TORSDOF 5
ENDMDL
MODEL 9
REMARK VINA RESULT:      -7.8      2.240      2.688
REMARK  5 active torsions:
REMARK  status: ('A' for Active; 'I' for Inactive)
REMARK    1  A    between atoms: C_2  and  O_3 
REMARK    2  A    between atoms: O_3  and  C_4 
REMARK    3  A    between atoms: C_7  and  C_8 
REMARK       I    between atoms: N_11  and  C_12 
REMARK    4  A    between atoms: C_12  and  C_13 
REMARK    5  A    between atoms: C_16  and  C_17 
ROOT
HETATM    1  C   UNL     1      20.513  48.012  48.449  1.00  0.00    -0.049 C 
HETATM    2  C   UNL     1      21.275  49.312  48.349  1.00  0.00     0.059 C 
HETATM    3  C   UNL     1      22.778  49.098  48.179  1.00  0.00     0.131 C 
HETATM    4  N   UNL     1      23.308  48.096  49.099  1.00  0.00    -0.344 N 
HETATM    5  C   UNL     1      24.654  48.236  49.461  1.00  0.00     0.254 C 
HETATM    6  O   UNL     1      25.336  49.223  49.193  1.00  0.00    -0.267 OA
HETATM    7  C   UNL     1      22.644  46.794  49.087  1.00  0.00     0.154 C 
HETATM    8  C   UNL     1      21.175  46.889  48.794  1.00  0.00     0.001 C 
ENDROOT
BRANCH   5   9
HETATM    9  C   UNL     1      25.330  47.118  50.154  1.00  0.00     0.032 A 
HETATM   10  C   UNL     1      25.067  46.928  51.513  1.00  0.00     0.018 A 
HETATM   11  C   UNL     1      25.715  45.903  52.207  1.00  0.00     0.016 A 
HETATM   12  C   UNL     1      26.624  45.059  51.550  1.00  0.00     0.014 A 
HETATM   13  C   UNL     1      26.845  45.238  50.173  1.00  0.00     0.016 A 
HETATM   14  C   UNL     1      26.190  46.256  49.472  1.00  0.00     0.018 A 
BRANCH  12  15
HETATM   15  C   UNL     1      27.346  44.025  52.285  1.00  0.00     0.181 A 
HETATM   16  N   UNL     1      27.030  42.720  52.254  1.00  0.00    -0.152 NA
HETATM   17  N   UNL     1      27.930  42.193  53.095  1.00  0.00    -0.263 N 
HETATM   18  H   UNL     1      27.924  41.194  53.266  1.00  0.00     0.190 HD
HETATM   19  C   UNL     1      28.743  43.151  53.624  1.00  0.00     0.118 A 
HETATM   20  C   UNL     1      29.799  42.863  54.616  1.00  0.00     0.093 C 
HETATM   21  N   UNL     1      28.404  44.317  53.122  1.00  0.00    -0.212 NA
ENDBRANCH  12  15
ENDBRANCH   5   9
BRANCH   1  22
HETATM   22  C   UNL     1      19.052  48.024  48.178  1.00  0.00    -0.030 A 
HETATM   23  C   UNL     1      18.154  47.344  49.016  1.00  0.00     0.014 A 
HETATM   24  C   UNL     1      16.770  47.380  48.791  1.00  0.00     0.037 A 
HETATM   25  C   UNL     1      16.251  48.097  47.718  1.00  0.00     0.068 A 
HETATM   26  C   UNL     1      17.129  48.770  46.870  1.00  0.00     0.037 A 
HETATM   27  C   UNL     1      18.509  48.744  47.103  1.00  0.00     0.014 A 
BRANCH  25  28
HETATM   28  O   UNL     1      14.931  48.213  47.386  1.00  0.00    -0.352 OA
BRANCH  28  29
HETATM   29  C   UNL     1      14.616  49.023  46.256  1.00  0.00     0.171 C 
HETATM   30  C   UNL     1      13.644  48.250  45.382  1.00  0.00     0.034 C 
ENDBRANCH  28  29
ENDBRANCH  25  28
ENDBRANCH   1  22
TORSDOF 5
ENDMDL
MODEL 10
REMARK VINA RESULT:      -7.8     12.659     15.423
REMARK  5 active torsions:
REMARK  status: ('A' for Active; 'I' for Inactive)
REMARK    1  A    between atoms: C_2  and  O_3 
REMARK    2  A    between atoms: O_3  and  C_4 
REMARK    3  A    between atoms: C_7  and  C_8 
REMARK       I    between atoms: N_11  and  C_12 
REMARK    4  A    between atoms: C_12  and  C_13 
REMARK    5  A    between atoms: C_16  and  C_17 
ROOT
HETATM    1  C   UNL     1      32.839  50.593  42.260  1.00  0.00    -0.049 C 
HETATM    2  C   UNL     1      33.895  49.872  41.457  1.00  0.00     0.059 C 
HETATM    3  C   UNL     1      35.288  50.002  42.070  1.00  0.00     0.131 C 
HETATM    4  N   UNL     1      35.593  51.371  42.477  1.00  0.00    -0.344 N 
HETATM    5  C   UNL     1      36.947  51.731  42.474  1.00  0.00     0.254 C 
HETATM    6  O   UNL     1      37.840  51.034  41.997  1.00  0.00    -0.267 OA
HETATM    7  C   UNL     1      34.626  52.011  43.366  1.00  0.00     0.154 C 
HETATM    8  C   UNL     1      33.216  51.566  43.114  1.00  0.00     0.001 C 
ENDROOT
BRANCH   5   9
HETATM    9  C   UNL     1      37.355  52.990  43.133  1.00  0.00     0.032 A 
HETATM   10  C   UNL     1      37.486  54.136  42.345  1.00  0.00     0.018 A 
HETATM   11  C   UNL     1      37.904  55.334  42.930  1.00  0.00     0.016 A 
HETATM   12  C   UNL     1      38.188  55.399  44.303  1.00  0.00     0.014 A 
HETATM   13  C   UNL     1      38.009  54.248  45.089  1.00  0.00     0.016 A 
HETATM   14  C   UNL     1      37.581  53.048  44.510  1.00  0.00     0.018 A 
BRANCH  12  15
HETATM   15  C   UNL     1      38.679  56.634  44.904  1.00  0.00     0.181 A 
HETATM   16  N   UNL     1      38.938  56.783  46.214  1.00  0.00    -0.152 NA
HETATM   17  N   UNL     1      39.316  58.067  46.282  1.00  0.00    -0.263 N 
HETATM   18  H   UNL     1      39.579  58.460  47.179  1.00  0.00     0.190 HD
HETATM   19  C   UNL     1      39.269  58.669  45.060  1.00  0.00     0.118 A 
HETATM   20  C   UNL     1      39.590  60.094  44.843  1.00  0.00     0.093 C 
HETATM   21  N   UNL     1      38.880  57.785  44.169  1.00  0.00    -0.212 NA
ENDBRANCH  12  15
ENDBRANCH   5   9
BRANCH   1  22
HETATM   22  C   UNL     1      31.416  50.213  42.063  1.00  0.00    -0.030 A 
HETATM   23  C   UNL     1      30.963  48.918  42.367  1.00  0.00     0.014 A 
HETATM   24  C   UNL     1      29.616  48.558  42.220  1.00  0.00     0.037 A 
HETATM   25  C   UNL     1      28.687  49.487  41.762  1.00  0.00     0.068 A 
HETATM   26  C   UNL     1      29.120  50.773  41.446  1.00  0.00     0.037 A 
HETATM   27  C   UNL     1      30.463  51.135  41.605  1.00  0.00     0.014 A 
BRANCH  25  28
HETATM   28  O   UNL     1      27.351  49.269  41.573  1.00  0.00    -0.352 OA
BRANCH  28  29
HETATM   29  C   UNL     1      26.987  48.220  40.678  1.00  0.00     0.171 C 
HETATM   30  C   UNL     1      26.771  48.831  39.305  1.00  0.00     0.034 C 
ENDBRANCH  28  29
ENDBRANCH  25  28
ENDBRANCH   1  22
TORSDOF 5
ENDMDL
