MODEL 1
REMARK VINA RESULT:      -9.5      0.000      0.000
REMARK  5 active torsions:
REMARK  status: ('A' for Active; 'I' for Inactive)
REMARK    1  A    between atoms: C_5  and  C_6 
REMARK    2  A    between atoms: C_6  and  N_7 
REMARK    3  A    between atoms: C_9  and  C_10 
REMARK       I    between atoms: C_10  and  N_11 
REMARK    4  A    between atoms: N_11  and  C_12 
REMARK    5  A    between atoms: C_12  and  O_13 
ROOT
HETATM    1  N   UNL     1      26.393  45.916  53.232  1.00  0.00    -0.361 N 
HETATM    2  C   UNL     1      26.426  46.882  52.281  1.00  0.00     0.107 A 
HETATM    3  C   UNL     1      25.592  46.816  51.163  1.00  0.00     0.047 A 
HETATM    4  C   UNL     1      24.738  45.723  51.024  1.00  0.00     0.020 A 
HETATM    5  C   UNL     1      24.720  44.739  52.010  1.00  0.00     0.018 A 
HETATM    6  C   UNL     1      25.553  44.861  53.119  1.00  0.00     0.090 A 
ENDROOT
BRANCH   1   7
HETATM    7  C   UNL     1      27.252  46.051  54.438  1.00  0.00     0.167 C 
BRANCH   7   8
HETATM    8  C   UNL     1      28.397  45.066  54.515  1.00  0.00    -0.029 A 
HETATM    9  C   UNL     1      29.231  45.060  55.678  1.00  0.00    -0.018 A 
HETATM   10  C   UNL     1      30.291  44.121  55.758  1.00  0.00    -0.025 A 
HETATM   11  C   UNL     1      29.070  45.946  56.773  1.00  0.00     0.013 A 
HETATM   12  C   UNL     1      31.129  44.091  56.884  1.00  0.00     0.012 A 
HETATM   13  C   UNL     1      30.508  43.218  54.711  1.00  0.00     0.012 A 
HETATM   14  C   UNL     1      30.944  44.979  57.940  1.00  0.00     0.001 A 
HETATM   15  C   UNL     1      29.916  45.907  57.885  1.00  0.00     0.001 A 
HETATM   16  C   UNL     1      29.701  43.232  53.580  1.00  0.00     0.002 A 
HETATM   17  C   UNL     1      28.657  44.148  53.479  1.00  0.00     0.010 A 
ENDBRANCH   7   8
ENDBRANCH   1   7
BRANCH   3  18
HETATM   18  C   UNL     1      25.690  47.933  50.194  1.00  0.00     0.254 C 
HETATM   19  N   UNL     1      26.930  48.284  49.735  1.00  0.00    -0.336 N 
HETATM   20  H   UNL     1      27.782  47.796  49.957  1.00  0.00     0.164 HD
HETATM   21  O   UNL     1      24.653  48.474  49.829  1.00  0.00    -0.268 OA
BRANCH  19  22
HETATM   22  C   UNL     1      27.094  49.319  48.770  1.00  0.00     0.290 C 
BRANCH  22  23
HETATM   23  O   UNL     1      28.396  49.801  48.993  1.00  0.00    -0.382 OA
HETATM   24  H   UNL     1      28.347  50.769  48.912  1.00  0.00     0.211 HD
ENDBRANCH  22  23
ENDBRANCH  19  22
ENDBRANCH   3  18
TORSDOF 5
ENDMDL
MODEL 2
REMARK VINA RESULT:      -9.1      1.342      2.616
REMARK  5 active torsions:
REMARK  status: ('A' for Active; 'I' for Inactive)
REMARK    1  A    between atoms: C_5  and  C_6 
REMARK    2  A    between atoms: C_6  and  N_7 
REMARK    3  A    between atoms: C_9  and  C_10 
REMARK       I    between atoms: C_10  and  N_11 
REMARK    4  A    between atoms: N_11  and  C_12 
REMARK    5  A    between atoms: C_12  and  O_13 
ROOT
HETATM    1  N   UNL     1      25.506  45.063  52.061  1.00  0.00    -0.361 N 
HETATM    2  C   UNL     1      25.655  46.311  51.553  1.00  0.00     0.107 A 
HETATM    3  C   UNL     1      25.646  46.529  50.174  1.00  0.00     0.047 A 
HETATM    4  C   UNL     1      25.506  45.436  49.320  1.00  0.00     0.020 A 
HETATM    5  C   UNL     1      25.357  44.161  49.861  1.00  0.00     0.018 A 
HETATM    6  C   UNL     1      25.348  43.996  51.243  1.00  0.00     0.090 A 
ENDROOT
BRANCH   1   7
HETATM    7  C   UNL     1      25.459  44.877  53.535  1.00  0.00     0.167 C 
BRANCH   7   8
HETATM    8  C   UNL     1      26.671  45.394  54.278  1.00  0.00    -0.029 A 
HETATM    9  C   UNL     1      27.809  44.540  54.430  1.00  0.00    -0.018 A 
HETATM   10  C   UNL     1      28.953  45.034  55.108  1.00  0.00    -0.025 A 
HETATM   11  C   UNL     1      27.872  43.210  53.944  1.00  0.00     0.013 A 
HETATM   12  C   UNL     1      30.085  44.220  55.276  1.00  0.00     0.012 A 
HETATM   13  C   UNL     1      28.958  46.338  55.616  1.00  0.00     0.012 A 
HETATM   14  C   UNL     1      30.111  42.917  54.788  1.00  0.00     0.001 A 
HETATM   15  C   UNL     1      29.005  42.411  54.123  1.00  0.00     0.001 A 
HETATM   16  C   UNL     1      27.848  47.161  55.474  1.00  0.00     0.002 A 
HETATM   17  C   UNL     1      26.713  46.696  54.815  1.00  0.00     0.010 A 
ENDBRANCH   7   8
ENDBRANCH   1   7
BRANCH   3  18
HETATM   18  C   UNL     1      25.795  47.933  49.722  1.00  0.00     0.254 C 
HETATM   19  N   UNL     1      27.025  48.348  49.294  1.00  0.00    -0.336 N 
HETATM   20  H   UNL     1      27.831  47.750  49.200  1.00  0.00     0.164 HD
HETATM   21  O   UNL     1      24.801  48.651  49.730  1.00  0.00    -0.268 OA
BRANCH  19  22
HETATM   22  C   UNL     1      27.231  49.670  48.806  1.00  0.00     0.290 C 
BRANCH  22  23
HETATM   23  O   UNL     1      26.448  49.738  47.640  1.00  0.00    -0.382 OA
HETATM   24  H   UNL     1      26.935  50.304  47.017  1.00  0.00     0.211 HD
ENDBRANCH  22  23
ENDBRANCH  19  22
ENDBRANCH   3  18
TORSDOF 5
ENDMDL
MODEL 3
REMARK VINA RESULT:      -8.8      2.589      3.619
REMARK  5 active torsions:
REMARK  status: ('A' for Active; 'I' for Inactive)
REMARK    1  A    between atoms: C_5  and  C_6 
REMARK    2  A    between atoms: C_6  and  N_7 
REMARK    3  A    between atoms: C_9  and  C_10 
REMARK       I    between atoms: C_10  and  N_11 
REMARK    4  A    between atoms: N_11  and  C_12 
REMARK    5  A    between atoms: C_12  and  O_13 
ROOT
HETATM    1  N   UNL     1      26.636  46.014  53.625  1.00  0.00    -0.361 N 
HETATM    2  C   UNL     1      26.294  44.808  53.109  1.00  0.00     0.107 A 
HETATM    3  C   UNL     1      25.488  44.717  51.972  1.00  0.00     0.047 A 
HETATM    4  C   UNL     1      25.016  45.890  51.386  1.00  0.00     0.020 A 
HETATM    5  C   UNL     1      25.377  47.120  51.933  1.00  0.00     0.018 A 
HETATM    6  C   UNL     1      26.202  47.161  53.053  1.00  0.00     0.090 A 
ENDROOT
BRANCH   1   7
HETATM    7  C   UNL     1      27.545  46.072  54.799  1.00  0.00     0.167 C 
BRANCH   7   8
HETATM    8  C   UNL     1      28.655  45.043  54.794  1.00  0.00    -0.029 A 
HETATM    9  C   UNL     1      29.523  44.953  55.928  1.00  0.00    -0.018 A 
HETATM   10  C   UNL     1      30.549  43.973  55.931  1.00  0.00    -0.025 A 
HETATM   11  C   UNL     1      29.428  45.791  57.068  1.00  0.00     0.013 A 
HETATM   12  C   UNL     1      31.419  43.860  57.027  1.00  0.00     0.012 A 
HETATM   13  C   UNL     1      30.700  43.114  54.837  1.00  0.00     0.012 A 
HETATM   14  C   UNL     1      31.300  44.703  58.129  1.00  0.00     0.001 A 
HETATM   15  C   UNL     1      30.305  45.669  58.149  1.00  0.00     0.001 A 
HETATM   16  C   UNL     1      29.861  43.211  53.734  1.00  0.00     0.002 A 
HETATM   17  C   UNL     1      28.849  44.167  53.709  1.00  0.00     0.010 A 
ENDBRANCH   7   8
ENDBRANCH   1   7
BRANCH   3  18
HETATM   18  C   UNL     1      25.190  43.352  51.476  1.00  0.00     0.254 C 
HETATM   19  N   UNL     1      26.223  42.463  51.370  1.00  0.00    -0.336 N 
HETATM   20  H   UNL     1      27.168  42.644  51.667  1.00  0.00     0.164 HD
HETATM   21  O   UNL     1      24.026  43.076  51.208  1.00  0.00    -0.268 OA
BRANCH  19  22
HETATM   22  C   UNL     1      26.002  41.122  50.942  1.00  0.00     0.290 C 
BRANCH  22  23
HETATM   23  O   UNL     1      26.823  40.348  51.780  1.00  0.00    -0.382 OA
HETATM   24  H   UNL     1      26.506  39.431  51.702  1.00  0.00     0.211 HD
ENDBRANCH  22  23
ENDBRANCH  19  22
ENDBRANCH   3  18
TORSDOF 5
ENDMDL
MODEL 4
REMARK VINA RESULT:      -8.8      4.775      6.242
REMARK  5 active torsions:
REMARK  status: ('A' for Active; 'I' for Inactive)
REMARK    1  A    between atoms: C_5  and  C_6 
REMARK    2  A    between atoms: C_6  and  N_7 
REMARK    3  A    between atoms: C_9  and  C_10 
REMARK       I    between atoms: C_10  and  N_11 
REMARK    4  A    between atoms: N_11  and  C_12 
REMARK    5  A    between atoms: C_12  and  O_13 
ROOT
HETATM    1  N   UNL     1      27.215  42.191  52.159  1.00  0.00    -0.361 N 
HETATM    2  C   UNL     1      27.770  41.022  51.753  1.00  0.00     0.107 A 
HETATM    3  C   UNL     1      27.975  40.758  50.397  1.00  0.00     0.047 A 
HETATM    4  C   UNL     1      27.576  41.708  49.458  1.00  0.00     0.020 A 
HETATM    5  C   UNL     1      27.006  42.903  49.894  1.00  0.00     0.018 A 
HETATM    6  C   UNL     1      26.843  43.131  51.258  1.00  0.00     0.090 A 
ENDROOT
BRANCH   1   7
HETATM    7  C   UNL     1      27.068  42.462  53.612  1.00  0.00     0.167 C 
BRANCH   7   8
HETATM    8  C   UNL     1      28.208  43.242  54.231  1.00  0.00    -0.029 A 
HETATM    9  C   UNL     1      28.023  44.632  54.516  1.00  0.00    -0.018 A 
HETATM   10  C   UNL     1      29.086  45.357  55.116  1.00  0.00    -0.025 A 
HETATM   11  C   UNL     1      26.833  45.348  54.233  1.00  0.00     0.013 A 
HETATM   12  C   UNL     1      28.938  46.722  55.406  1.00  0.00     0.012 A 
HETATM   13  C   UNL     1      30.290  44.712  55.420  1.00  0.00     0.012 A 
HETATM   14  C   UNL     1      27.755  47.395  55.112  1.00  0.00     0.001 A 
HETATM   15  C   UNL     1      26.703  46.709  54.525  1.00  0.00     0.001 A 
HETATM   16  C   UNL     1      30.468  43.364  55.133  1.00  0.00     0.002 A 
HETATM   17  C   UNL     1      29.440  42.634  54.542  1.00  0.00     0.010 A 
ENDBRANCH   7   8
ENDBRANCH   1   7
BRANCH   3  18
HETATM   18  C   UNL     1      28.607  39.460  50.061  1.00  0.00     0.254 C 
HETATM   19  N   UNL     1      29.312  38.812  51.037  1.00  0.00    -0.336 N 
HETATM   20  H   UNL     1      29.380  39.119  51.994  1.00  0.00     0.164 HD
HETATM   21  O   UNL     1      28.448  39.015  48.930  1.00  0.00    -0.268 OA
BRANCH  19  22
HETATM   22  C   UNL     1      29.909  37.541  50.797  1.00  0.00     0.290 C 
BRANCH  22  23
HETATM   23  O   UNL     1      28.823  36.649  50.746  1.00  0.00    -0.382 OA
HETATM   24  H   UNL     1      28.616  36.525  49.803  1.00  0.00     0.211 HD
ENDBRANCH  22  23
ENDBRANCH  19  22
ENDBRANCH   3  18
TORSDOF 5
ENDMDL
MODEL 5
REMARK VINA RESULT:      -8.7      3.557      8.068
REMARK  5 active torsions:
REMARK  status: ('A' for Active; 'I' for Inactive)
REMARK    1  A    between atoms: C_5  and  C_6 
REMARK    2  A    between atoms: C_6  and  N_7 
REMARK    3  A    between atoms: C_9  and  C_10 
REMARK       I    between atoms: C_10  and  N_11 
REMARK    4  A    between atoms: N_11  and  C_12 
REMARK    5  A    between atoms: C_12  and  O_13 
ROOT
HETATM    1  N   UNL     1      25.668  46.333  52.001  1.00  0.00    -0.361 N 
HETATM    2  C   UNL     1      26.285  45.139  52.175  1.00  0.00     0.107 A 
HETATM    3  C   UNL     1      26.967  44.849  53.359  1.00  0.00     0.047 A 
HETATM    4  C   UNL     1      27.026  45.821  54.357  1.00  0.00     0.020 A 
HETATM    5  C   UNL     1      26.388  47.044  54.158  1.00  0.00     0.018 A 
HETATM    6  C   UNL     1      25.701  47.277  52.970  1.00  0.00     0.090 A 
ENDROOT
BRANCH   1   7
HETATM    7  C   UNL     1      24.902  46.582  50.752  1.00  0.00     0.167 C 
BRANCH   7   8
HETATM    8  C   UNL     1      25.427  47.717  49.901  1.00  0.00    -0.029 A 
HETATM    9  C   UNL     1      24.496  48.565  49.223  1.00  0.00    -0.018 A 
HETATM   10  C   UNL     1      24.990  49.642  48.442  1.00  0.00    -0.025 A 
HETATM   11  C   UNL     1      23.089  48.399  49.275  1.00  0.00     0.013 A 
HETATM   12  C   UNL     1      24.102  50.491  47.762  1.00  0.00     0.012 A 
HETATM   13  C   UNL     1      26.368  49.862  48.344  1.00  0.00     0.012 A 
HETATM   14  C   UNL     1      22.726  50.297  47.834  1.00  0.00     0.001 A 
HETATM   15  C   UNL     1      22.218  49.252  48.589  1.00  0.00     0.001 A 
HETATM   16  C   UNL     1      27.270  49.031  48.997  1.00  0.00     0.002 A 
HETATM   17  C   UNL     1      26.807  47.966  49.766  1.00  0.00     0.010 A 
ENDBRANCH   7   8
ENDBRANCH   1   7
BRANCH   3  18
HETATM   18  C   UNL     1      27.588  43.507  53.457  1.00  0.00     0.254 C 
HETATM   19  N   UNL     1      27.461  42.656  52.394  1.00  0.00    -0.336 N 
HETATM   20  H   UNL     1      27.030  42.897  51.516  1.00  0.00     0.164 HD
HETATM   21  O   UNL     1      28.210  43.231  54.477  1.00  0.00    -0.268 OA
BRANCH  19  22
HETATM   22  C   UNL     1      28.069  41.368  52.402  1.00  0.00     0.290 C 
BRANCH  22  23
HETATM   23  O   UNL     1      27.438  40.691  53.460  1.00  0.00    -0.382 OA
HETATM   24  H   UNL     1      27.149  39.834  53.102  1.00  0.00     0.211 HD
ENDBRANCH  22  23
ENDBRANCH  19  22
ENDBRANCH   3  18
TORSDOF 5
ENDMDL
MODEL 6
REMARK VINA RESULT:      -8.7      2.991      4.146
REMARK  5 active torsions:
REMARK  status: ('A' for Active; 'I' for Inactive)
REMARK    1  A    between atoms: C_5  and  C_6 
REMARK    2  A    between atoms: C_6  and  N_7 
REMARK    3  A    between atoms: C_9  and  C_10 
REMARK       I    between atoms: C_10  and  N_11 
REMARK    4  A    between atoms: N_11  and  C_12 
REMARK    5  A    between atoms: C_12  and  O_13 
ROOT
HETATM    1  N   UNL     1      26.102  44.157  51.768  1.00  0.00    -0.361 N 
HETATM    2  C   UNL     1      24.799  43.997  51.428  1.00  0.00     0.107 A 
HETATM    3  C   UNL     1      24.336  44.370  50.165  1.00  0.00     0.047 A 
HETATM    4  C   UNL     1      25.232  44.937  49.259  1.00  0.00     0.020 A 
HETATM    5  C   UNL     1      26.566  45.096  49.628  1.00  0.00     0.018 A 
HETATM    6  C   UNL     1      26.986  44.687  50.890  1.00  0.00     0.090 A 
ENDROOT
BRANCH   1   7
HETATM    7  C   UNL     1      26.570  43.692  53.099  1.00  0.00     0.167 C 
BRANCH   7   8
HETATM    8  C   UNL     1      27.155  44.775  53.979  1.00  0.00    -0.029 A 
HETATM    9  C   UNL     1      28.423  44.552  54.604  1.00  0.00    -0.018 A 
HETATM   10  C   UNL     1      28.979  45.577  55.412  1.00  0.00    -0.025 A 
HETATM   11  C   UNL     1      29.172  43.357  54.472  1.00  0.00     0.013 A 
HETATM   12  C   UNL     1      30.220  45.389  56.041  1.00  0.00     0.012 A 
HETATM   13  C   UNL     1      28.291  46.783  55.587  1.00  0.00     0.012 A 
HETATM   14  C   UNL     1      30.928  44.201  55.892  1.00  0.00     0.001 A 
HETATM   15  C   UNL     1      30.405  43.184  55.109  1.00  0.00     0.001 A 
HETATM   16  C   UNL     1      27.056  46.991  54.986  1.00  0.00     0.002 A 
HETATM   17  C   UNL     1      26.489  45.998  54.192  1.00  0.00     0.010 A 
ENDBRANCH   7   8
ENDBRANCH   1   7
BRANCH   3  18
HETATM   18  C   UNL     1      22.899  44.134  49.887  1.00  0.00     0.254 C 
HETATM   19  N   UNL     1      22.220  45.065  49.152  1.00  0.00    -0.336 N 
HETATM   20  H   UNL     1      22.640  45.876  48.726  1.00  0.00     0.164 HD
HETATM   21  O   UNL     1      22.392  43.100  50.307  1.00  0.00    -0.268 OA
BRANCH  19  22
HETATM   22  C   UNL     1      20.850  44.882  48.810  1.00  0.00     0.290 C 
BRANCH  22  23
HETATM   23  O   UNL     1      20.178  45.906  49.501  1.00  0.00    -0.382 OA
HETATM   24  H   UNL     1      20.730  46.124  50.271  1.00  0.00     0.211 HD
ENDBRANCH  22  23
ENDBRANCH  19  22
ENDBRANCH   3  18
TORSDOF 5
ENDMDL
MODEL 7
REMARK VINA RESULT:      -8.6      2.429      3.236
REMARK  5 active torsions:
REMARK  status: ('A' for Active; 'I' for Inactive)
REMARK    1  A    between atoms: C_5  and  C_6 
REMARK    2  A    between atoms: C_6  and  N_7 
REMARK    3  A    between atoms: C_9  and  C_10 
REMARK       I    between atoms: C_10  and  N_11 
REMARK    4  A    between atoms: N_11  and  C_12 
REMARK    5  A    between atoms: C_12  and  O_13 
ROOT
HETATM    1  N   UNL     1      26.001  45.843  53.007  1.00  0.00    -0.361 N 
HETATM    2  C   UNL     1      25.042  45.167  52.327  1.00  0.00     0.107 A 
HETATM    3  C   UNL     1      24.622  45.594  51.066  1.00  0.00     0.047 A 
HETATM    4  C   UNL     1      25.188  46.745  50.521  1.00  0.00     0.020 A 
HETATM    5  C   UNL     1      26.171  47.427  51.236  1.00  0.00     0.018 A 
HETATM    6  C   UNL     1      26.573  46.950  52.480  1.00  0.00     0.090 A 
ENDROOT
BRANCH   1   7
HETATM    7  C   UNL     1      26.465  45.325  54.320  1.00  0.00     0.167 C 
BRANCH   7   8
HETATM    8  C   UNL     1      27.787  44.590  54.281  1.00  0.00    -0.029 A 
HETATM    9  C   UNL     1      28.751  44.841  55.309  1.00  0.00    -0.018 A 
HETATM   10  C   UNL     1      29.982  44.136  55.283  1.00  0.00    -0.025 A 
HETATM   11  C   UNL     1      28.559  45.764  56.368  1.00  0.00     0.013 A 
HETATM   12  C   UNL     1      30.950  44.360  56.275  1.00  0.00     0.012 A 
HETATM   13  C   UNL     1      30.238  43.211  54.264  1.00  0.00     0.012 A 
HETATM   14  C   UNL     1      30.729  45.276  57.299  1.00  0.00     0.001 A 
HETATM   15  C   UNL     1      29.534  45.979  57.346  1.00  0.00     0.001 A 
HETATM   16  C   UNL     1      29.303  42.977  53.263  1.00  0.00     0.002 A 
HETATM   17  C   UNL     1      28.090  43.661  53.267  1.00  0.00     0.010 A 
ENDBRANCH   7   8
ENDBRANCH   1   7
BRANCH   3  18
HETATM   18  C   UNL     1      23.584  44.773  50.398  1.00  0.00     0.254 C 
HETATM   19  N   UNL     1      22.891  45.327  49.358  1.00  0.00    -0.336 N 
HETATM   20  H   UNL     1      23.077  46.236  48.965  1.00  0.00     0.164 HD
HETATM   21  O   UNL     1      23.412  43.625  50.793  1.00  0.00    -0.268 OA
BRANCH  19  22
HETATM   22  C   UNL     1      21.910  44.582  48.643  1.00  0.00     0.290 C 
BRANCH  22  23
HETATM   23  O   UNL     1      20.760  44.654  49.450  1.00  0.00    -0.382 OA
HETATM   24  H   UNL     1      20.033  44.930  48.865  1.00  0.00     0.211 HD
ENDBRANCH  22  23
ENDBRANCH  19  22
ENDBRANCH   3  18
TORSDOF 5
ENDMDL
MODEL 8
REMARK VINA RESULT:      -8.5      4.593      6.013
REMARK  5 active torsions:
REMARK  status: ('A' for Active; 'I' for Inactive)
REMARK    1  A    between atoms: C_5  and  C_6 
REMARK    2  A    between atoms: C_6  and  N_7 
REMARK    3  A    between atoms: C_9  and  C_10 
REMARK       I    between atoms: C_10  and  N_11 
REMARK    4  A    between atoms: N_11  and  C_12 
REMARK    5  A    between atoms: C_12  and  O_13 
ROOT
HETATM    1  N   UNL     1      27.208  42.388  52.448  1.00  0.00    -0.361 N 
HETATM    2  C   UNL     1      27.776  41.242  51.998  1.00  0.00     0.107 A 
HETATM    3  C   UNL     1      27.960  41.020  50.632  1.00  0.00     0.047 A 
HETATM    4  C   UNL     1      27.526  41.989  49.728  1.00  0.00     0.020 A 
HETATM    5  C   UNL     1      26.941  43.159  50.209  1.00  0.00     0.018 A 
HETATM    6  C   UNL     1      26.800  43.345  51.582  1.00  0.00     0.090 A 
ENDROOT
BRANCH   1   7
HETATM    7  C   UNL     1      27.084  42.615  53.911  1.00  0.00     0.167 C 
BRANCH   7   8
HETATM    8  C   UNL     1      27.502  43.992  54.378  1.00  0.00    -0.029 A 
HETATM    9  C   UNL     1      28.786  44.158  54.987  1.00  0.00    -0.018 A 
HETATM   10  C   UNL     1      29.186  45.454  55.404  1.00  0.00    -0.025 A 
HETATM   11  C   UNL     1      29.701  43.098  55.210  1.00  0.00     0.013 A 
HETATM   12  C   UNL     1      30.438  45.650  56.008  1.00  0.00     0.012 A 
HETATM   13  C   UNL     1      28.330  46.545  55.216  1.00  0.00     0.012 A 
HETATM   14  C   UNL     1      31.311  44.585  56.214  1.00  0.00     0.001 A 
HETATM   15  C   UNL     1      30.943  43.309  55.816  1.00  0.00     0.001 A 
HETATM   16  C   UNL     1      27.081  46.378  54.632  1.00  0.00     0.002 A 
HETATM   17  C   UNL     1      26.667  45.115  54.219  1.00  0.00     0.010 A 
ENDBRANCH   7   8
ENDBRANCH   1   7
BRANCH   3  18
HETATM   18  C   UNL     1      28.611  39.745  50.247  1.00  0.00     0.254 C 
HETATM   19  N   UNL     1      29.309  39.061  51.203  1.00  0.00    -0.336 N 
HETATM   20  H   UNL     1      29.362  39.326  52.174  1.00  0.00     0.164 HD
HETATM   21  O   UNL     1      28.470  39.349  49.095  1.00  0.00    -0.268 OA
BRANCH  19  22
HETATM   22  C   UNL     1      29.923  37.808  50.915  1.00  0.00     0.290 C 
BRANCH  22  23
HETATM   23  O   UNL     1      28.846  36.943  50.658  1.00  0.00    -0.382 OA
HETATM   24  H   UNL     1      28.753  36.379  51.446  1.00  0.00     0.211 HD
ENDBRANCH  22  23
ENDBRANCH  19  22
ENDBRANCH   3  18
TORSDOF 5
ENDMDL
MODEL 9
REMARK VINA RESULT:      -8.4      4.937      6.426
REMARK  5 active torsions:
REMARK  status: ('A' for Active; 'I' for Inactive)
REMARK    1  A    between atoms: C_5  and  C_6 
REMARK    2  A    between atoms: C_6  and  N_7 
REMARK    3  A    between atoms: C_9  and  C_10 
REMARK       I    between atoms: C_10  and  N_11 
REMARK    4  A    between atoms: N_11  and  C_12 
REMARK    5  A    between atoms: C_12  and  O_13 
ROOT
HETATM    1  N   UNL     1      26.871  42.593  50.140  1.00  0.00    -0.361 N 
HETATM    2  C   UNL     1      27.645  41.481  50.208  1.00  0.00     0.107 A 
HETATM    3  C   UNL     1      27.149  40.237  49.813  1.00  0.00     0.047 A 
HETATM    4  C   UNL     1      25.831  40.148  49.368  1.00  0.00     0.020 A 
HETATM    5  C   UNL     1      25.051  41.301  49.308  1.00  0.00     0.018 A 
HETATM    6  C   UNL     1      25.596  42.523  49.690  1.00  0.00     0.090 A 
ENDROOT
BRANCH   1   7
HETATM    7  C   UNL     1      27.452  43.909  50.512  1.00  0.00     0.167 C 
BRANCH   7   8
HETATM    8  C   UNL     1      27.291  44.285  51.968  1.00  0.00    -0.029 A 
HETATM    9  C   UNL     1      28.325  43.936  52.894  1.00  0.00    -0.018 A 
HETATM   10  C   UNL     1      28.182  44.308  54.256  1.00  0.00    -0.025 A 
HETATM   11  C   UNL     1      29.501  43.228  52.539  1.00  0.00     0.013 A 
HETATM   12  C   UNL     1      29.177  43.978  55.190  1.00  0.00     0.012 A 
HETATM   13  C   UNL     1      27.045  45.007  54.675  1.00  0.00     0.012 A 
HETATM   14  C   UNL     1      30.318  43.280  54.807  1.00  0.00     0.001 A 
HETATM   15  C   UNL     1      30.481  42.904  53.482  1.00  0.00     0.001 A 
HETATM   16  C   UNL     1      26.039  45.336  53.775  1.00  0.00     0.002 A 
HETATM   17  C   UNL     1      26.157  44.978  52.435  1.00  0.00     0.010 A 
ENDBRANCH   7   8
ENDBRANCH   1   7
BRANCH   3  18
HETATM   18  C   UNL     1      28.082  39.089  49.907  1.00  0.00     0.254 C 
HETATM   19  N   UNL     1      29.083  39.144  50.837  1.00  0.00    -0.336 N 
HETATM   20  H   UNL     1      29.196  39.881  51.514  1.00  0.00     0.164 HD
HETATM   21  O   UNL     1      27.899  38.133  49.162  1.00  0.00    -0.268 OA
BRANCH  19  22
HETATM   22  C   UNL     1      29.989  38.058  51.012  1.00  0.00     0.290 C 
BRANCH  22  23
HETATM   23  O   UNL     1      30.900  38.190  49.949  1.00  0.00    -0.382 OA
HETATM   24  H   UNL     1      31.166  37.287  49.704  1.00  0.00     0.211 HD
ENDBRANCH  22  23
ENDBRANCH  19  22
ENDBRANCH   3  18
TORSDOF 5
ENDMDL
MODEL 10
REMARK VINA RESULT:      -8.4      2.338      3.546
REMARK  5 active torsions:
REMARK  status: ('A' for Active; 'I' for Inactive)
REMARK    1  A    between atoms: C_5  and  C_6 
REMARK    2  A    between atoms: C_6  and  N_7 
REMARK    3  A    between atoms: C_9  and  C_10 
REMARK       I    between atoms: C_10  and  N_11 
REMARK    4  A    between atoms: N_11  and  C_12 
REMARK    5  A    between atoms: C_12  and  O_13 
ROOT
HETATM    1  N   UNL     1      28.782  42.644  52.534  1.00  0.00    -0.361 N 
HETATM    2  C   UNL     1      28.229  43.628  51.782  1.00  0.00     0.107 A 
HETATM    3  C   UNL     1      27.216  43.345  50.863  1.00  0.00     0.047 A 
HETATM    4  C   UNL     1      26.796  42.024  50.710  1.00  0.00     0.020 A 
HETATM    5  C   UNL     1      27.378  41.027  51.490  1.00  0.00     0.018 A 
HETATM    6  C   UNL     1      28.368  41.362  52.410  1.00  0.00     0.090 A 
ENDROOT
BRANCH   1   7
HETATM    7  C   UNL     1      29.815  42.993  53.544  1.00  0.00     0.167 C 
BRANCH   7   8
HETATM    8  C   UNL     1      29.412  44.084  54.512  1.00  0.00    -0.029 A 
HETATM    9  C   UNL     1      30.141  44.230  55.735  1.00  0.00    -0.018 A 
HETATM   10  C   UNL     1      29.777  45.268  56.631  1.00  0.00    -0.025 A 
HETATM   11  C   UNL     1      31.219  43.394  56.120  1.00  0.00     0.013 A 
HETATM   12  C   UNL     1      30.470  45.437  57.840  1.00  0.00     0.012 A 
HETATM   13  C   UNL     1      28.720  46.128  56.314  1.00  0.00     0.012 A 
HETATM   14  C   UNL     1      31.522  44.595  58.188  1.00  0.00     0.001 A 
HETATM   15  C   UNL     1      31.897  43.574  57.330  1.00  0.00     0.001 A 
HETATM   16  C   UNL     1      28.009  45.977  55.131  1.00  0.00     0.002 A 
HETATM   17  C   UNL     1      28.347  44.964  54.238  1.00  0.00     0.010 A 
ENDBRANCH   7   8
ENDBRANCH   1   7
BRANCH   3  18
HETATM   18  C   UNL     1      26.665  44.494  50.107  1.00  0.00     0.254 C 
HETATM   19  N   UNL     1      25.316  44.711  50.153  1.00  0.00    -0.336 N 
HETATM   20  H   UNL     1      24.670  44.184  50.719  1.00  0.00     0.164 HD
HETATM   21  O   UNL     1      27.448  45.213  49.496  1.00  0.00    -0.268 OA
BRANCH  19  22
HETATM   22  C   UNL     1      24.723  45.821  49.486  1.00  0.00     0.290 C 
BRANCH  22  23
HETATM   23  O   UNL     1      24.217  46.623  50.525  1.00  0.00    -0.382 OA
HETATM   24  H   UNL     1      24.849  47.354  50.637  1.00  0.00     0.211 HD
ENDBRANCH  22  23
ENDBRANCH  19  22
ENDBRANCH   3  18
TORSDOF 5
ENDMDL
