MODEL 1
REMARK VINA RESULT:     -10.1      0.000      0.000
REMARK  3 active torsions:
REMARK  status: ('A' for Active; 'I' for Inactive)
REMARK    1  A    between atoms: C_3  and  C_4 
REMARK       I    between atoms: C_4  and  N_5 
REMARK    2  A    between atoms: N_5  and  C_6 
REMARK    3  A    between atoms: C_13  and  C_14 
REMARK       I    between atoms: C_14  and  N_15 
ROOT
HETATM    1  C   UNL     1      25.818  47.302  50.395  1.00  0.00     0.035 A 
HETATM    2  C   UNL     1      24.522  47.546  49.924  1.00  0.00     0.046 A 
HETATM    3  C   UNL     1      24.304  48.584  48.992  1.00  0.00     0.030 A 
HETATM    4  C   UNL     1      25.385  49.352  48.578  1.00  0.00     0.063 A 
HETATM    5  N   UNL     1      24.868  50.260  47.698  1.00  0.00    -0.277 N 
HETATM    6  H   UNL     1      25.370  50.986  47.198  1.00  0.00     0.189 HD
HETATM    7  N   UNL     1      23.547  50.143  47.487  1.00  0.00    -0.168 NA
HETATM    8  C   UNL     1      23.183  49.108  48.278  1.00  0.00     0.156 A 
HETATM    9  C   UNL     1      26.688  49.141  49.033  1.00  0.00     0.034 A 
HETATM   10  C   UNL     1      26.881  48.094  49.943  1.00  0.00     0.032 A 
ENDROOT
BRANCH   1  11
HETATM   11  N   UNL     1      26.136  46.260  51.287  1.00  0.00    -0.325 N 
HETATM   12  C   UNL     1      26.797  45.077  51.012  1.00  0.00     0.252 C 
HETATM   13  O   UNL     1      27.136  44.668  49.906  1.00  0.00    -0.270 OA
HETATM   14  H   UNL     1      25.822  46.357  52.248  1.00  0.00     0.169 HD
BRANCH  12  15
HETATM   15  C   UNL     1      27.169  44.297  52.279  1.00  0.00     0.229 C 
HETATM   16  C   UNL     1      28.412  43.432  51.992  1.00  0.00     0.056 C 
HETATM   17  C   UNL     1      28.056  42.003  51.612  1.00  0.00     0.018 C 
HETATM   18  C   UNL     1      29.111  43.580  53.294  1.00  0.00    -0.018 A 
HETATM   19  C   UNL     1      28.530  44.615  54.011  1.00  0.00     0.076 A 
HETATM   20  C   UNL     1      30.215  42.908  53.792  1.00  0.00     0.010 A 
HETATM   21  O   UNL     1      27.468  45.202  53.377  1.00  0.00    -0.335 OA
HETATM   22  C   UNL     1      29.016  45.017  55.238  1.00  0.00     0.037 A 
HETATM   23  C   UNL     1      30.120  44.340  55.758  1.00  0.00     0.003 A 
HETATM   24  C   UNL     1      30.717  43.292  55.039  1.00  0.00     0.001 A 
ENDBRANCH  12  15
ENDBRANCH   1  11
BRANCH   8  25
HETATM   25  C   UNL     1      21.791  48.637  48.326  1.00  0.00     0.270 C 
HETATM   26  N   UNL     1      21.211  48.734  49.561  1.00  0.00    -0.365 N 
HETATM   27  H   UNL     1      21.755  49.120  50.323  1.00  0.00     0.159 HD
HETATM   28  H   UNL     1      20.251  48.453  49.685  1.00  0.00     0.159 HD
HETATM   29  O   UNL     1      21.168  48.199  47.366  1.00  0.00    -0.266 OA
ENDBRANCH   8  25
TORSDOF 3
ENDMDL
MODEL 2
REMARK VINA RESULT:      -9.8      5.658      7.926
REMARK  3 active torsions:
REMARK  status: ('A' for Active; 'I' for Inactive)
REMARK    1  A    between atoms: C_3  and  C_4 
REMARK       I    between atoms: C_4  and  N_5 
REMARK    2  A    between atoms: N_5  and  C_6 
REMARK    3  A    between atoms: C_13  and  C_14 
REMARK       I    between atoms: C_14  and  N_15 
ROOT
HETATM    1  C   UNL     1      27.852  41.953  51.473  1.00  0.00     0.035 A 
HETATM    2  C   UNL     1      28.425  40.698  51.229  1.00  0.00     0.046 A 
HETATM    3  C   UNL     1      27.766  39.784  50.379  1.00  0.00     0.030 A 
HETATM    4  C   UNL     1      26.550  40.150  49.816  1.00  0.00     0.063 A 
HETATM    5  N   UNL     1      26.163  39.078  49.062  1.00  0.00    -0.277 N 
HETATM    6  H   UNL     1      25.317  38.990  48.509  1.00  0.00     0.189 HD
HETATM    7  N   UNL     1      27.028  38.051  49.069  1.00  0.00    -0.168 NA
HETATM    8  C   UNL     1      28.027  38.474  49.876  1.00  0.00     0.156 A 
HETATM    9  C   UNL     1      25.946  41.389  50.043  1.00  0.00     0.034 A 
HETATM   10  C   UNL     1      26.629  42.284  50.876  1.00  0.00     0.032 A 
ENDROOT
BRANCH   1  11
HETATM   11  N   UNL     1      28.461  42.942  52.267  1.00  0.00    -0.325 N 
HETATM   12  C   UNL     1      27.998  43.489  53.450  1.00  0.00     0.252 C 
HETATM   13  O   UNL     1      26.906  43.284  53.972  1.00  0.00    -0.270 OA
HETATM   14  H   UNL     1      29.335  43.338  51.931  1.00  0.00     0.169 HD
BRANCH  12  15
HETATM   15  C   UNL     1      29.044  44.365  54.149  1.00  0.00     0.229 C 
HETATM   16  C   UNL     1      28.345  45.231  55.216  1.00  0.00     0.056 C 
HETATM   17  C   UNL     1      27.998  46.622  54.708  1.00  0.00     0.018 C 
HETATM   18  C   UNL     1      29.387  45.191  56.274  1.00  0.00    -0.018 A 
HETATM   19  C   UNL     1      30.309  44.200  55.973  1.00  0.00     0.076 A 
HETATM   20  C   UNL     1      29.490  45.918  57.448  1.00  0.00     0.010 A 
HETATM   21  O   UNL     1      30.059  43.549  54.794  1.00  0.00    -0.335 OA
HETATM   22  C   UNL     1      31.360  43.898  56.815  1.00  0.00     0.037 A 
HETATM   23  C   UNL     1      31.483  44.632  57.996  1.00  0.00     0.003 A 
HETATM   24  C   UNL     1      30.553  45.636  58.311  1.00  0.00     0.001 A 
ENDBRANCH  12  15
ENDBRANCH   1  11
BRANCH   8  25
HETATM   25  C   UNL     1      29.203  37.632  50.138  1.00  0.00     0.270 C 
HETATM   26  N   UNL     1      28.947  36.545  50.929  1.00  0.00    -0.365 N 
HETATM   27  H   UNL     1      28.000  36.396  51.255  1.00  0.00     0.159 HD
HETATM   28  H   UNL     1      29.690  35.900  51.146  1.00  0.00     0.159 HD
HETATM   29  O   UNL     1      30.327  37.845  49.698  1.00  0.00    -0.266 OA
ENDBRANCH   8  25
TORSDOF 3
ENDMDL
MODEL 3
REMARK VINA RESULT:      -9.6      1.871      2.687
REMARK  3 active torsions:
REMARK  status: ('A' for Active; 'I' for Inactive)
REMARK    1  A    between atoms: C_3  and  C_4 
REMARK       I    between atoms: C_4  and  N_5 
REMARK    2  A    between atoms: N_5  and  C_6 
REMARK    3  A    between atoms: C_13  and  C_14 
REMARK       I    between atoms: C_14  and  N_15 
ROOT
HETATM    1  C   UNL     1      24.494  45.091  50.881  1.00  0.00     0.035 A 
HETATM    2  C   UNL     1      24.527  46.422  50.446  1.00  0.00     0.046 A 
HETATM    3  C   UNL     1      23.690  46.829  49.384  1.00  0.00     0.030 A 
HETATM    4  C   UNL     1      22.862  45.888  48.785  1.00  0.00     0.063 A 
HETATM    5  N   UNL     1      22.191  46.567  47.808  1.00  0.00    -0.277 N 
HETATM    6  H   UNL     1      21.501  46.195  47.164  1.00  0.00     0.189 HD
HETATM    7  N   UNL     1      22.494  47.873  47.728  1.00  0.00    -0.168 NA
HETATM    8  C   UNL     1      23.418  48.051  48.699  1.00  0.00     0.156 A 
HETATM    9  C   UNL     1      22.808  44.552  49.188  1.00  0.00     0.034 A 
HETATM   10  C   UNL     1      23.636  44.178  50.254  1.00  0.00     0.032 A 
ENDROOT
BRANCH   1  11
HETATM   11  N   UNL     1      25.258  44.609  51.961  1.00  0.00    -0.325 N 
HETATM   12  C   UNL     1      26.600  44.277  51.973  1.00  0.00     0.252 C 
HETATM   13  O   UNL     1      27.353  44.241  51.004  1.00  0.00    -0.270 OA
HETATM   14  H   UNL     1      24.774  44.449  52.840  1.00  0.00     0.169 HD
BRANCH  12  15
HETATM   15  C   UNL     1      27.134  44.016  53.386  1.00  0.00     0.229 C 
HETATM   16  C   UNL     1      28.387  43.123  53.294  1.00  0.00     0.056 C 
HETATM   17  C   UNL     1      28.072  41.648  53.496  1.00  0.00     0.018 C 
HETATM   18  C   UNL     1      29.201  43.743  54.372  1.00  0.00    -0.018 A 
HETATM   19  C   UNL     1      28.639  44.959  54.727  1.00  0.00     0.076 A 
HETATM   20  C   UNL     1      30.382  43.313  54.953  1.00  0.00     0.010 A 
HETATM   21  O   UNL     1      27.490  45.262  54.045  1.00  0.00    -0.335 OA
HETATM   22  C   UNL     1      29.220  45.786  55.667  1.00  0.00     0.037 A 
HETATM   23  C   UNL     1      30.404  45.360  56.271  1.00  0.00     0.003 A 
HETATM   24  C   UNL     1      30.982  44.130  55.916  1.00  0.00     0.001 A 
ENDBRANCH  12  15
ENDBRANCH   1  11
BRANCH   8  25
HETATM   25  C   UNL     1      24.007  49.373  48.957  1.00  0.00     0.270 C 
HETATM   26  N   UNL     1      25.309  49.493  48.555  1.00  0.00    -0.365 N 
HETATM   27  H   UNL     1      25.755  48.698  48.113  1.00  0.00     0.159 HD
HETATM   28  H   UNL     1      25.789  50.371  48.675  1.00  0.00     0.159 HD
HETATM   29  O   UNL     1      23.414  50.313  49.476  1.00  0.00    -0.266 OA
ENDBRANCH   8  25
TORSDOF 3
ENDMDL
MODEL 4
REMARK VINA RESULT:      -9.0      3.535      4.251
REMARK  3 active torsions:
REMARK  status: ('A' for Active; 'I' for Inactive)
REMARK    1  A    between atoms: C_3  and  C_4 
REMARK       I    between atoms: C_4  and  N_5 
REMARK    2  A    between atoms: N_5  and  C_6 
REMARK    3  A    between atoms: C_13  and  C_14 
REMARK       I    between atoms: C_14  and  N_15 
ROOT
HETATM    1  C   UNL     1      24.868  42.576  50.487  1.00  0.00     0.035 A 
HETATM    2  C   UNL     1      23.920  43.547  50.141  1.00  0.00     0.046 A 
HETATM    3  C   UNL     1      23.105  43.351  49.005  1.00  0.00     0.030 A 
HETATM    4  C   UNL     1      23.278  42.201  48.246  1.00  0.00     0.063 A 
HETATM    5  N   UNL     1      22.369  42.296  47.231  1.00  0.00    -0.277 N 
HETATM    6  H   UNL     1      22.215  41.631  46.480  1.00  0.00     0.189 HD
HETATM    7  N   UNL     1      21.604  43.399  47.270  1.00  0.00    -0.168 NA
HETATM    8  C   UNL     1      22.045  44.061  48.364  1.00  0.00     0.156 A 
HETATM    9  C   UNL     1      24.219  41.216  48.557  1.00  0.00     0.034 A 
HETATM   10  C   UNL     1      25.003  41.426  49.699  1.00  0.00     0.032 A 
ENDROOT
BRANCH   1  11
HETATM   11  N   UNL     1      25.689  42.666  51.628  1.00  0.00    -0.325 N 
HETATM   12  C   UNL     1      26.701  43.574  51.879  1.00  0.00     0.252 C 
HETATM   13  O   UNL     1      27.144  44.410  51.097  1.00  0.00    -0.270 OA
HETATM   14  H   UNL     1      25.557  41.967  52.353  1.00  0.00     0.169 HD
BRANCH  12  15
HETATM   15  C   UNL     1      27.211  43.511  53.323  1.00  0.00     0.229 C 
HETATM   16  C   UNL     1      28.546  42.742  53.353  1.00  0.00     0.056 C 
HETATM   17  C   UNL     1      28.368  41.271  53.698  1.00  0.00     0.018 C 
HETATM   18  C   UNL     1      29.260  43.545  54.380  1.00  0.00    -0.018 A 
HETATM   19  C   UNL     1      28.572  44.729  54.595  1.00  0.00     0.076 A 
HETATM   20  C   UNL     1      30.457  43.296  55.030  1.00  0.00     0.010 A 
HETATM   21  O   UNL     1      27.422  44.846  53.859  1.00  0.00    -0.335 OA
HETATM   22  C   UNL     1      29.038  45.700  55.458  1.00  0.00     0.037 A 
HETATM   23  C   UNL     1      30.237  45.456  56.130  1.00  0.00     0.003 A 
HETATM   24  C   UNL     1      30.943  44.260  55.917  1.00  0.00     0.001 A 
ENDBRANCH  12  15
ENDBRANCH   1  11
BRANCH   8  25
HETATM   25  C   UNL     1      21.443  45.336  48.777  1.00  0.00     0.270 C 
HETATM   26  N   UNL     1      20.184  45.216  49.299  1.00  0.00    -0.365 N 
HETATM   27  H   UNL     1      19.776  44.292  49.374  1.00  0.00     0.159 HD
HETATM   28  H   UNL     1      19.699  46.036  49.627  1.00  0.00     0.159 HD
HETATM   29  O   UNL     1      21.990  46.430  48.687  1.00  0.00    -0.266 OA
ENDBRANCH   8  25
TORSDOF 3
ENDMDL
MODEL 5
REMARK VINA RESULT:      -9.0      4.005      5.560
REMARK  3 active torsions:
REMARK  status: ('A' for Active; 'I' for Inactive)
REMARK    1  A    between atoms: C_3  and  C_4 
REMARK       I    between atoms: C_4  and  N_5 
REMARK    2  A    between atoms: N_5  and  C_6 
REMARK    3  A    between atoms: C_13  and  C_14 
REMARK       I    between atoms: C_14  and  N_15 
ROOT
HETATM    1  C   UNL     1      27.295  42.794  51.362  1.00  0.00     0.035 A 
HETATM    2  C   UNL     1      26.330  43.290  50.476  1.00  0.00     0.046 A 
HETATM    3  C   UNL     1      25.576  42.389  49.692  1.00  0.00     0.030 A 
HETATM    4  C   UNL     1      25.826  41.028  49.808  1.00  0.00     0.063 A 
HETATM    5  N   UNL     1      24.962  40.426  48.938  1.00  0.00    -0.277 N 
HETATM    6  H   UNL     1      24.866  39.433  48.755  1.00  0.00     0.189 HD
HETATM    7  N   UNL     1      24.157  41.273  48.276  1.00  0.00    -0.168 NA
HETATM    8  C   UNL     1      24.523  42.492  48.734  1.00  0.00     0.156 A 
HETATM    9  C   UNL     1      26.785  40.500  50.675  1.00  0.00     0.034 A 
HETATM   10  C   UNL     1      27.507  41.412  51.454  1.00  0.00     0.032 A 
ENDROOT
BRANCH   1  11
HETATM   11  N   UNL     1      28.058  43.613  52.216  1.00  0.00    -0.325 N 
HETATM   12  C   UNL     1      27.734  44.055  53.485  1.00  0.00     0.252 C 
HETATM   13  O   UNL     1      26.661  43.900  54.062  1.00  0.00    -0.270 OA
HETATM   14  H   UNL     1      28.946  43.957  51.861  1.00  0.00     0.169 HD
BRANCH  12  15
HETATM   15  C   UNL     1      28.911  44.731  54.197  1.00  0.00     0.229 C 
HETATM   16  C   UNL     1      28.376  45.563  55.379  1.00  0.00     0.056 C 
HETATM   17  C   UNL     1      28.177  47.028  55.022  1.00  0.00     0.018 C 
HETATM   18  C   UNL     1      29.455  45.298  56.365  1.00  0.00    -0.018 A 
HETATM   19  C   UNL     1      30.233  44.241  55.920  1.00  0.00     0.076 A 
HETATM   20  C   UNL     1      29.703  45.889  57.593  1.00  0.00     0.010 A 
HETATM   21  O   UNL     1      29.849  43.741  54.703  1.00  0.00    -0.335 OA
HETATM   22  C   UNL     1      31.279  43.737  56.666  1.00  0.00     0.037 A 
HETATM   23  C   UNL     1      31.548  44.331  57.900  1.00  0.00     0.003 A 
HETATM   24  C   UNL     1      30.764  45.402  58.361  1.00  0.00     0.001 A 
ENDBRANCH  12  15
ENDBRANCH   1  11
BRANCH   8  25
HETATM   25  C   UNL     1      23.857  43.715  48.263  1.00  0.00     0.270 C 
HETATM   26  N   UNL     1      23.776  43.817  46.901  1.00  0.00    -0.365 N 
HETATM   27  H   UNL     1      24.155  43.066  46.335  1.00  0.00     0.159 HD
HETATM   28  H   UNL     1      23.318  44.613  46.486  1.00  0.00     0.159 HD
HETATM   29  O   UNL     1      23.394  44.585  48.992  1.00  0.00    -0.266 OA
ENDBRANCH   8  25
TORSDOF 3
ENDMDL
MODEL 6
REMARK VINA RESULT:      -8.8      3.773      9.929
REMARK  3 active torsions:
REMARK  status: ('A' for Active; 'I' for Inactive)
REMARK    1  A    between atoms: C_3  and  C_4 
REMARK       I    between atoms: C_4  and  N_5 
REMARK    2  A    between atoms: N_5  and  C_6 
REMARK    3  A    between atoms: C_13  and  C_14 
REMARK       I    between atoms: C_14  and  N_15 
ROOT
HETATM    1  C   UNL     1      22.488  49.454  48.992  1.00  0.00     0.035 A 
HETATM    2  C   UNL     1      23.450  48.580  49.515  1.00  0.00     0.046 A 
HETATM    3  C   UNL     1      24.802  48.723  49.132  1.00  0.00     0.030 A 
HETATM    4  C   UNL     1      25.141  49.723  48.229  1.00  0.00     0.063 A 
HETATM    5  N   UNL     1      26.491  49.610  48.055  1.00  0.00    -0.277 N 
HETATM    6  H   UNL     1      27.083  50.177  47.457  1.00  0.00     0.189 HD
HETATM    7  N   UNL     1      27.067  48.635  48.778  1.00  0.00    -0.168 NA
HETATM    8  C   UNL     1      26.035  48.080  49.453  1.00  0.00     0.156 A 
HETATM    9  C   UNL     1      24.207  50.606  47.683  1.00  0.00     0.034 A 
HETATM   10  C   UNL     1      22.876  50.454  48.091  1.00  0.00     0.032 A 
ENDROOT
BRANCH   1  11
HETATM   11  N   UNL     1      21.128  49.415  49.353  1.00  0.00    -0.325 N 
HETATM   12  C   UNL     1      20.445  50.277  50.192  1.00  0.00     0.252 C 
HETATM   13  O   UNL     1      20.932  51.180  50.866  1.00  0.00    -0.270 OA
HETATM   14  H   UNL     1      20.570  48.650  48.987  1.00  0.00     0.169 HD
BRANCH  12  15
HETATM   15  C   UNL     1      18.928  50.061  50.157  1.00  0.00     0.229 C 
HETATM   16  C   UNL     1      18.300  51.050  49.156  1.00  0.00     0.056 C 
HETATM   17  C   UNL     1      17.775  52.310  49.827  1.00  0.00     0.018 C 
HETATM   18  C   UNL     1      17.256  50.168  48.573  1.00  0.00    -0.018 A 
HETATM   19  C   UNL     1      17.511  48.855  48.936  1.00  0.00     0.076 A 
HETATM   20  C   UNL     1      16.200  50.476  47.732  1.00  0.00     0.010 A 
HETATM   21  O   UNL     1      18.606  48.704  49.745  1.00  0.00    -0.335 OA
HETATM   22  C   UNL     1      16.733  47.807  48.486  1.00  0.00     0.037 A 
HETATM   23  C   UNL     1      15.657  48.105  47.648  1.00  0.00     0.003 A 
HETATM   24  C   UNL     1      15.392  49.432  47.273  1.00  0.00     0.001 A 
ENDBRANCH  12  15
ENDBRANCH   1  11
BRANCH   8  25
HETATM   25  C   UNL     1      26.248  46.967  50.389  1.00  0.00     0.270 C 
HETATM   26  N   UNL     1      26.599  45.790  49.786  1.00  0.00    -0.365 N 
HETATM   27  H   UNL     1      26.696  45.771  48.778  1.00  0.00     0.159 HD
HETATM   28  H   UNL     1      26.784  44.976  50.351  1.00  0.00     0.159 HD
HETATM   29  O   UNL     1      26.141  47.048  51.608  1.00  0.00    -0.266 OA
ENDBRANCH   8  25
TORSDOF 3
ENDMDL
MODEL 7
REMARK VINA RESULT:      -8.5      3.300      8.535
REMARK  3 active torsions:
REMARK  status: ('A' for Active; 'I' for Inactive)
REMARK    1  A    between atoms: C_3  and  C_4 
REMARK       I    between atoms: C_4  and  N_5 
REMARK    2  A    between atoms: N_5  and  C_6 
REMARK    3  A    between atoms: C_13  and  C_14 
REMARK       I    between atoms: C_14  and  N_15 
ROOT
HETATM    1  C   UNL     1      28.690  44.056  52.858  1.00  0.00     0.035 A 
HETATM    2  C   UNL     1      28.741  44.752  54.074  1.00  0.00     0.046 A 
HETATM    3  C   UNL     1      29.614  44.311  55.092  1.00  0.00     0.030 A 
HETATM    4  C   UNL     1      30.392  43.183  54.866  1.00  0.00     0.063 A 
HETATM    5  N   UNL     1      31.114  43.007  56.012  1.00  0.00    -0.277 N 
HETATM    6  H   UNL     1      31.788  42.274  56.207  1.00  0.00     0.189 HD
HETATM    7  N   UNL     1      30.889  43.931  56.961  1.00  0.00    -0.168 NA
HETATM    8  C   UNL     1      29.966  44.748  56.405  1.00  0.00     0.156 A 
HETATM    9  C   UNL     1      30.361  42.462  53.671  1.00  0.00     0.034 A 
HETATM   10  C   UNL     1      29.500  42.929  52.670  1.00  0.00     0.032 A 
ENDROOT
BRANCH   1  11
HETATM   11  N   UNL     1      27.886  44.451  51.772  1.00  0.00    -0.325 N 
HETATM   12  C   UNL     1      26.505  44.521  51.716  1.00  0.00     0.252 C 
HETATM   13  O   UNL     1      25.719  44.145  52.580  1.00  0.00    -0.270 OA
HETATM   14  H   UNL     1      28.357  44.687  50.904  1.00  0.00     0.169 HD
BRANCH  12  15
HETATM   15  C   UNL     1      25.998  45.219  50.450  1.00  0.00     0.229 C 
HETATM   16  C   UNL     1      24.524  45.622  50.652  1.00  0.00     0.056 C 
HETATM   17  C   UNL     1      23.553  44.599  50.082  1.00  0.00     0.018 C 
HETATM   18  C   UNL     1      24.537  46.932  49.952  1.00  0.00    -0.018 A 
HETATM   19  C   UNL     1      25.849  47.320  49.730  1.00  0.00     0.076 A 
HETATM   20  C   UNL     1      23.486  47.759  49.594  1.00  0.00     0.010 A 
HETATM   21  O   UNL     1      26.778  46.412  50.165  1.00  0.00    -0.335 OA
HETATM   22  C   UNL     1      26.166  48.530  49.147  1.00  0.00     0.037 A 
HETATM   23  C   UNL     1      25.115  49.368  48.770  1.00  0.00     0.003 A 
HETATM   24  C   UNL     1      23.783  48.986  48.992  1.00  0.00     0.001 A 
ENDBRANCH  12  15
ENDBRANCH   1  11
BRANCH   8  25
HETATM   25  C   UNL     1      29.454  45.921  57.126  1.00  0.00     0.270 C 
HETATM   26  N   UNL     1      30.244  46.325  58.168  1.00  0.00    -0.365 N 
HETATM   27  H   UNL     1      31.099  45.815  58.354  1.00  0.00     0.159 HD
HETATM   28  H   UNL     1      29.982  47.134  58.708  1.00  0.00     0.159 HD
HETATM   29  O   UNL     1      28.421  46.519  56.846  1.00  0.00    -0.266 OA
ENDBRANCH   8  25
TORSDOF 3
ENDMDL
MODEL 8
REMARK VINA RESULT:      -8.4      2.399      3.539
REMARK  3 active torsions:
REMARK  status: ('A' for Active; 'I' for Inactive)
REMARK    1  A    between atoms: C_3  and  C_4 
REMARK       I    between atoms: C_4  and  N_5 
REMARK    2  A    between atoms: N_5  and  C_6 
REMARK    3  A    between atoms: C_13  and  C_14 
REMARK       I    between atoms: C_14  and  N_15 
ROOT
HETATM    1  C   UNL     1      25.945  45.527  52.001  1.00  0.00     0.035 A 
HETATM    2  C   UNL     1      26.295  46.613  51.188  1.00  0.00     0.046 A 
HETATM    3  C   UNL     1      25.411  47.036  50.171  1.00  0.00     0.030 A 
HETATM    4  C   UNL     1      24.218  46.348  49.992  1.00  0.00     0.063 A 
HETATM    5  N   UNL     1      23.591  46.975  48.953  1.00  0.00    -0.277 N 
HETATM    6  H   UNL     1      22.694  46.739  48.544  1.00  0.00     0.189 HD
HETATM    7  N   UNL     1      24.263  48.023  48.448  1.00  0.00    -0.168 NA
HETATM    8  C   UNL     1      25.390  48.075  49.193  1.00  0.00     0.156 A 
HETATM    9  C   UNL     1      23.840  45.258  50.779  1.00  0.00     0.034 A 
HETATM   10  C   UNL     1      24.726  44.869  51.792  1.00  0.00     0.032 A 
ENDROOT
BRANCH   1  11
HETATM   11  N   UNL     1      26.741  45.068  53.067  1.00  0.00    -0.325 N 
HETATM   12  C   UNL     1      27.380  45.819  54.038  1.00  0.00     0.252 C 
HETATM   13  O   UNL     1      27.456  47.043  54.082  1.00  0.00    -0.270 OA
HETATM   14  H   UNL     1      26.904  44.068  53.130  1.00  0.00     0.169 HD
BRANCH  12  15
HETATM   15  C   UNL     1      27.956  44.960  55.169  1.00  0.00     0.229 C 
HETATM   16  C   UNL     1      29.152  44.151  54.629  1.00  0.00     0.056 C 
HETATM   17  C   UNL     1      28.763  42.745  54.201  1.00  0.00     0.018 C 
HETATM   18  C   UNL     1      30.043  44.223  55.816  1.00  0.00    -0.018 A 
HETATM   19  C   UNL     1      29.565  45.187  56.690  1.00  0.00     0.076 A 
HETATM   20  C   UNL     1      31.221  43.547  56.085  1.00  0.00     0.010 A 
HETATM   21  O   UNL     1      28.408  45.790  56.273  1.00  0.00    -0.335 OA
HETATM   22  C   UNL     1      30.230  45.512  57.855  1.00  0.00     0.037 A 
HETATM   23  C   UNL     1      31.412  44.829  58.145  1.00  0.00     0.003 A 
HETATM   24  C   UNL     1      31.905  43.852  57.265  1.00  0.00     0.001 A 
ENDBRANCH  12  15
ENDBRANCH   1  11
BRANCH   8  25
HETATM   25  C   UNL     1      26.405  49.114  48.967  1.00  0.00     0.270 C 
HETATM   26  N   UNL     1      25.982  50.145  48.174  1.00  0.00    -0.365 N 
HETATM   27  H   UNL     1      25.033  50.128  47.822  1.00  0.00     0.159 HD
HETATM   28  H   UNL     1      26.605  50.913  47.980  1.00  0.00     0.159 HD
HETATM   29  O   UNL     1      27.538  49.099  49.437  1.00  0.00    -0.266 OA
ENDBRANCH   8  25
TORSDOF 3
ENDMDL
MODEL 9
REMARK VINA RESULT:      -8.4      2.198      2.644
REMARK  3 active torsions:
REMARK  status: ('A' for Active; 'I' for Inactive)
REMARK    1  A    between atoms: C_3  and  C_4 
REMARK       I    between atoms: C_4  and  N_5 
REMARK    2  A    between atoms: N_5  and  C_6 
REMARK    3  A    between atoms: C_13  and  C_14 
REMARK       I    between atoms: C_14  and  N_15 
ROOT
HETATM    1  C   UNL     1      25.437  46.369  51.229  1.00  0.00     0.035 A 
HETATM    2  C   UNL     1      24.346  45.725  50.631  1.00  0.00     0.046 A 
HETATM    3  C   UNL     1      23.686  46.340  49.544  1.00  0.00     0.030 A 
HETATM    4  C   UNL     1      24.128  47.581  49.106  1.00  0.00     0.063 A 
HETATM    5  N   UNL     1      23.305  47.913  48.067  1.00  0.00    -0.277 N 
HETATM    6  H   UNL     1      23.333  48.758  47.507  1.00  0.00     0.189 HD
HETATM    7  N   UNL     1      22.375  46.988  47.777  1.00  0.00    -0.168 NA
HETATM    8  C   UNL     1      22.600  46.007  48.680  1.00  0.00     0.156 A 
HETATM    9  C   UNL     1      25.207  48.254  49.684  1.00  0.00     0.034 A 
HETATM   10  C   UNL     1      25.856  47.616  50.749  1.00  0.00     0.032 A 
ENDROOT
BRANCH   1  11
HETATM   11  N   UNL     1      26.183  45.810  52.284  1.00  0.00    -0.325 N 
HETATM   12  C   UNL     1      26.321  46.287  53.575  1.00  0.00     0.252 C 
HETATM   13  O   UNL     1      25.899  47.355  54.009  1.00  0.00    -0.270 OA
HETATM   14  H   UNL     1      26.718  44.970  52.084  1.00  0.00     0.169 HD
BRANCH  12  15
HETATM   15  C   UNL     1      27.017  45.287  54.506  1.00  0.00     0.229 C 
HETATM   16  C   UNL     1      27.848  44.304  53.659  1.00  0.00     0.056 C 
HETATM   17  C   UNL     1      27.105  43.010  53.363  1.00  0.00     0.018 C 
HETATM   18  C   UNL     1      29.028  44.160  54.551  1.00  0.00    -0.018 A 
HETATM   19  C   UNL     1      28.994  45.152  55.519  1.00  0.00     0.076 A 
HETATM   20  C   UNL     1      30.089  43.272  54.486  1.00  0.00     0.010 A 
HETATM   21  O   UNL     1      27.899  45.971  55.437  1.00  0.00    -0.335 OA
HETATM   22  C   UNL     1      30.000  45.298  56.452  1.00  0.00     0.037 A 
HETATM   23  C   UNL     1      31.070  44.402  56.406  1.00  0.00     0.003 A 
HETATM   24  C   UNL     1      31.114  43.395  55.428  1.00  0.00     0.001 A 
ENDBRANCH  12  15
ENDBRANCH   1  11
BRANCH   8  25
HETATM   25  C   UNL     1      21.790  44.781  48.689  1.00  0.00     0.270 C 
HETATM   26  N   UNL     1      22.455  43.669  48.252  1.00  0.00    -0.365 N 
HETATM   27  H   UNL     1      23.425  43.761  47.975  1.00  0.00     0.159 HD
HETATM   28  H   UNL     1      21.985  42.777  48.242  1.00  0.00     0.159 HD
HETATM   29  O   UNL     1      20.622  44.717  49.058  1.00  0.00    -0.266 OA
ENDBRANCH   8  25
TORSDOF 3
ENDMDL
MODEL 10
REMARK VINA RESULT:      -8.4      2.826      8.644
REMARK  3 active torsions:
REMARK  status: ('A' for Active; 'I' for Inactive)
REMARK    1  A    between atoms: C_3  and  C_4 
REMARK       I    between atoms: C_4  and  N_5 
REMARK    2  A    between atoms: N_5  and  C_6 
REMARK    3  A    between atoms: C_13  and  C_14 
REMARK       I    between atoms: C_14  and  N_15 
ROOT
HETATM    1  C   UNL     1      24.637  45.587  50.214  1.00  0.00     0.035 A 
HETATM    2  C   UNL     1      24.999  45.332  51.544  1.00  0.00     0.046 A 
HETATM    3  C   UNL     1      25.875  44.264  51.835  1.00  0.00     0.030 A 
HETATM    4  C   UNL     1      26.346  43.479  50.790  1.00  0.00     0.063 A 
HETATM    5  N   UNL     1      27.151  42.543  51.374  1.00  0.00    -0.277 N 
HETATM    6  H   UNL     1      27.664  41.799  50.912  1.00  0.00     0.189 HD
HETATM    7  N   UNL     1      27.263  42.659  52.707  1.00  0.00    -0.168 NA
HETATM    8  C   UNL     1      26.482  43.721  53.007  1.00  0.00     0.156 A 
HETATM    9  C   UNL     1      26.000  43.699  49.455  1.00  0.00     0.034 A 
HETATM   10  C   UNL     1      25.143  44.776  49.191  1.00  0.00     0.032 A 
ENDROOT
BRANCH   1  11
HETATM   11  N   UNL     1      23.809  46.657  49.828  1.00  0.00    -0.325 N 
HETATM   12  C   UNL     1      24.171  47.970  49.586  1.00  0.00     0.252 C 
HETATM   13  O   UNL     1      25.277  48.469  49.771  1.00  0.00    -0.270 OA
HETATM   14  H   UNL     1      22.814  46.469  49.741  1.00  0.00     0.169 HD
BRANCH  12  15
HETATM   15  C   UNL     1      23.040  48.791  48.956  1.00  0.00     0.229 C 
HETATM   16  C   UNL     1      21.787  47.904  48.822  1.00  0.00     0.056 C 
HETATM   17  C   UNL     1      21.657  47.276  47.443  1.00  0.00     0.018 C 
HETATM   18  C   UNL     1      20.746  48.911  49.154  1.00  0.00    -0.018 A 
HETATM   19  C   UNL     1      21.350  50.028  49.709  1.00  0.00     0.076 A 
HETATM   20  C   UNL     1      19.368  48.834  49.045  1.00  0.00     0.010 A 
HETATM   21  O   UNL     1      22.715  49.945  49.778  1.00  0.00    -0.335 OA
HETATM   22  C   UNL     1      20.617  51.103  50.168  1.00  0.00     0.037 A 
HETATM   23  C   UNL     1      19.227  51.045  50.052  1.00  0.00     0.003 A 
HETATM   24  C   UNL     1      18.606  49.916  49.493  1.00  0.00     0.001 A 
ENDBRANCH  12  15
ENDBRANCH   1  11
BRANCH   8  25
HETATM   25  C   UNL     1      26.343  44.198  54.391  1.00  0.00     0.270 C 
HETATM   26  N   UNL     1      25.628  43.360  55.201  1.00  0.00    -0.365 N 
HETATM   27  H   UNL     1      25.270  42.496  54.811  1.00  0.00     0.159 HD
HETATM   28  H   UNL     1      25.498  43.595  56.172  1.00  0.00     0.159 HD
HETATM   29  O   UNL     1      26.818  45.243  54.821  1.00  0.00    -0.266 OA
ENDBRANCH   8  25
TORSDOF 3
ENDMDL
