MODEL 1
REMARK VINA RESULT:     -10.4      0.000      0.000
REMARK  8 active torsions:
REMARK  status: ('A' for Active; 'I' for Inactive)
REMARK    1  A    between atoms: C_2  and  N_3 
REMARK    2  A    between atoms: N_3  and  N_4 
REMARK       I    between atoms: N_4  and  C_5 
REMARK    3  A    between atoms: C_5  and  C_6 
REMARK    4  A    between atoms: C_6  and  O_7 
REMARK    5  A    between atoms: O_7  and  C_8 
REMARK    6  A    between atoms: C_19  and  C_20 
REMARK       I    between atoms: C_20  and  N_21 
REMARK    7  A    between atoms: N_21  and  C_22 
REMARK    8  A    between atoms: C_25  and  C_26 
REMARK       I    between atoms: C_26  and  N_27 
ROOT
HETATM    1  C   UNL     1      25.786  49.529  48.723  1.00  0.00     0.070 C 
HETATM    2  C   UNL     1      25.417  48.287  49.509  1.00  0.00     0.027 C 
HETATM    3  C   UNL     1      24.135  47.914  49.705  1.00  0.00     0.100 C 
ENDROOT
BRANCH   2   4
HETATM    4  N   UNL     1      26.513  47.586  50.006  1.00  0.00    -0.302 N 
HETATM    5  H   UNL     1      27.263  48.209  50.335  1.00  0.00     0.186 HD
BRANCH   4   6
HETATM    6  N   UNL     1      26.994  46.409  49.427  1.00  0.00    -0.268 N 
HETATM    7  C   UNL     1      26.808  45.179  50.028  1.00  0.00     0.260 C 
HETATM    8  O   UNL     1      26.905  44.149  49.357  1.00  0.00    -0.269 OA
HETATM    9  H   UNL     1      27.043  46.406  48.411  1.00  0.00     0.190 HD
BRANCH   7  10
HETATM   10  C   UNL     1      26.595  45.146  51.541  1.00  0.00     0.280 C 
BRANCH  10  11
HETATM   11  O   UNL     1      26.715  43.822  52.054  1.00  0.00    -0.342 OA
BRANCH  11  12
HETATM   12  C   UNL     1      27.766  43.631  52.912  1.00  0.00     0.070 A 
HETATM   13  C   UNL     1      27.947  44.628  53.873  1.00  0.00     0.049 A 
HETATM   14  C   UNL     1      28.994  44.551  54.809  1.00  0.00    -0.023 A 
HETATM   15  C   UNL     1      29.884  43.455  54.761  1.00  0.00    -0.026 A 
HETATM   16  C   UNL     1      29.176  45.537  55.793  1.00  0.00     0.012 A 
HETATM   17  C   UNL     1      29.710  42.476  53.772  1.00  0.00     0.015 A 
HETATM   18  C   UNL     1      30.926  43.369  55.698  1.00  0.00     0.012 A 
HETATM   19  C   UNL     1      28.663  42.567  52.849  1.00  0.00     0.037 A 
HETATM   20  C   UNL     1      31.090  44.355  56.672  1.00  0.00     0.001 A 
HETATM   21  C   UNL     1      30.217  45.438  56.719  1.00  0.00     0.001 A 
ENDBRANCH  11  12
ENDBRANCH  10  11
ENDBRANCH   7  10
ENDBRANCH   4   6
ENDBRANCH   2   4
BRANCH   3  22
HETATM   22  C   UNL     1      22.976  48.561  49.029  1.00  0.00     0.247 C 
HETATM   23  N   UNL     1      22.291  49.409  49.873  1.00  0.00    -0.324 N 
HETATM   24  H   UNL     1      22.641  49.507  50.817  1.00  0.00     0.169 HD
HETATM   25  O   UNL     1      22.693  48.289  47.869  1.00  0.00    -0.268 OA
BRANCH  23  26
HETATM   26  C   UNL     1      21.149  50.178  49.556  1.00  0.00     0.035 A 
HETATM   27  C   UNL     1      21.153  51.245  48.652  1.00  0.00     0.030 A 
HETATM   28  C   UNL     1      19.985  51.975  48.397  1.00  0.00     0.019 A 
HETATM   29  C   UNL     1      18.795  51.647  49.050  1.00  0.00     0.032 A 
HETATM   30  C   UNL     1      18.779  50.567  49.940  1.00  0.00     0.019 A 
HETATM   31  C   UNL     1      19.950  49.843  50.194  1.00  0.00     0.030 A 
BRANCH  29  32
HETATM   32  C   UNL     1      17.531  52.396  48.821  1.00  0.00     0.249 C 
HETATM   33  N   UNL     1      17.030  52.419  47.550  1.00  0.00    -0.366 N 
HETATM   34  H   UNL     1      17.563  52.133  46.742  1.00  0.00     0.159 HD
HETATM   35  H   UNL     1      16.227  53.015  47.395  1.00  0.00     0.159 HD
HETATM   36  O   UNL     1      16.973  53.005  49.726  1.00  0.00    -0.268 OA
ENDBRANCH  29  32
ENDBRANCH  23  26
ENDBRANCH   3  22
TORSDOF 8
ENDMDL
MODEL 2
REMARK VINA RESULT:     -10.2      1.558      1.925
REMARK  8 active torsions:
REMARK  status: ('A' for Active; 'I' for Inactive)
REMARK    1  A    between atoms: C_2  and  N_3 
REMARK    2  A    between atoms: N_3  and  N_4 
REMARK       I    between atoms: N_4  and  C_5 
REMARK    3  A    between atoms: C_5  and  C_6 
REMARK    4  A    between atoms: C_6  and  O_7 
REMARK    5  A    between atoms: O_7  and  C_8 
REMARK    6  A    between atoms: C_19  and  C_20 
REMARK       I    between atoms: C_20  and  N_21 
REMARK    7  A    between atoms: N_21  and  C_22 
REMARK    8  A    between atoms: C_25  and  C_26 
REMARK       I    between atoms: C_26  and  N_27 
ROOT
HETATM    1  C   UNL     1      22.789  45.937  48.791  1.00  0.00     0.070 C 
HETATM    2  C   UNL     1      23.868  46.765  49.459  1.00  0.00     0.027 C 
HETATM    3  C   UNL     1      23.881  48.113  49.399  1.00  0.00     0.100 C 
ENDROOT
BRANCH   2   4
HETATM    4  N   UNL     1      24.832  46.008  50.121  1.00  0.00    -0.302 N 
HETATM    5  H   UNL     1      25.602  45.722  49.502  1.00  0.00     0.186 HD
BRANCH   4   6
HETATM    6  N   UNL     1      24.519  45.047  51.086  1.00  0.00    -0.268 N 
HETATM    7  C   UNL     1      25.173  45.005  52.303  1.00  0.00     0.260 C 
HETATM    8  O   UNL     1      24.657  44.413  53.253  1.00  0.00    -0.269 OA
HETATM    9  H   UNL     1      23.557  44.719  51.085  1.00  0.00     0.190 HD
BRANCH   7  10
HETATM   10  C   UNL     1      26.574  45.609  52.385  1.00  0.00     0.280 C 
BRANCH  10  11
HETATM   11  O   UNL     1      26.910  45.960  53.724  1.00  0.00    -0.342 OA
BRANCH  11  12
HETATM   12  C   UNL     1      27.946  45.244  54.264  1.00  0.00     0.070 A 
HETATM   13  C   UNL     1      28.459  45.738  55.465  1.00  0.00     0.049 A 
HETATM   14  C   UNL     1      29.527  45.096  56.116  1.00  0.00    -0.023 A 
HETATM   15  C   UNL     1      30.098  43.942  55.532  1.00  0.00    -0.026 A 
HETATM   16  C   UNL     1      30.040  45.571  57.334  1.00  0.00     0.012 A 
HETATM   17  C   UNL     1      29.595  43.474  54.310  1.00  0.00     0.015 A 
HETATM   18  C   UNL     1      31.160  43.293  56.183  1.00  0.00     0.012 A 
HETATM   19  C   UNL     1      28.531  44.124  53.677  1.00  0.00     0.037 A 
HETATM   20  C   UNL     1      31.654  43.775  57.395  1.00  0.00     0.001 A 
HETATM   21  C   UNL     1      31.096  44.914  57.969  1.00  0.00     0.001 A 
ENDBRANCH  11  12
ENDBRANCH  10  11
ENDBRANCH   7  10
ENDBRANCH   4   6
ENDBRANCH   2   4
BRANCH   3  22
HETATM   22  C   UNL     1      22.762  48.924  48.845  1.00  0.00     0.247 C 
HETATM   23  N   UNL     1      21.833  49.252  49.811  1.00  0.00    -0.324 N 
HETATM   24  H   UNL     1      22.009  48.931  50.754  1.00  0.00     0.169 HD
HETATM   25  O   UNL     1      22.711  49.194  47.652  1.00  0.00    -0.268 OA
BRANCH  23  26
HETATM   26  C   UNL     1      20.655  50.010  49.628  1.00  0.00     0.035 A 
HETATM   27  C   UNL     1      20.623  51.269  49.022  1.00  0.00     0.030 A 
HETATM   28  C   UNL     1      19.419  51.973  48.888  1.00  0.00     0.019 A 
HETATM   29  C   UNL     1      18.228  51.423  49.367  1.00  0.00     0.032 A 
HETATM   30  C   UNL     1      18.249  50.154  49.956  1.00  0.00     0.019 A 
HETATM   31  C   UNL     1      19.455  49.457  50.090  1.00  0.00     0.030 A 
BRANCH  29  32
HETATM   32  C   UNL     1      16.925  52.132  49.258  1.00  0.00     0.249 C 
HETATM   33  N   UNL     1      16.948  53.499  49.239  1.00  0.00    -0.366 N 
HETATM   34  H   UNL     1      17.762  54.040  49.492  1.00  0.00     0.159 HD
HETATM   35  H   UNL     1      16.049  53.962  49.266  1.00  0.00     0.159 HD
HETATM   36  O   UNL     1      15.864  51.523  49.225  1.00  0.00    -0.268 OA
ENDBRANCH  29  32
ENDBRANCH  23  26
ENDBRANCH   3  22
TORSDOF 8
ENDMDL
MODEL 3
REMARK VINA RESULT:      -9.9      3.009     11.680
REMARK  8 active torsions:
REMARK  status: ('A' for Active; 'I' for Inactive)
REMARK    1  A    between atoms: C_2  and  N_3 
REMARK    2  A    between atoms: N_3  and  N_4 
REMARK       I    between atoms: N_4  and  C_5 
REMARK    3  A    between atoms: C_5  and  C_6 
REMARK    4  A    between atoms: C_6  and  O_7 
REMARK    5  A    between atoms: O_7  and  C_8 
REMARK    6  A    between atoms: C_19  and  C_20 
REMARK       I    between atoms: C_20  and  N_21 
REMARK    7  A    between atoms: N_21  and  C_22 
REMARK    8  A    between atoms: C_25  and  C_26 
REMARK       I    between atoms: C_26  and  N_27 
ROOT
HETATM    1  C   UNL     1      25.237  46.702  51.855  1.00  0.00     0.070 C 
HETATM    2  C   UNL     1      25.089  45.327  51.234  1.00  0.00     0.027 C 
HETATM    3  C   UNL     1      25.656  44.228  51.775  1.00  0.00     0.100 C 
ENDROOT
BRANCH   2   4
HETATM    4  N   UNL     1      24.329  45.313  50.067  1.00  0.00    -0.302 N 
HETATM    5  H   UNL     1      24.503  46.135  49.474  1.00  0.00     0.186 HD
BRANCH   4   6
HETATM    6  N   UNL     1      23.001  44.879  50.024  1.00  0.00    -0.268 N 
HETATM    7  C   UNL     1      22.147  45.264  49.009  1.00  0.00     0.260 C 
HETATM    8  O   UNL     1      21.128  44.607  48.785  1.00  0.00    -0.269 OA
HETATM    9  H   UNL     1      22.824  43.965  50.434  1.00  0.00     0.190 HD
BRANCH   7  10
HETATM   10  C   UNL     1      22.453  46.566  48.271  1.00  0.00     0.280 C 
BRANCH  10  11
HETATM   11  O   UNL     1      22.811  47.605  49.178  1.00  0.00    -0.342 OA
BRANCH  11  12
HETATM   12  C   UNL     1      22.123  48.778  49.011  1.00  0.00     0.070 A 
HETATM   13  C   UNL     1      20.743  48.702  49.209  1.00  0.00     0.049 A 
HETATM   14  C   UNL     1      19.926  49.835  49.061  1.00  0.00    -0.023 A 
HETATM   15  C   UNL     1      20.512  51.066  48.688  1.00  0.00    -0.026 A 
HETATM   16  C   UNL     1      18.539  49.777  49.277  1.00  0.00     0.012 A 
HETATM   17  C   UNL     1      21.895  51.123  48.462  1.00  0.00     0.015 A 
HETATM   18  C   UNL     1      19.700  52.203  48.547  1.00  0.00     0.012 A 
HETATM   19  C   UNL     1      22.694  49.986  48.615  1.00  0.00     0.037 A 
HETATM   20  C   UNL     1      18.325  52.128  48.770  1.00  0.00     0.001 A 
HETATM   21  C   UNL     1      17.745  50.916  49.133  1.00  0.00     0.001 A 
ENDBRANCH  11  12
ENDBRANCH  10  11
ENDBRANCH   7  10
ENDBRANCH   4   6
ENDBRANCH   2   4
BRANCH   3  22
HETATM   22  C   UNL     1      26.316  44.214  53.110  1.00  0.00     0.247 C 
HETATM   23  N   UNL     1      27.691  44.194  53.008  1.00  0.00    -0.324 N 
HETATM   24  H   UNL     1      28.088  44.204  52.077  1.00  0.00     0.169 HD
HETATM   25  O   UNL     1      25.653  44.176  54.138  1.00  0.00    -0.268 OA
BRANCH  23  26
HETATM   26  C   UNL     1      28.618  44.178  54.073  1.00  0.00     0.035 A 
HETATM   27  C   UNL     1      29.582  43.183  54.254  1.00  0.00     0.030 A 
HETATM   28  C   UNL     1      30.461  43.223  55.345  1.00  0.00     0.019 A 
HETATM   29  C   UNL     1      30.380  44.262  56.274  1.00  0.00     0.032 A 
HETATM   30  C   UNL     1      29.431  45.273  56.088  1.00  0.00     0.019 A 
HETATM   31  C   UNL     1      28.553  45.227  54.998  1.00  0.00     0.030 A 
BRANCH  29  32
HETATM   32  C   UNL     1      31.282  44.345  57.453  1.00  0.00     0.249 C 
HETATM   33  N   UNL     1      31.022  45.312  58.383  1.00  0.00    -0.366 N 
HETATM   34  H   UNL     1      30.389  46.081  58.217  1.00  0.00     0.159 HD
HETATM   35  H   UNL     1      31.704  45.417  59.123  1.00  0.00     0.159 HD
HETATM   36  O   UNL     1      32.249  43.603  57.574  1.00  0.00    -0.268 OA
ENDBRANCH  29  32
ENDBRANCH  23  26
ENDBRANCH   3  22
TORSDOF 8
ENDMDL
MODEL 4
REMARK VINA RESULT:      -9.4      2.890     11.973
REMARK  8 active torsions:
REMARK  status: ('A' for Active; 'I' for Inactive)
REMARK    1  A    between atoms: C_2  and  N_3 
REMARK    2  A    between atoms: N_3  and  N_4 
REMARK       I    between atoms: N_4  and  C_5 
REMARK    3  A    between atoms: C_5  and  C_6 
REMARK    4  A    between atoms: C_6  and  O_7 
REMARK    5  A    between atoms: O_7  and  C_8 
REMARK    6  A    between atoms: C_19  and  C_20 
REMARK       I    between atoms: C_20  and  N_21 
REMARK    7  A    between atoms: N_21  and  C_22 
REMARK    8  A    between atoms: C_25  and  C_26 
REMARK       I    between atoms: C_26  and  N_27 
ROOT
HETATM    1  C   UNL     1      26.529  43.640  50.705  1.00  0.00     0.070 C 
HETATM    2  C   UNL     1      25.793  44.923  51.035  1.00  0.00     0.027 C 
HETATM    3  C   UNL     1      25.688  45.388  52.298  1.00  0.00     0.100 C 
ENDROOT
BRANCH   2   4
HETATM    4  N   UNL     1      25.239  45.559  49.926  1.00  0.00    -0.302 N 
HETATM    5  H   UNL     1      25.046  44.907  49.155  1.00  0.00     0.186 HD
BRANCH   4   6
HETATM    6  N   UNL     1      25.645  46.822  49.487  1.00  0.00    -0.268 N 
HETATM    7  C   UNL     1      24.764  47.884  49.426  1.00  0.00     0.260 C 
HETATM    8  O   UNL     1      25.198  49.037  49.393  1.00  0.00    -0.269 OA
HETATM    9  H   UNL     1      26.618  47.058  49.667  1.00  0.00     0.190 HD
BRANCH   7  10
HETATM   10  C   UNL     1      23.274  47.572  49.291  1.00  0.00     0.280 C 
BRANCH  10  11
HETATM   11  O   UNL     1      22.755  48.043  48.051  1.00  0.00    -0.342 OA
BRANCH  11  12
HETATM   12  C   UNL     1      21.933  49.135  48.149  1.00  0.00     0.070 A 
HETATM   13  C   UNL     1      20.567  48.874  48.014  1.00  0.00     0.049 A 
HETATM   14  C   UNL     1      19.621  49.911  48.089  1.00  0.00    -0.023 A 
HETATM   15  C   UNL     1      20.064  51.238  48.287  1.00  0.00    -0.026 A 
HETATM   16  C   UNL     1      18.244  49.660  47.976  1.00  0.00     0.012 A 
HETATM   17  C   UNL     1      21.440  51.491  48.389  1.00  0.00     0.015 A 
HETATM   18  C   UNL     1      19.122  52.276  48.371  1.00  0.00     0.012 A 
HETATM   19  C   UNL     1      22.368  50.448  48.313  1.00  0.00     0.037 A 
HETATM   20  C   UNL     1      17.758  52.009  48.261  1.00  0.00     0.001 A 
HETATM   21  C   UNL     1      17.318  50.703  48.062  1.00  0.00     0.001 A 
ENDBRANCH  11  12
ENDBRANCH  10  11
ENDBRANCH   7  10
ENDBRANCH   4   6
ENDBRANCH   2   4
BRANCH   3  22
HETATM   22  C   UNL     1      26.426  44.807  53.454  1.00  0.00     0.247 C 
HETATM   23  N   UNL     1      27.712  45.297  53.547  1.00  0.00    -0.324 N 
HETATM   24  H   UNL     1      28.000  45.978  52.857  1.00  0.00     0.169 HD
HETATM   25  O   UNL     1      25.906  43.962  54.171  1.00  0.00    -0.268 OA
BRANCH  23  26
HETATM   26  C   UNL     1      28.677  44.959  54.521  1.00  0.00     0.035 A 
HETATM   27  C   UNL     1      29.470  43.810  54.469  1.00  0.00     0.030 A 
HETATM   28  C   UNL     1      30.398  43.530  55.480  1.00  0.00     0.019 A 
HETATM   29  C   UNL     1      30.540  44.400  56.563  1.00  0.00     0.032 A 
HETATM   30  C   UNL     1      29.765  45.564  56.611  1.00  0.00     0.019 A 
HETATM   31  C   UNL     1      28.837  45.837  55.600  1.00  0.00     0.030 A 
BRANCH  29  32
HETATM   32  C   UNL     1      31.504  44.144  57.667  1.00  0.00     0.249 C 
HETATM   33  N   UNL     1      31.534  45.037  58.701  1.00  0.00    -0.366 N 
HETATM   34  H   UNL     1      31.094  45.945  58.659  1.00  0.00     0.159 HD
HETATM   35  H   UNL     1      32.264  44.901  59.389  1.00  0.00     0.159 HD
HETATM   36  O   UNL     1      32.272  43.191  57.639  1.00  0.00    -0.268 OA
ENDBRANCH  29  32
ENDBRANCH  23  26
ENDBRANCH   3  22
TORSDOF 8
ENDMDL
MODEL 5
REMARK VINA RESULT:      -9.3     11.825     14.927
REMARK  8 active torsions:
REMARK  status: ('A' for Active; 'I' for Inactive)
REMARK    1  A    between atoms: C_2  and  N_3 
REMARK    2  A    between atoms: N_3  and  N_4 
REMARK       I    between atoms: N_4  and  C_5 
REMARK    3  A    between atoms: C_5  and  C_6 
REMARK    4  A    between atoms: C_6  and  O_7 
REMARK    5  A    between atoms: O_7  and  C_8 
REMARK    6  A    between atoms: C_19  and  C_20 
REMARK       I    between atoms: C_20  and  N_21 
REMARK    7  A    between atoms: N_21  and  C_22 
REMARK    8  A    between atoms: C_25  and  C_26 
REMARK       I    between atoms: C_26  and  N_27 
ROOT
HETATM    1  C   UNL     1      33.009  50.889  43.125  1.00  0.00     0.070 C 
HETATM    2  C   UNL     1      34.094  50.694  42.085  1.00  0.00     0.027 C 
HETATM    3  C   UNL     1      34.166  49.585  41.320  1.00  0.00     0.100 C 
ENDROOT
BRANCH   2   4
HETATM    4  N   UNL     1      34.997  51.752  42.005  1.00  0.00    -0.302 N 
HETATM    5  H   UNL     1      34.563  52.657  42.227  1.00  0.00     0.186 HD
BRANCH   4   6
HETATM    6  N   UNL     1      35.981  51.844  41.016  1.00  0.00    -0.268 N 
HETATM    7  C   UNL     1      35.833  52.677  39.924  1.00  0.00     0.260 C 
HETATM    8  O   UNL     1      36.824  53.018  39.277  1.00  0.00    -0.269 OA
HETATM    9  H   UNL     1      36.935  51.683  41.329  1.00  0.00     0.190 HD
BRANCH   7  10
HETATM   10  C   UNL     1      34.415  53.056  39.500  1.00  0.00     0.280 C 
BRANCH  10  11
HETATM   11  O   UNL     1      33.863  52.088  38.611  1.00  0.00    -0.342 OA
BRANCH  11  12
HETATM   12  C   UNL     1      32.517  51.877  38.754  1.00  0.00     0.070 A 
HETATM   13  C   UNL     1      31.943  52.409  39.911  1.00  0.00     0.049 A 
HETATM   14  C   UNL     1      30.572  52.254  40.177  1.00  0.00    -0.023 A 
HETATM   15  C   UNL     1      29.768  51.533  39.265  1.00  0.00    -0.026 A 
HETATM   16  C   UNL     1      29.977  52.801  41.326  1.00  0.00     0.012 A 
HETATM   17  C   UNL     1      30.362  50.977  38.123  1.00  0.00     0.015 A 
HETATM   18  C   UNL     1      28.396  51.383  39.521  1.00  0.00     0.012 A 
HETATM   19  C   UNL     1      31.728  51.141  37.873  1.00  0.00     0.037 A 
HETATM   20  C   UNL     1      27.821  51.937  40.666  1.00  0.00     0.001 A 
HETATM   21  C   UNL     1      28.611  52.645  41.568  1.00  0.00     0.001 A 
ENDBRANCH  11  12
ENDBRANCH  10  11
ENDBRANCH   7  10
ENDBRANCH   4   6
ENDBRANCH   2   4
BRANCH   3  22
HETATM   22  C   UNL     1      33.106  48.540  41.281  1.00  0.00     0.247 C 
HETATM   23  N   UNL     1      31.871  49.066  40.962  1.00  0.00    -0.324 N 
HETATM   24  H   UNL     1      31.822  50.061  40.784  1.00  0.00     0.169 HD
HETATM   25  O   UNL     1      33.361  47.375  41.557  1.00  0.00    -0.268 OA
BRANCH  23  26
HETATM   26  C   UNL     1      30.656  48.358  40.840  1.00  0.00     0.035 A 
HETATM   27  C   UNL     1      30.432  47.349  39.899  1.00  0.00     0.030 A 
HETATM   28  C   UNL     1      29.193  46.698  39.823  1.00  0.00     0.019 A 
HETATM   29  C   UNL     1      28.159  47.055  40.691  1.00  0.00     0.032 A 
HETATM   30  C   UNL     1      28.383  48.049  41.650  1.00  0.00     0.019 A 
HETATM   31  C   UNL     1      29.621  48.698  41.719  1.00  0.00     0.030 A 
BRANCH  29  32
HETATM   32  C   UNL     1      26.824  46.401  40.646  1.00  0.00     0.249 C 
HETATM   33  N   UNL     1      26.253  46.045  41.836  1.00  0.00    -0.366 N 
HETATM   34  H   UNL     1      26.762  46.019  42.706  1.00  0.00     0.159 HD
HETATM   35  H   UNL     1      25.394  45.513  41.779  1.00  0.00     0.159 HD
HETATM   36  O   UNL     1      26.267  46.152  39.584  1.00  0.00    -0.268 OA
ENDBRANCH  29  32
ENDBRANCH  23  26
ENDBRANCH   3  22
TORSDOF 8
ENDMDL
MODEL 6
REMARK VINA RESULT:      -9.2     11.618     15.084
REMARK  8 active torsions:
REMARK  status: ('A' for Active; 'I' for Inactive)
REMARK    1  A    between atoms: C_2  and  N_3 
REMARK    2  A    between atoms: N_3  and  N_4 
REMARK       I    between atoms: N_4  and  C_5 
REMARK    3  A    between atoms: C_5  and  C_6 
REMARK    4  A    between atoms: C_6  and  O_7 
REMARK    5  A    between atoms: O_7  and  C_8 
REMARK    6  A    between atoms: C_19  and  C_20 
REMARK       I    between atoms: C_20  and  N_21 
REMARK    7  A    between atoms: N_21  and  C_22 
REMARK    8  A    between atoms: C_25  and  C_26 
REMARK       I    between atoms: C_26  and  N_27 
ROOT
HETATM    1  C   UNL     1      30.891  47.211  40.120  1.00  0.00     0.070 C 
HETATM    2  C   UNL     1      29.617  47.801  40.689  1.00  0.00     0.027 C 
HETATM    3  C   UNL     1      29.591  48.461  41.866  1.00  0.00     0.100 C 
ENDROOT
BRANCH   2   4
HETATM    4  N   UNL     1      28.492  47.591  39.894  1.00  0.00    -0.302 N 
HETATM    5  H   UNL     1      28.598  47.986  38.950  1.00  0.00     0.186 HD
BRANCH   4   6
HETATM    6  N   UNL     1      27.185  47.677  40.380  1.00  0.00    -0.268 N 
HETATM    7  C   UNL     1      26.258  48.532  39.815  1.00  0.00     0.260 C 
HETATM    8  O   UNL     1      25.055  48.340  40.002  1.00  0.00    -0.269 OA
HETATM    9  H   UNL     1      26.813  46.826  40.795  1.00  0.00     0.190 HD
BRANCH   7  10
HETATM   10  C   UNL     1      26.779  49.756  39.063  1.00  0.00     0.280 C 
BRANCH  10  11
HETATM   11  O   UNL     1      26.830  50.902  39.908  1.00  0.00    -0.342 OA
BRANCH  11  12
HETATM   12  C   UNL     1      28.059  51.500  39.992  1.00  0.00     0.070 A 
HETATM   13  C   UNL     1      29.065  50.924  39.213  1.00  0.00     0.049 A 
HETATM   14  C   UNL     1      30.372  51.442  39.217  1.00  0.00    -0.023 A 
HETATM   15  C   UNL     1      30.672  52.554  40.037  1.00  0.00    -0.026 A 
HETATM   16  C   UNL     1      31.388  50.885  38.423  1.00  0.00     0.012 A 
HETATM   17  C   UNL     1      29.661  53.104  40.838  1.00  0.00     0.015 A 
HETATM   18  C   UNL     1      31.973  53.080  40.038  1.00  0.00     0.012 A 
HETATM   19  C   UNL     1      28.366  52.577  40.822  1.00  0.00     0.037 A 
HETATM   20  C   UNL     1      32.969  52.517  39.240  1.00  0.00     0.001 A 
HETATM   21  C   UNL     1      32.677  51.419  38.434  1.00  0.00     0.001 A 
ENDBRANCH  11  12
ENDBRANCH  10  11
ENDBRANCH   7  10
ENDBRANCH   4   6
ENDBRANCH   2   4
BRANCH   3  22
HETATM   22  C   UNL     1      30.816  48.838  42.625  1.00  0.00     0.247 C 
HETATM   23  N   UNL     1      31.374  50.010  42.159  1.00  0.00    -0.324 N 
HETATM   24  H   UNL     1      30.906  50.475  41.392  1.00  0.00     0.169 HD
HETATM   25  O   UNL     1      31.247  48.121  43.519  1.00  0.00    -0.268 OA
BRANCH  23  26
HETATM   26  C   UNL     1      32.534  50.649  42.651  1.00  0.00     0.035 A 
HETATM   27  C   UNL     1      32.555  51.458  43.791  1.00  0.00     0.030 A 
HETATM   28  C   UNL     1      33.740  52.074  44.213  1.00  0.00     0.019 A 
HETATM   29  C   UNL     1      34.923  51.890  43.493  1.00  0.00     0.032 A 
HETATM   30  C   UNL     1      34.913  51.065  42.363  1.00  0.00     0.019 A 
HETATM   31  C   UNL     1      33.726  50.454  41.943  1.00  0.00     0.030 A 
BRANCH  29  32
HETATM   32  C   UNL     1      36.204  52.528  43.894  1.00  0.00     0.249 C 
HETATM   33  N   UNL     1      36.856  52.014  44.980  1.00  0.00    -0.366 N 
HETATM   34  H   UNL     1      36.425  51.372  45.628  1.00  0.00     0.159 HD
HETATM   35  H   UNL     1      37.671  52.524  45.296  1.00  0.00     0.159 HD
HETATM   36  O   UNL     1      36.647  53.504  43.301  1.00  0.00    -0.268 OA
ENDBRANCH  29  32
ENDBRANCH  23  26
ENDBRANCH   3  22
TORSDOF 8
ENDMDL
MODEL 7
REMARK VINA RESULT:      -9.1      3.308      3.871
REMARK  8 active torsions:
REMARK  status: ('A' for Active; 'I' for Inactive)
REMARK    1  A    between atoms: C_2  and  N_3 
REMARK    2  A    between atoms: N_3  and  N_4 
REMARK       I    between atoms: N_4  and  C_5 
REMARK    3  A    between atoms: C_5  and  C_6 
REMARK    4  A    between atoms: C_6  and  O_7 
REMARK    5  A    between atoms: O_7  and  C_8 
REMARK    6  A    between atoms: C_19  and  C_20 
REMARK       I    between atoms: C_20  and  N_21 
REMARK    7  A    between atoms: N_21  and  C_22 
REMARK    8  A    between atoms: C_25  and  C_26 
REMARK       I    between atoms: C_26  and  N_27 
ROOT
HETATM    1  C   UNL     1      25.141  45.642  49.640  1.00  0.00     0.070 C 
HETATM    2  C   UNL     1      24.611  44.373  50.275  1.00  0.00     0.027 C 
HETATM    3  C   UNL     1      23.392  43.875  49.980  1.00  0.00     0.100 C 
ENDROOT
BRANCH   2   4
HETATM    4  N   UNL     1      25.489  43.787  51.185  1.00  0.00    -0.302 N 
HETATM    5  H   UNL     1      26.088  43.073  50.749  1.00  0.00     0.186 HD
BRANCH   4   6
HETATM    6  N   UNL     1      25.131  43.473  52.499  1.00  0.00    -0.268 N 
HETATM    7  C   UNL     1      25.334  44.364  53.535  1.00  0.00     0.260 C 
HETATM    8  O   UNL     1      24.703  44.234  54.586  1.00  0.00    -0.269 OA
HETATM    9  H   UNL     1      24.340  42.843  52.601  1.00  0.00     0.190 HD
BRANCH   7  10
HETATM   10  C   UNL     1      26.427  45.420  53.369  1.00  0.00     0.280 C 
BRANCH  10  11
HETATM   11  O   UNL     1      27.603  44.862  52.788  1.00  0.00    -0.342 OA
BRANCH  11  12
HETATM   12  C   UNL     1      28.543  44.436  53.689  1.00  0.00     0.070 A 
HETATM   13  C   UNL     1      28.693  45.234  54.826  1.00  0.00     0.049 A 
HETATM   14  C   UNL     1      29.629  44.907  55.823  1.00  0.00    -0.023 A 
HETATM   15  C   UNL     1      30.441  43.762  55.659  1.00  0.00    -0.026 A 
HETATM   16  C   UNL     1      29.776  45.689  56.980  1.00  0.00     0.012 A 
HETATM   17  C   UNL     1      30.303  42.987  54.498  1.00  0.00     0.015 A 
HETATM   18  C   UNL     1      31.372  43.426  56.655  1.00  0.00     0.012 A 
HETATM   19  C   UNL     1      29.365  43.325  53.517  1.00  0.00     0.037 A 
HETATM   20  C   UNL     1      31.502  44.212  57.801  1.00  0.00     0.001 A 
HETATM   21  C   UNL     1      30.706  45.342  57.963  1.00  0.00     0.001 A 
ENDBRANCH  11  12
ENDBRANCH  10  11
ENDBRANCH   7  10
ENDBRANCH   4   6
ENDBRANCH   2   4
BRANCH   3  22
HETATM   22  C   UNL     1      22.531  44.399  48.883  1.00  0.00     0.247 C 
HETATM   23  N   UNL     1      21.458  45.119  49.367  1.00  0.00    -0.324 N 
HETATM   24  H   UNL     1      21.380  45.219  50.370  1.00  0.00     0.169 HD
HETATM   25  O   UNL     1      22.780  44.145  47.712  1.00  0.00    -0.268 OA
BRANCH  23  26
HETATM   26  C   UNL     1      20.452  45.752  48.604  1.00  0.00     0.035 A 
HETATM   27  C   UNL     1      20.334  47.137  48.465  1.00  0.00     0.030 A 
HETATM   28  C   UNL     1      19.299  47.697  47.703  1.00  0.00     0.019 A 
HETATM   29  C   UNL     1      18.364  46.872  47.074  1.00  0.00     0.032 A 
HETATM   30  C   UNL     1      18.489  45.484  47.193  1.00  0.00     0.019 A 
HETATM   31  C   UNL     1      19.522  44.929  47.957  1.00  0.00     0.030 A 
BRANCH  29  32
HETATM   32  C   UNL     1      17.243  47.417  46.264  1.00  0.00     0.249 C 
HETATM   33  N   UNL     1      15.987  47.362  46.801  1.00  0.00    -0.366 N 
HETATM   34  H   UNL     1      15.758  46.803  47.610  1.00  0.00     0.159 HD
HETATM   35  H   UNL     1      15.228  47.644  46.195  1.00  0.00     0.159 HD
HETATM   36  O   UNL     1      17.424  47.865  45.138  1.00  0.00    -0.268 OA
ENDBRANCH  29  32
ENDBRANCH  23  26
ENDBRANCH   3  22
TORSDOF 8
ENDMDL
MODEL 8
REMARK VINA RESULT:      -8.9      3.091     10.975
REMARK  8 active torsions:
REMARK  status: ('A' for Active; 'I' for Inactive)
REMARK    1  A    between atoms: C_2  and  N_3 
REMARK    2  A    between atoms: N_3  and  N_4 
REMARK       I    between atoms: N_4  and  C_5 
REMARK    3  A    between atoms: C_5  and  C_6 
REMARK    4  A    between atoms: C_6  and  O_7 
REMARK    5  A    between atoms: O_7  and  C_8 
REMARK    6  A    between atoms: C_19  and  C_20 
REMARK       I    between atoms: C_20  and  N_21 
REMARK    7  A    between atoms: N_21  and  C_22 
REMARK    8  A    between atoms: C_25  and  C_26 
REMARK       I    between atoms: C_26  and  N_27 
ROOT
HETATM    1  C   UNL     1      24.543  43.898  50.010  1.00  0.00     0.070 C 
HETATM    2  C   UNL     1      23.868  45.221  49.708  1.00  0.00     0.027 C 
HETATM    3  C   UNL     1      24.258  46.376  50.285  1.00  0.00     0.100 C 
ENDROOT
BRANCH   2   4
HETATM    4  N   UNL     1      22.818  45.125  48.797  1.00  0.00    -0.302 N 
HETATM    5  H   UNL     1      22.857  45.855  48.074  1.00  0.00     0.186 HD
BRANCH   4   6
HETATM    6  N   UNL     1      21.512  44.791  49.168  1.00  0.00    -0.268 N 
HETATM    7  C   UNL     1      20.418  45.271  48.474  1.00  0.00     0.260 C 
HETATM    8  O   UNL     1      19.332  44.698  48.574  1.00  0.00    -0.269 OA
HETATM    9  H   UNL     1      21.399  43.880  49.605  1.00  0.00     0.190 HD
BRANCH   7  10
HETATM   10  C   UNL     1      20.583  46.571  47.688  1.00  0.00     0.280 C 
BRANCH  10  11
HETATM   11  O   UNL     1      21.400  47.502  48.392  1.00  0.00    -0.342 OA
BRANCH  11  12
HETATM   12  C   UNL     1      20.881  48.767  48.485  1.00  0.00     0.070 A 
HETATM   13  C   UNL     1      19.520  48.840  48.789  1.00  0.00     0.049 A 
HETATM   14  C   UNL     1      18.869  50.080  48.906  1.00  0.00    -0.023 A 
HETATM   15  C   UNL     1      19.603  51.269  48.694  1.00  0.00    -0.026 A 
HETATM   16  C   UNL     1      17.505  50.168  49.230  1.00  0.00     0.012 A 
HETATM   17  C   UNL     1      20.962  51.182  48.359  1.00  0.00     0.015 A 
HETATM   18  C   UNL     1      18.959  52.510  48.818  1.00  0.00     0.012 A 
HETATM   19  C   UNL     1      21.595  49.940  48.248  1.00  0.00     0.037 A 
HETATM   20  C   UNL     1      17.605  52.580  49.146  1.00  0.00     0.001 A 
HETATM   21  C   UNL     1      16.878  51.410  49.351  1.00  0.00     0.001 A 
ENDBRANCH  11  12
ENDBRANCH  10  11
ENDBRANCH   7  10
ENDBRANCH   4   6
ENDBRANCH   2   4
BRANCH   3  22
HETATM   22  C   UNL     1      25.486  46.507  51.118  1.00  0.00     0.247 C 
HETATM   23  N   UNL     1      25.243  46.228  52.447  1.00  0.00    -0.324 N 
HETATM   24  H   UNL     1      24.300  45.964  52.701  1.00  0.00     0.169 HD
HETATM   25  O   UNL     1      26.546  46.869  50.623  1.00  0.00    -0.268 OA
BRANCH  23  26
HETATM   26  C   UNL     1      26.181  46.256  53.502  1.00  0.00     0.035 A 
HETATM   27  C   UNL     1      26.491  47.401  54.241  1.00  0.00     0.030 A 
HETATM   28  C   UNL     1      27.446  47.359  55.266  1.00  0.00     0.019 A 
HETATM   29  C   UNL     1      28.108  46.165  55.561  1.00  0.00     0.032 A 
HETATM   30  C   UNL     1      27.787  45.010  54.839  1.00  0.00     0.019 A 
HETATM   31  C   UNL     1      26.835  45.058  53.814  1.00  0.00     0.030 A 
BRANCH  29  32
HETATM   32  C   UNL     1      29.135  46.070  56.632  1.00  0.00     0.249 C 
HETATM   33  N   UNL     1      30.427  45.839  56.251  1.00  0.00    -0.366 N 
HETATM   34  H   UNL     1      30.683  45.536  55.323  1.00  0.00     0.159 HD
HETATM   35  H   UNL     1      31.091  45.677  56.997  1.00  0.00     0.159 HD
HETATM   36  O   UNL     1      28.836  46.156  57.816  1.00  0.00    -0.268 OA
ENDBRANCH  29  32
ENDBRANCH  23  26
ENDBRANCH   3  22
TORSDOF 8
ENDMDL
MODEL 9
REMARK VINA RESULT:      -8.8     11.645     14.824
REMARK  8 active torsions:
REMARK  status: ('A' for Active; 'I' for Inactive)
REMARK    1  A    between atoms: C_2  and  N_3 
REMARK    2  A    between atoms: N_3  and  N_4 
REMARK       I    between atoms: N_4  and  C_5 
REMARK    3  A    between atoms: C_5  and  C_6 
REMARK    4  A    between atoms: C_6  and  O_7 
REMARK    5  A    between atoms: O_7  and  C_8 
REMARK    6  A    between atoms: C_19  and  C_20 
REMARK       I    between atoms: C_20  and  N_21 
REMARK    7  A    between atoms: N_21  and  C_22 
REMARK    8  A    between atoms: C_25  and  C_26 
REMARK       I    between atoms: C_26  and  N_27 
ROOT
HETATM    1  C   UNL     1      32.968  51.756  43.876  1.00  0.00     0.070 C 
HETATM    2  C   UNL     1      33.770  51.116  42.760  1.00  0.00     0.027 C 
HETATM    3  C   UNL     1      33.356  50.000  42.126  1.00  0.00     0.100 C 
ENDROOT
BRANCH   2   4
HETATM    4  N   UNL     1      34.960  51.779  42.467  1.00  0.00    -0.302 N 
HETATM    5  H   UNL     1      34.824  52.789  42.328  1.00  0.00     0.186 HD
BRANCH   4   6
HETATM    6  N   UNL     1      35.951  51.241  41.641  1.00  0.00    -0.268 N 
HETATM    7  C   UNL     1      36.362  51.887  40.491  1.00  0.00     0.260 C 
HETATM    8  O   UNL     1      37.451  51.603  39.987  1.00  0.00    -0.269 OA
HETATM    9  H   UNL     1      36.652  50.672  42.109  1.00  0.00     0.190 HD
BRANCH   7  10
HETATM   10  C   UNL     1      35.387  52.858  39.828  1.00  0.00     0.280 C 
BRANCH  10  11
HETATM   11  O   UNL     1      34.474  52.174  38.974  1.00  0.00    -0.342 OA
BRANCH  11  12
HETATM   12  C   UNL     1      33.151  52.366  39.275  1.00  0.00     0.070 A 
HETATM   13  C   UNL     1      32.245  51.628  38.510  1.00  0.00     0.049 A 
HETATM   14  C   UNL     1      30.860  51.741  38.718  1.00  0.00    -0.023 A 
HETATM   15  C   UNL     1      30.380  52.631  39.706  1.00  0.00    -0.026 A 
HETATM   16  C   UNL     1      29.939  50.990  37.970  1.00  0.00     0.012 A 
HETATM   17  C   UNL     1      31.298  53.389  40.447  1.00  0.00     0.015 A 
HETATM   18  C   UNL     1      28.997  52.741  39.924  1.00  0.00     0.012 A 
HETATM   19  C   UNL     1      32.673  53.263  40.228  1.00  0.00     0.037 A 
HETATM   20  C   UNL     1      28.096  51.984  39.174  1.00  0.00     0.001 A 
HETATM   21  C   UNL     1      28.566  51.110  38.197  1.00  0.00     0.001 A 
ENDBRANCH  11  12
ENDBRANCH  10  11
ENDBRANCH   7  10
ENDBRANCH   4   6
ENDBRANCH   2   4
BRANCH   3  22
HETATM   22  C   UNL     1      32.007  49.396  42.316  1.00  0.00     0.247 C 
HETATM   23  N   UNL     1      31.244  49.462  41.169  1.00  0.00    -0.324 N 
HETATM   24  H   UNL     1      31.667  49.884  40.353  1.00  0.00     0.169 HD
HETATM   25  O   UNL     1      31.665  48.952  43.404  1.00  0.00    -0.268 OA
BRANCH  23  26
HETATM   26  C   UNL     1      29.925  48.984  41.002  1.00  0.00     0.035 A 
HETATM   27  C   UNL     1      28.809  49.539  41.633  1.00  0.00     0.030 A 
HETATM   28  C   UNL     1      27.530  49.003  41.433  1.00  0.00     0.019 A 
HETATM   29  C   UNL     1      27.354  47.896  40.600  1.00  0.00     0.032 A 
HETATM   30  C   UNL     1      28.465  47.348  39.949  1.00  0.00     0.019 A 
HETATM   31  C   UNL     1      29.741  47.886  40.154  1.00  0.00     0.030 A 
BRANCH  29  32
HETATM   32  C   UNL     1      26.020  47.284  40.362  1.00  0.00     0.249 C 
HETATM   33  N   UNL     1      24.987  47.689  41.160  1.00  0.00    -0.366 N 
HETATM   34  H   UNL     1      25.120  48.216  42.010  1.00  0.00     0.159 HD
HETATM   35  H   UNL     1      24.114  47.189  41.050  1.00  0.00     0.159 HD
HETATM   36  O   UNL     1      25.854  46.420  39.511  1.00  0.00    -0.268 OA
ENDBRANCH  29  32
ENDBRANCH  23  26
ENDBRANCH   3  22
TORSDOF 8
ENDMDL
MODEL 10
REMARK VINA RESULT:      -8.6      2.395      3.696
REMARK  8 active torsions:
REMARK  status: ('A' for Active; 'I' for Inactive)
REMARK    1  A    between atoms: C_2  and  N_3 
REMARK    2  A    between atoms: N_3  and  N_4 
REMARK       I    between atoms: N_4  and  C_5 
REMARK    3  A    between atoms: C_5  and  C_6 
REMARK    4  A    between atoms: C_6  and  O_7 
REMARK    5  A    between atoms: O_7  and  C_8 
REMARK    6  A    between atoms: C_19  and  C_20 
REMARK       I    between atoms: C_20  and  N_21 
REMARK    7  A    between atoms: N_21  and  C_22 
REMARK    8  A    between atoms: C_25  and  C_26 
REMARK       I    between atoms: C_26  and  N_27 
ROOT
HETATM    1  C   UNL     1      24.848  42.743  48.665  1.00  0.00     0.070 C 
HETATM    2  C   UNL     1      25.992  43.453  49.360  1.00  0.00     0.027 C 
HETATM    3  C   UNL     1      25.852  44.680  49.905  1.00  0.00     0.100 C 
ENDROOT
BRANCH   2   4
HETATM    4  N   UNL     1      27.183  42.730  49.372  1.00  0.00    -0.302 N 
HETATM    5  H   UNL     1      27.938  43.208  48.863  1.00  0.00     0.186 HD
BRANCH   4   6
HETATM    6  N   UNL     1      27.234  41.339  49.249  1.00  0.00    -0.268 N 
HETATM    7  C   UNL     1      27.023  40.509  50.334  1.00  0.00     0.260 C 
HETATM    8  O   UNL     1      26.715  39.330  50.151  1.00  0.00    -0.269 OA
HETATM    9  H   UNL     1      26.960  40.967  48.343  1.00  0.00     0.190 HD
BRANCH   7  10
HETATM   10  C   UNL     1      27.293  41.072  51.729  1.00  0.00     0.280 C 
BRANCH  10  11
HETATM   11  O   UNL     1      28.581  41.676  51.804  1.00  0.00    -0.342 OA
BRANCH  11  12
HETATM   12  C   UNL     1      28.699  42.665  52.746  1.00  0.00     0.070 A 
HETATM   13  C   UNL     1      29.692  42.467  53.707  1.00  0.00     0.049 A 
HETATM   14  C   UNL     1      29.908  43.406  54.730  1.00  0.00    -0.023 A 
HETATM   15  C   UNL     1      29.094  44.560  54.793  1.00  0.00    -0.026 A 
HETATM   16  C   UNL     1      30.916  43.229  55.692  1.00  0.00     0.012 A 
HETATM   17  C   UNL     1      28.080  44.732  53.839  1.00  0.00     0.015 A 
HETATM   18  C   UNL     1      29.311  45.505  55.808  1.00  0.00     0.012 A 
HETATM   19  C   UNL     1      27.879  43.788  52.828  1.00  0.00     0.037 A 
HETATM   20  C   UNL     1      30.320  45.316  56.752  1.00  0.00     0.001 A 
HETATM   21  C   UNL     1      31.121  44.178  56.696  1.00  0.00     0.001 A 
ENDBRANCH  11  12
ENDBRANCH  10  11
ENDBRANCH   7  10
ENDBRANCH   4   6
ENDBRANCH   2   4
BRANCH   3  22
HETATM   22  C   UNL     1      24.542  45.374  50.047  1.00  0.00     0.247 C 
HETATM   23  N   UNL     1      24.404  46.409  49.145  1.00  0.00    -0.324 N 
HETATM   24  H   UNL     1      25.168  46.571  48.503  1.00  0.00     0.169 HD
HETATM   25  O   UNL     1      23.746  45.042  50.916  1.00  0.00    -0.268 OA
BRANCH  23  26
HETATM   26  C   UNL     1      23.291  47.267  49.008  1.00  0.00     0.035 A 
HETATM   27  C   UNL     1      23.260  48.585  49.472  1.00  0.00     0.030 A 
HETATM   28  C   UNL     1      22.114  49.376  49.315  1.00  0.00     0.019 A 
HETATM   29  C   UNL     1      20.978  48.851  48.693  1.00  0.00     0.032 A 
HETATM   30  C   UNL     1      21.010  47.540  48.207  1.00  0.00     0.019 A 
HETATM   31  C   UNL     1      22.156  46.753  48.370  1.00  0.00     0.030 A 
BRANCH  29  32
HETATM   32  C   UNL     1      19.735  49.646  48.510  1.00  0.00     0.249 C 
HETATM   33  N   UNL     1      19.863  50.928  48.056  1.00  0.00    -0.366 N 
HETATM   34  H   UNL     1      20.745  51.419  48.032  1.00  0.00     0.159 HD
HETATM   35  H   UNL     1      19.017  51.483  48.035  1.00  0.00     0.159 HD
HETATM   36  O   UNL     1      18.634  49.187  48.790  1.00  0.00    -0.268 OA
ENDBRANCH  29  32
ENDBRANCH  23  26
ENDBRANCH   3  22
TORSDOF 8
ENDMDL
