MODEL 1
REMARK VINA RESULT:      -9.9      0.000      0.000
REMARK  9 active torsions:
REMARK  status: ('A' for Active; 'I' for Inactive)
REMARK    1  A    between atoms: N_2  and  C_4 
REMARK    2  A    between atoms: C_4  and  C_5 
REMARK    3  A    between atoms: N_6  and  C_7 
REMARK    4  A    between atoms: C_11  and  N_12 
REMARK    5  A    between atoms: C_15  and  C_16 
REMARK       I    between atoms: C_16  and  N_17 
REMARK    6  A    between atoms: N_17  and  N_18 
REMARK    7  A    between atoms: C_19  and  C_20 
REMARK    8  A    between atoms: C_21  and  C_22 
REMARK    9  A    between atoms: N_29  and  C_30 
ROOT
HETATM    1  C   UNL     1      24.915  47.835  49.970  1.00  0.00     0.293 C 
HETATM    2  N   UNL     1      24.817  47.055  51.107  1.00  0.00    -0.242 N 
HETATM    3  O   UNL     1      25.937  48.047  49.324  1.00  0.00    -0.264 OA
HETATM    4  H   UNL     1      23.924  46.961  51.588  1.00  0.00     0.192 HD
ENDROOT
BRANCH   2   5
HETATM    5  N   UNL     1      25.934  46.451  51.605  1.00  0.00    -0.183 NA
HETATM    6  C   UNL     1      25.737  45.546  52.509  1.00  0.00     0.154 C 
BRANCH   6   7
HETATM    7  C   UNL     1      26.879  44.878  53.083  1.00  0.00     0.032 A 
HETATM    8  C   UNL     1      27.559  43.714  52.630  1.00  0.00     0.101 A 
HETATM    9  N   UNL     1      28.613  43.442  53.411  1.00  0.00    -0.166 NA
HETATM   10  N   UNL     1      28.600  44.374  54.393  1.00  0.00    -0.244 N 
HETATM   11  C   UNL     1      27.560  45.257  54.222  1.00  0.00     0.134 A 
BRANCH   8  12
HETATM   12  C   UNL     1      27.234  42.848  51.496  1.00  0.00    -0.005 A 
HETATM   13  C   UNL     1      27.052  43.399  50.220  1.00  0.00     0.014 A 
HETATM   14  C   UNL     1      26.749  42.579  49.132  1.00  0.00     0.001 A 
HETATM   15  C   UNL     1      26.631  41.201  49.307  1.00  0.00     0.000 A 
HETATM   16  C   UNL     1      26.826  40.640  50.568  1.00  0.00     0.001 A 
HETATM   17  C   UNL     1      27.131  41.458  51.657  1.00  0.00     0.014 A 
ENDBRANCH   8  12
BRANCH  10  18
HETATM   18  C   UNL     1      29.581  44.364  55.424  1.00  0.00     0.058 A 
HETATM   19  C   UNL     1      30.499  43.304  55.491  1.00  0.00     0.031 A 
HETATM   20  C   UNL     1      31.468  43.274  56.496  1.00  0.00     0.002 A 
HETATM   21  C   UNL     1      31.529  44.298  57.438  1.00  0.00     0.000 A 
HETATM   22  C   UNL     1      30.623  45.355  57.378  1.00  0.00     0.002 A 
HETATM   23  C   UNL     1      29.648  45.392  56.375  1.00  0.00     0.031 A 
ENDBRANCH  10  18
ENDBRANCH   6   7
ENDBRANCH   2   5
BRANCH   1  24
HETATM   24  C   UNL     1      23.656  48.443  49.563  1.00  0.00     0.170 A 
HETATM   25  C   UNL     1      22.592  47.813  48.934  1.00  0.00     0.096 A 
HETATM   26  N   UNL     1      21.615  48.801  48.839  1.00  0.00    -0.215 N 
HETATM   27  N   UNL     1      22.140  49.975  49.278  1.00  0.00     0.012 NA
HETATM   28  N   UNL     1      23.360  49.762  49.741  1.00  0.00    -0.152 NA
BRANCH  25  29
HETATM   29  C   UNL     1      22.494  46.448  48.365  1.00  0.00     0.295 C 
BRANCH  29  30
HETATM   30  N   UNL     1      21.853  45.420  49.263  1.00  0.00    -0.073 N 
HETATM   31  C   UNL     1      22.754  44.261  49.590  1.00  0.00     0.269 C 
HETATM   32  H   UNL     1      21.605  45.901  50.140  1.00  0.00     0.279 HD
HETATM   33  C   UNL     1      20.551  44.934  48.684  1.00  0.00     0.269 C 
ENDBRANCH  29  30
ENDBRANCH  25  29
BRANCH  26  34
HETATM   34  C   UNL     1      20.269  48.676  48.422  1.00  0.00     0.225 A 
HETATM   35  N   UNL     1      19.940  48.920  47.149  1.00  0.00    -0.081 NA
HETATM   36  O   UNL     1      18.563  48.678  47.114  1.00  0.00    -0.103 OA
HETATM   37  N   UNL     1      18.094  48.263  48.351  1.00  0.00    -0.083 NA
HETATM   38  C   UNL     1      19.151  48.258  49.163  1.00  0.00     0.201 A 
BRANCH  38  39
HETATM   39  N   UNL     1      19.114  47.913  50.459  1.00  0.00    -0.379 N 
HETATM   40  H   UNL     1      19.695  48.403  51.134  1.00  0.00     0.158 HD
HETATM   41  H   UNL     1      18.394  47.322  50.869  1.00  0.00     0.158 HD
ENDBRANCH  38  39
ENDBRANCH  26  34
ENDBRANCH   1  24
TORSDOF 9
ENDMDL
MODEL 2
REMARK VINA RESULT:      -9.3      2.082      4.940
REMARK  9 active torsions:
REMARK  status: ('A' for Active; 'I' for Inactive)
REMARK    1  A    between atoms: N_2  and  C_4 
REMARK    2  A    between atoms: C_4  and  C_5 
REMARK    3  A    between atoms: N_6  and  C_7 
REMARK    4  A    between atoms: C_11  and  N_12 
REMARK    5  A    between atoms: C_15  and  C_16 
REMARK       I    between atoms: C_16  and  N_17 
REMARK    6  A    between atoms: N_17  and  N_18 
REMARK    7  A    between atoms: C_19  and  C_20 
REMARK    8  A    between atoms: C_21  and  C_22 
REMARK    9  A    between atoms: N_29  and  C_30 
ROOT
HETATM    1  C   UNL     1      23.940  46.203  49.427  1.00  0.00     0.293 C 
HETATM    2  N   UNL     1      24.784  45.884  50.474  1.00  0.00    -0.242 N 
HETATM    3  O   UNL     1      23.583  45.446  48.528  1.00  0.00    -0.264 OA
HETATM    4  H   UNL     1      25.042  46.592  51.159  1.00  0.00     0.192 HD
ENDROOT
BRANCH   2   5
HETATM    5  N   UNL     1      25.305  44.625  50.556  1.00  0.00    -0.183 NA
HETATM    6  C   UNL     1      26.502  44.535  51.042  1.00  0.00     0.154 C 
BRANCH   6   7
HETATM    7  C   UNL     1      27.113  43.233  51.144  1.00  0.00     0.032 A 
HETATM    8  C   UNL     1      27.996  42.732  52.139  1.00  0.00     0.101 A 
HETATM    9  N   UNL     1      28.299  41.448  51.907  1.00  0.00    -0.166 NA
HETATM   10  N   UNL     1      27.672  41.120  50.752  1.00  0.00    -0.244 N 
HETATM   11  C   UNL     1      26.947  42.182  50.265  1.00  0.00     0.134 A 
BRANCH   8  12
HETATM   12  C   UNL     1      28.572  43.432  53.288  1.00  0.00    -0.005 A 
HETATM   13  C   UNL     1      27.890  44.510  53.869  1.00  0.00     0.014 A 
HETATM   14  C   UNL     1      28.429  45.179  54.969  1.00  0.00     0.001 A 
HETATM   15  C   UNL     1      29.651  44.774  55.503  1.00  0.00     0.000 A 
HETATM   16  C   UNL     1      30.331  43.693  54.944  1.00  0.00     0.001 A 
HETATM   17  C   UNL     1      29.792  43.021  53.844  1.00  0.00     0.014 A 
ENDBRANCH   8  12
BRANCH  10  18
HETATM   18  C   UNL     1      27.802  39.817  50.193  1.00  0.00     0.058 A 
HETATM   19  C   UNL     1      26.704  39.235  49.542  1.00  0.00     0.031 A 
HETATM   20  C   UNL     1      26.808  37.957  48.989  1.00  0.00     0.002 A 
HETATM   21  C   UNL     1      28.007  37.253  49.080  1.00  0.00     0.000 A 
HETATM   22  C   UNL     1      29.103  37.825  49.724  1.00  0.00     0.002 A 
HETATM   23  C   UNL     1      29.006  39.104  50.281  1.00  0.00     0.031 A 
ENDBRANCH  10  18
ENDBRANCH   6   7
ENDBRANCH   2   5
BRANCH   1  24
HETATM   24  C   UNL     1      23.478  47.584  49.443  1.00  0.00     0.170 A 
HETATM   25  C   UNL     1      22.266  48.062  48.968  1.00  0.00     0.096 A 
HETATM   26  N   UNL     1      22.280  49.417  49.290  1.00  0.00    -0.215 N 
HETATM   27  N   UNL     1      23.496  49.726  49.813  1.00  0.00     0.012 NA
HETATM   28  N   UNL     1      24.214  48.622  49.933  1.00  0.00    -0.152 NA
BRANCH  25  29
HETATM   29  C   UNL     1      21.210  47.375  48.186  1.00  0.00     0.295 C 
BRANCH  29  30
HETATM   30  N   UNL     1      20.171  46.652  49.005  1.00  0.00    -0.073 N 
HETATM   31  C   UNL     1      20.159  45.164  48.784  1.00  0.00     0.269 C 
HETATM   32  H   UNL     1      20.388  46.835  49.995  1.00  0.00     0.279 HD
HETATM   33  C   UNL     1      18.802  47.234  48.775  1.00  0.00     0.269 C 
ENDBRANCH  29  30
ENDBRANCH  25  29
BRANCH  26  34
HETATM   34  C   UNL     1      21.235  50.364  49.177  1.00  0.00     0.225 A 
HETATM   35  N   UNL     1      21.247  51.254  48.180  1.00  0.00    -0.081 NA
HETATM   36  O   UNL     1      20.073  51.988  48.381  1.00  0.00    -0.103 OA
HETATM   37  N   UNL     1      19.362  51.509  49.470  1.00  0.00    -0.083 NA
HETATM   38  C   UNL     1      20.079  50.500  49.964  1.00  0.00     0.201 A 
BRANCH  38  39
HETATM   39  N   UNL     1      19.729  49.767  51.031  1.00  0.00    -0.379 N 
HETATM   40  H   UNL     1      20.184  49.919  51.927  1.00  0.00     0.158 HD
HETATM   41  H   UNL     1      18.890  49.191  51.074  1.00  0.00     0.158 HD
ENDBRANCH  38  39
ENDBRANCH  26  34
ENDBRANCH   1  24
TORSDOF 9
ENDMDL
MODEL 3
REMARK VINA RESULT:      -9.1      1.561      2.854
REMARK  9 active torsions:
REMARK  status: ('A' for Active; 'I' for Inactive)
REMARK    1  A    between atoms: N_2  and  C_4 
REMARK    2  A    between atoms: C_4  and  C_5 
REMARK    3  A    between atoms: N_6  and  C_7 
REMARK    4  A    between atoms: C_11  and  N_12 
REMARK    5  A    between atoms: C_15  and  C_16 
REMARK       I    between atoms: C_16  and  N_17 
REMARK    6  A    between atoms: N_17  and  N_18 
REMARK    7  A    between atoms: C_19  and  C_20 
REMARK    8  A    between atoms: C_21  and  C_22 
REMARK    9  A    between atoms: N_29  and  C_30 
ROOT
HETATM    1  C   UNL     1      22.951  44.498  49.224  1.00  0.00     0.293 C 
HETATM    2  N   UNL     1      23.084  44.465  50.600  1.00  0.00    -0.242 N 
HETATM    3  O   UNL     1      23.758  44.061  48.409  1.00  0.00    -0.264 OA
HETATM    4  H   UNL     1      22.366  44.878  51.193  1.00  0.00     0.192 HD
ENDROOT
BRANCH   2   5
HETATM    5  N   UNL     1      24.204  43.916  51.153  1.00  0.00    -0.183 NA
HETATM    6  C   UNL     1      25.058  44.751  51.654  1.00  0.00     0.154 C 
BRANCH   6   7
HETATM    7  C   UNL     1      26.268  44.234  52.243  1.00  0.00     0.032 A 
HETATM    8  C   UNL     1      27.069  43.134  51.831  1.00  0.00     0.101 A 
HETATM    9  N   UNL     1      28.150  43.010  52.613  1.00  0.00    -0.166 NA
HETATM   10  N   UNL     1      28.039  43.974  53.557  1.00  0.00    -0.244 N 
HETATM   11  C   UNL     1      26.908  44.731  53.361  1.00  0.00     0.134 A 
BRANCH   8  12
HETATM   12  C   UNL     1      26.835  42.192  50.736  1.00  0.00    -0.005 A 
HETATM   13  C   UNL     1      26.472  40.867  51.014  1.00  0.00     0.014 A 
HETATM   14  C   UNL     1      26.241  39.964  49.975  1.00  0.00     0.001 A 
HETATM   15  C   UNL     1      26.366  40.377  48.649  1.00  0.00     0.000 A 
HETATM   16  C   UNL     1      26.711  41.696  48.361  1.00  0.00     0.001 A 
HETATM   17  C   UNL     1      26.939  42.602  49.398  1.00  0.00     0.014 A 
ENDBRANCH   8  12
BRANCH  10  18
HETATM   18  C   UNL     1      29.020  44.113  54.579  1.00  0.00     0.058 A 
HETATM   19  C   UNL     1      29.027  45.269  55.375  1.00  0.00     0.031 A 
HETATM   20  C   UNL     1      29.983  45.427  56.381  1.00  0.00     0.002 A 
HETATM   21  C   UNL     1      30.934  44.434  56.602  1.00  0.00     0.000 A 
HETATM   22  C   UNL     1      30.933  43.281  55.818  1.00  0.00     0.002 A 
HETATM   23  C   UNL     1      29.980  43.117  54.807  1.00  0.00     0.031 A 
ENDBRANCH  10  18
ENDBRANCH   6   7
ENDBRANCH   2   5
BRANCH   1  24
HETATM   24  C   UNL     1      21.724  45.134  48.766  1.00  0.00     0.170 A 
HETATM   25  C   UNL     1      21.593  46.414  48.246  1.00  0.00     0.096 A 
HETATM   26  N   UNL     1      20.249  46.504  47.890  1.00  0.00    -0.215 N 
HETATM   27  N   UNL     1      19.614  45.376  48.301  1.00  0.00     0.012 NA
HETATM   28  N   UNL     1      20.500  44.534  48.805  1.00  0.00    -0.152 NA
BRANCH  25  29
HETATM   29  C   UNL     1      22.581  47.516  48.168  1.00  0.00     0.295 C 
BRANCH  29  30
HETATM   30  N   UNL     1      22.870  48.214  49.473  1.00  0.00    -0.073 N 
HETATM   31  C   UNL     1      22.627  49.698  49.428  1.00  0.00     0.269 C 
HETATM   32  H   UNL     1      22.246  47.801  50.180  1.00  0.00     0.279 HD
HETATM   33  C   UNL     1      24.270  47.920  49.943  1.00  0.00     0.269 C 
ENDBRANCH  29  30
ENDBRANCH  25  29
BRANCH  26  34
HETATM   34  C   UNL     1      19.593  47.532  47.173  1.00  0.00     0.225 A 
HETATM   35  N   UNL     1      19.365  47.391  45.864  1.00  0.00    -0.081 NA
HETATM   36  O   UNL     1      18.695  48.569  45.518  1.00  0.00    -0.103 OA
HETATM   37  N   UNL     1      18.505  49.382  46.625  1.00  0.00    -0.083 NA
HETATM   38  C   UNL     1      19.058  48.739  47.653  1.00  0.00     0.201 A 
BRANCH  38  39
HETATM   39  N   UNL     1      19.084  49.199  48.913  1.00  0.00    -0.379 N 
HETATM   40  H   UNL     1      18.241  49.576  49.337  1.00  0.00     0.158 HD
HETATM   41  H   UNL     1      19.844  49.020  49.567  1.00  0.00     0.158 HD
ENDBRANCH  38  39
ENDBRANCH  26  34
ENDBRANCH   1  24
TORSDOF 9
ENDMDL
MODEL 4
REMARK VINA RESULT:      -9.0      3.849     10.078
REMARK  9 active torsions:
REMARK  status: ('A' for Active; 'I' for Inactive)
REMARK    1  A    between atoms: N_2  and  C_4 
REMARK    2  A    between atoms: C_4  and  C_5 
REMARK    3  A    between atoms: N_6  and  C_7 
REMARK    4  A    between atoms: C_11  and  N_12 
REMARK    5  A    between atoms: C_15  and  C_16 
REMARK       I    between atoms: C_16  and  N_17 
REMARK    6  A    between atoms: N_17  and  N_18 
REMARK    7  A    between atoms: C_19  and  C_20 
REMARK    8  A    between atoms: C_21  and  C_22 
REMARK    9  A    between atoms: N_29  and  C_30 
ROOT
HETATM    1  C   UNL     1      23.468  43.115  49.283  1.00  0.00     0.293 C 
HETATM    2  N   UNL     1      23.507  44.200  48.427  1.00  0.00    -0.242 N 
HETATM    3  O   UNL     1      23.062  43.122  50.442  1.00  0.00    -0.264 OA
HETATM    4  H   UNL     1      23.886  44.097  47.488  1.00  0.00     0.192 HD
ENDROOT
BRANCH   2   5
HETATM    5  N   UNL     1      23.077  45.417  48.868  1.00  0.00    -0.183 NA
HETATM    6  C   UNL     1      22.991  46.348  47.972  1.00  0.00     0.154 C 
BRANCH   6   7
HETATM    7  C   UNL     1      22.553  47.661  48.376  1.00  0.00     0.032 A 
HETATM    8  C   UNL     1      23.330  48.788  48.759  1.00  0.00     0.101 A 
HETATM    9  N   UNL     1      22.547  49.846  49.010  1.00  0.00    -0.166 NA
HETATM   10  N   UNL     1      21.274  49.414  48.850  1.00  0.00    -0.244 N 
HETATM   11  C   UNL     1      21.245  48.093  48.467  1.00  0.00     0.134 A 
BRANCH   8  12
HETATM   12  C   UNL     1      24.782  48.891  48.910  1.00  0.00    -0.005 A 
HETATM   13  C   UNL     1      25.488  49.904  48.247  1.00  0.00     0.014 A 
HETATM   14  C   UNL     1      26.872  50.013  48.390  1.00  0.00     0.001 A 
HETATM   15  C   UNL     1      27.563  49.114  49.201  1.00  0.00     0.000 A 
HETATM   16  C   UNL     1      26.870  48.113  49.878  1.00  0.00     0.001 A 
HETATM   17  C   UNL     1      25.485  48.003  49.738  1.00  0.00     0.014 A 
ENDBRANCH   8  12
BRANCH  10  18
HETATM   18  C   UNL     1      20.171  50.288  49.066  1.00  0.00     0.058 A 
HETATM   19  C   UNL     1      19.089  49.850  49.844  1.00  0.00     0.031 A 
HETATM   20  C   UNL     1      17.996  50.691  50.067  1.00  0.00     0.002 A 
HETATM   21  C   UNL     1      17.976  51.971  49.517  1.00  0.00     0.000 A 
HETATM   22  C   UNL     1      19.048  52.414  48.745  1.00  0.00     0.002 A 
HETATM   23  C   UNL     1      20.146  51.577  48.516  1.00  0.00     0.031 A 
ENDBRANCH  10  18
ENDBRANCH   6   7
ENDBRANCH   2   5
BRANCH   1  24
HETATM   24  C   UNL     1      23.981  41.884  48.698  1.00  0.00     0.170 A 
HETATM   25  C   UNL     1      25.282  41.408  48.768  1.00  0.00     0.096 A 
HETATM   26  N   UNL     1      25.231  40.172  48.127  1.00  0.00    -0.215 N 
HETATM   27  N   UNL     1      23.988  40.005  47.604  1.00  0.00     0.012 NA
HETATM   28  N   UNL     1      23.222  41.020  47.967  1.00  0.00    -0.152 NA
BRANCH  25  29
HETATM   29  C   UNL     1      26.509  42.060  49.284  1.00  0.00     0.295 C 
BRANCH  29  30
HETATM   30  N   UNL     1      26.781  41.852  50.752  1.00  0.00    -0.073 N 
HETATM   31  C   UNL     1      26.648  43.107  51.572  1.00  0.00     0.269 C 
HETATM   32  H   UNL     1      26.093  41.165  51.090  1.00  0.00     0.279 HD
HETATM   33  C   UNL     1      28.130  41.218  50.966  1.00  0.00     0.269 C 
ENDBRANCH  29  30
ENDBRANCH  25  29
BRANCH  26  34
HETATM   34  C   UNL     1      26.237  39.181  48.038  1.00  0.00     0.225 A 
HETATM   35  N   UNL     1      26.932  39.037  46.906  1.00  0.00    -0.081 NA
HETATM   36  O   UNL     1      27.825  38.000  47.199  1.00  0.00    -0.103 OA
HETATM   37  N   UNL     1      27.674  37.562  48.506  1.00  0.00    -0.083 NA
HETATM   38  C   UNL     1      26.691  38.295  49.029  1.00  0.00     0.201 A 
BRANCH  38  39
HETATM   39  N   UNL     1      26.239  38.175  50.286  1.00  0.00    -0.379 N 
HETATM   40  H   UNL     1      25.673  37.373  50.551  1.00  0.00     0.158 HD
HETATM   41  H   UNL     1      26.582  38.729  51.068  1.00  0.00     0.158 HD
ENDBRANCH  38  39
ENDBRANCH  26  34
ENDBRANCH   1  24
TORSDOF 9
ENDMDL
MODEL 5
REMARK VINA RESULT:      -8.6      2.299      5.093
REMARK  9 active torsions:
REMARK  status: ('A' for Active; 'I' for Inactive)
REMARK    1  A    between atoms: N_2  and  C_4 
REMARK    2  A    between atoms: C_4  and  C_5 
REMARK    3  A    between atoms: N_6  and  C_7 
REMARK    4  A    between atoms: C_11  and  N_12 
REMARK    5  A    between atoms: C_15  and  C_16 
REMARK       I    between atoms: C_16  and  N_17 
REMARK    6  A    between atoms: N_17  and  N_18 
REMARK    7  A    between atoms: C_19  and  C_20 
REMARK    8  A    between atoms: C_21  and  C_22 
REMARK    9  A    between atoms: N_29  and  C_30 
ROOT
HETATM    1  C   UNL     1      22.592  47.899  48.821  1.00  0.00     0.293 C 
HETATM    2  N   UNL     1      23.491  47.804  49.868  1.00  0.00    -0.242 N 
HETATM    3  O   UNL     1      22.456  47.089  47.909  1.00  0.00    -0.264 OA
HETATM    4  H   UNL     1      23.545  48.544  50.565  1.00  0.00     0.192 HD
ENDROOT
BRANCH   2   5
HETATM    5  N   UNL     1      24.336  46.735  49.931  1.00  0.00    -0.183 NA
HETATM    6  C   UNL     1      24.779  46.429  51.108  1.00  0.00     0.154 C 
BRANCH   6   7
HETATM    7  C   UNL     1      25.685  45.315  51.240  1.00  0.00     0.032 A 
HETATM    8  C   UNL     1      26.598  45.021  52.289  1.00  0.00     0.101 A 
HETATM    9  N   UNL     1      27.223  43.857  52.067  1.00  0.00    -0.166 NA
HETATM   10  N   UNL     1      26.773  43.415  50.868  1.00  0.00    -0.244 N 
HETATM   11  C   UNL     1      25.841  44.278  50.342  1.00  0.00     0.134 A 
BRANCH   8  12
HETATM   12  C   UNL     1      26.909  45.811  53.481  1.00  0.00    -0.005 A 
HETATM   13  C   UNL     1      26.188  46.982  53.755  1.00  0.00     0.014 A 
HETATM   14  C   UNL     1      26.473  47.738  54.893  1.00  0.00     0.001 A 
HETATM   15  C   UNL     1      27.476  47.329  55.771  1.00  0.00     0.000 A 
HETATM   16  C   UNL     1      28.188  46.158  55.518  1.00  0.00     0.001 A 
HETATM   17  C   UNL     1      27.903  45.399  54.381  1.00  0.00     0.014 A 
ENDBRANCH   8  12
BRANCH  10  18
HETATM   18  C   UNL     1      27.256  42.199  50.308  1.00  0.00     0.058 A 
HETATM   19  C   UNL     1      27.087  41.959  48.936  1.00  0.00     0.031 A 
HETATM   20  C   UNL     1      27.551  40.771  48.366  1.00  0.00     0.002 A 
HETATM   21  C   UNL     1      28.187  39.818  49.159  1.00  0.00     0.000 A 
HETATM   22  C   UNL     1      28.361  40.050  50.522  1.00  0.00     0.002 A 
HETATM   23  C   UNL     1      27.897  41.236  51.101  1.00  0.00     0.031 A 
ENDBRANCH  10  18
ENDBRANCH   6   7
ENDBRANCH   2   5
BRANCH   1  24
HETATM   24  C   UNL     1      21.770  49.101  48.858  1.00  0.00     0.170 A 
HETATM   25  C   UNL     1      20.391  49.162  48.993  1.00  0.00     0.096 A 
HETATM   26  N   UNL     1      20.112  50.526  49.054  1.00  0.00    -0.215 N 
HETATM   27  N   UNL     1      21.263  51.215  48.837  1.00  0.00     0.012 NA
HETATM   28  N   UNL     1      22.271  50.364  48.745  1.00  0.00    -0.152 NA
BRANCH  25  29
HETATM   29  C   UNL     1      19.381  48.077  48.967  1.00  0.00     0.295 C 
BRANCH  29  30
HETATM   30  N   UNL     1      19.306  47.298  47.679  1.00  0.00    -0.073 N 
HETATM   31  C   UNL     1      18.373  47.901  46.665  1.00  0.00     0.269 C 
HETATM   32  H   UNL     1      20.256  47.283  47.282  1.00  0.00     0.279 HD
HETATM   33  C   UNL     1      18.950  45.858  47.939  1.00  0.00     0.269 C 
ENDBRANCH  29  30
ENDBRANCH  25  29
BRANCH  26  34
HETATM   34  C   UNL     1      18.883  51.164  49.341  1.00  0.00     0.225 A 
HETATM   35  N   UNL     1      18.112  50.709  50.334  1.00  0.00    -0.081 NA
HETATM   36  O   UNL     1      17.020  51.584  50.330  1.00  0.00    -0.103 OA
HETATM   37  N   UNL     1      17.168  52.565  49.362  1.00  0.00    -0.083 NA
HETATM   38  C   UNL     1      18.323  52.309  48.749  1.00  0.00     0.201 A 
BRANCH  38  39
HETATM   39  N   UNL     1      18.830  53.036  47.742  1.00  0.00    -0.379 N 
HETATM   40  H   UNL     1      19.816  52.966  47.508  1.00  0.00     0.158 HD
HETATM   41  H   UNL     1      18.262  53.518  47.048  1.00  0.00     0.158 HD
ENDBRANCH  38  39
ENDBRANCH  26  34
ENDBRANCH   1  24
TORSDOF 9
ENDMDL
MODEL 6
REMARK VINA RESULT:      -8.5      5.359      8.803
REMARK  9 active torsions:
REMARK  status: ('A' for Active; 'I' for Inactive)
REMARK    1  A    between atoms: N_2  and  C_4 
REMARK    2  A    between atoms: C_4  and  C_5 
REMARK    3  A    between atoms: N_6  and  C_7 
REMARK    4  A    between atoms: C_11  and  N_12 
REMARK    5  A    between atoms: C_15  and  C_16 
REMARK       I    between atoms: C_16  and  N_17 
REMARK    6  A    between atoms: N_17  and  N_18 
REMARK    7  A    between atoms: C_19  and  C_20 
REMARK    8  A    between atoms: C_21  and  C_22 
REMARK    9  A    between atoms: N_29  and  C_30 
ROOT
HETATM    1  C   UNL     1      27.457  40.728  48.818  1.00  0.00     0.293 C 
HETATM    2  N   UNL     1      27.727  40.459  50.147  1.00  0.00    -0.242 N 
HETATM    3  O   UNL     1      27.637  41.798  48.245  1.00  0.00    -0.264 OA
HETATM    4  H   UNL     1      27.519  39.541  50.536  1.00  0.00     0.192 HD
ENDROOT
BRANCH   2   5
HETATM    5  N   UNL     1      28.233  41.446  50.941  1.00  0.00    -0.183 NA
HETATM    6  C   UNL     1      27.626  41.635  52.069  1.00  0.00     0.154 C 
BRANCH   6   7
HETATM    7  C   UNL     1      28.105  42.671  52.949  1.00  0.00     0.032 A 
HETATM    8  C   UNL     1      27.806  44.061  52.946  1.00  0.00     0.101 A 
HETATM    9  N   UNL     1      28.410  44.684  53.967  1.00  0.00    -0.166 NA
HETATM   10  N   UNL     1      29.139  43.735  54.602  1.00  0.00    -0.244 N 
HETATM   11  C   UNL     1      28.976  42.506  54.008  1.00  0.00     0.134 A 
BRANCH   8  12
HETATM   12  C   UNL     1      26.983  44.817  52.001  1.00  0.00    -0.005 A 
HETATM   13  C   UNL     1      27.269  44.776  50.630  1.00  0.00     0.014 A 
HETATM   14  C   UNL     1      26.485  45.489  49.721  1.00  0.00     0.001 A 
HETATM   15  C   UNL     1      25.405  46.245  50.174  1.00  0.00     0.000 A 
HETATM   16  C   UNL     1      25.101  46.281  51.533  1.00  0.00     0.001 A 
HETATM   17  C   UNL     1      25.882  45.566  52.443  1.00  0.00     0.014 A 
ENDBRANCH   8  12
BRANCH  10  18
HETATM   18  C   UNL     1      29.937  44.062  55.735  1.00  0.00     0.058 A 
HETATM   19  C   UNL     1      29.680  45.250  56.437  1.00  0.00     0.031 A 
HETATM   20  C   UNL     1      30.452  45.592  57.550  1.00  0.00     0.002 A 
HETATM   21  C   UNL     1      31.482  44.753  57.969  1.00  0.00     0.000 A 
HETATM   22  C   UNL     1      31.742  43.570  57.278  1.00  0.00     0.002 A 
HETATM   23  C   UNL     1      30.974  43.222  56.162  1.00  0.00     0.031 A 
ENDBRANCH  10  18
ENDBRANCH   6   7
ENDBRANCH   2   5
BRANCH   1  24
HETATM   24  C   UNL     1      26.896  39.597  48.091  1.00  0.00     0.170 A 
HETATM   25  C   UNL     1      27.494  38.363  47.880  1.00  0.00     0.096 A 
HETATM   26  N   UNL     1      26.524  37.621  47.211  1.00  0.00    -0.215 N 
HETATM   27  N   UNL     1      25.467  38.431  46.940  1.00  0.00     0.012 NA
HETATM   28  N   UNL     1      25.672  39.616  47.490  1.00  0.00    -0.152 NA
BRANCH  25  29
HETATM   29  C   UNL     1      28.876  37.912  48.167  1.00  0.00     0.295 C 
BRANCH  29  30
HETATM   30  N   UNL     1      29.049  37.141  49.451  1.00  0.00    -0.073 N 
HETATM   31  C   UNL     1      27.753  36.861  50.162  1.00  0.00     0.269 C 
HETATM   32  H   UNL     1      29.489  36.243  49.205  1.00  0.00     0.279 HD
HETATM   33  C   UNL     1      30.020  37.834  50.370  1.00  0.00     0.269 C 
ENDBRANCH  29  30
ENDBRANCH  25  29
BRANCH  26  34
HETATM   34  C   UNL     1      26.535  36.245  46.882  1.00  0.00     0.225 A 
HETATM   35  N   UNL     1      25.767  35.390  47.566  1.00  0.00    -0.081 NA
HETATM   36  O   UNL     1      26.024  34.158  46.956  1.00  0.00    -0.103 OA
HETATM   37  N   UNL     1      26.912  34.296  45.900  1.00  0.00    -0.083 NA
HETATM   38  C   UNL     1      27.228  35.590  45.850  1.00  0.00     0.201 A 
BRANCH  38  39
HETATM   39  N   UNL     1      28.069  36.135  44.959  1.00  0.00    -0.379 N 
HETATM   40  H   UNL     1      27.767  36.916  44.383  1.00  0.00     0.158 HD
HETATM   41  H   UNL     1      29.072  35.960  44.944  1.00  0.00     0.158 HD
ENDBRANCH  38  39
ENDBRANCH  26  34
ENDBRANCH   1  24
TORSDOF 9
ENDMDL
MODEL 7
REMARK VINA RESULT:      -8.4      5.202      7.993
REMARK  9 active torsions:
REMARK  status: ('A' for Active; 'I' for Inactive)
REMARK    1  A    between atoms: N_2  and  C_4 
REMARK    2  A    between atoms: C_4  and  C_5 
REMARK    3  A    between atoms: N_6  and  C_7 
REMARK    4  A    between atoms: C_11  and  N_12 
REMARK    5  A    between atoms: C_15  and  C_16 
REMARK       I    between atoms: C_16  and  N_17 
REMARK    6  A    between atoms: N_17  and  N_18 
REMARK    7  A    between atoms: C_19  and  C_20 
REMARK    8  A    between atoms: C_21  and  C_22 
REMARK    9  A    between atoms: N_29  and  C_30 
ROOT
HETATM    1  C   UNL     1      27.393  39.913  50.342  1.00  0.00     0.293 C 
HETATM    2  N   UNL     1      28.611  40.373  50.808  1.00  0.00    -0.242 N 
HETATM    3  O   UNL     1      26.295  40.135  50.846  1.00  0.00    -0.264 OA
HETATM    4  H   UNL     1      29.472  40.113  50.331  1.00  0.00     0.192 HD
ENDROOT
BRANCH   2   5
HETATM    5  N   UNL     1      28.652  41.138  51.937  1.00  0.00    -0.183 NA
HETATM    6  C   UNL     1      28.677  42.419  51.755  1.00  0.00     0.154 C 
BRANCH   6   7
HETATM    7  C   UNL     1      28.732  43.283  52.908  1.00  0.00     0.032 A 
HETATM    8  C   UNL     1      27.870  44.355  53.268  1.00  0.00     0.101 A 
HETATM    9  N   UNL     1      28.224  44.877  54.450  1.00  0.00    -0.166 NA
HETATM   10  N   UNL     1      29.331  44.200  54.840  1.00  0.00    -0.244 N 
HETATM   11  C   UNL     1      29.664  43.229  53.925  1.00  0.00     0.134 A 
BRANCH   8  12
HETATM   12  C   UNL     1      26.738  44.908  52.525  1.00  0.00    -0.005 A 
HETATM   13  C   UNL     1      26.559  46.296  52.448  1.00  0.00     0.014 A 
HETATM   14  C   UNL     1      25.485  46.833  51.735  1.00  0.00     0.001 A 
HETATM   15  C   UNL     1      24.584  45.989  51.088  1.00  0.00     0.000 A 
HETATM   16  C   UNL     1      24.761  44.608  51.144  1.00  0.00     0.001 A 
HETATM   17  C   UNL     1      25.836  44.069  51.855  1.00  0.00     0.014 A 
ENDBRANCH   8  12
BRANCH  10  18
HETATM   18  C   UNL     1      29.993  44.520  56.059  1.00  0.00     0.058 A 
HETATM   19  C   UNL     1      29.575  45.639  56.795  1.00  0.00     0.031 A 
HETATM   20  C   UNL     1      30.213  45.973  57.992  1.00  0.00     0.002 A 
HETATM   21  C   UNL     1      31.267  45.193  58.463  1.00  0.00     0.000 A 
HETATM   22  C   UNL     1      31.686  44.079  57.738  1.00  0.00     0.002 A 
HETATM   23  C   UNL     1      31.054  43.739  56.538  1.00  0.00     0.031 A 
ENDBRANCH  10  18
ENDBRANCH   6   7
ENDBRANCH   2   5
BRANCH   1  24
HETATM   24  C   UNL     1      27.493  39.087  49.148  1.00  0.00     0.170 A 
HETATM   25  C   UNL     1      26.949  39.356  47.900  1.00  0.00     0.096 A 
HETATM   26  N   UNL     1      27.396  38.310  47.096  1.00  0.00    -0.215 N 
HETATM   27  N   UNL     1      28.060  37.417  47.876  1.00  0.00     0.012 NA
HETATM   28  N   UNL     1      28.145  37.890  49.108  1.00  0.00    -0.152 NA
BRANCH  25  29
HETATM   29  C   UNL     1      26.010  40.423  47.480  1.00  0.00     0.295 C 
BRANCH  29  30
HETATM   30  N   UNL     1      24.612  40.305  48.033  1.00  0.00    -0.073 N 
HETATM   31  C   UNL     1      23.605  39.826  47.023  1.00  0.00     0.269 C 
HETATM   32  H   UNL     1      24.651  39.624  48.805  1.00  0.00     0.279 HD
HETATM   33  C   UNL     1      24.166  41.602  48.654  1.00  0.00     0.269 C 
ENDBRANCH  29  30
ENDBRANCH  25  29
BRANCH  26  34
HETATM   34  C   UNL     1      27.272  38.156  45.696  1.00  0.00     0.225 A 
HETATM   35  N   UNL     1      28.234  38.610  44.887  1.00  0.00    -0.081 NA
HETATM   36  O   UNL     1      27.780  38.267  43.610  1.00  0.00    -0.103 OA
HETATM   37  N   UNL     1      26.573  37.587  43.673  1.00  0.00    -0.083 NA
HETATM   38  C   UNL     1      26.258  37.514  44.965  1.00  0.00     0.201 A 
BRANCH  38  39
HETATM   39  N   UNL     1      25.153  36.926  45.448  1.00  0.00    -0.379 N 
HETATM   40  H   UNL     1      24.874  37.077  46.414  1.00  0.00     0.158 HD
HETATM   41  H   UNL     1      24.442  36.488  44.865  1.00  0.00     0.158 HD
ENDBRANCH  38  39
ENDBRANCH  26  34
ENDBRANCH   1  24
TORSDOF 9
ENDMDL
MODEL 8
REMARK VINA RESULT:      -8.4     13.880     15.033
REMARK  9 active torsions:
REMARK  status: ('A' for Active; 'I' for Inactive)
REMARK    1  A    between atoms: N_2  and  C_4 
REMARK    2  A    between atoms: C_4  and  C_5 
REMARK    3  A    between atoms: N_6  and  C_7 
REMARK    4  A    between atoms: C_11  and  N_12 
REMARK    5  A    between atoms: C_15  and  C_16 
REMARK       I    between atoms: C_16  and  N_17 
REMARK    6  A    between atoms: N_17  and  N_18 
REMARK    7  A    between atoms: C_19  and  C_20 
REMARK    8  A    between atoms: C_21  and  C_22 
REMARK    9  A    between atoms: N_29  and  C_30 
ROOT
HETATM    1  C   UNL     1      32.511  51.110  43.656  1.00  0.00     0.293 C 
HETATM    2  N   UNL     1      33.716  51.301  43.006  1.00  0.00    -0.242 N 
HETATM    3  O   UNL     1      32.233  51.487  44.791  1.00  0.00    -0.264 OA
HETATM    4  H   UNL     1      33.858  50.927  42.070  1.00  0.00     0.192 HD
ENDROOT
BRANCH   2   5
HETATM    5  N   UNL     1      34.728  51.954  43.648  1.00  0.00    -0.183 NA
HETATM    6  C   UNL     1      35.852  52.029  43.010  1.00  0.00     0.154 C 
BRANCH   6   7
HETATM    7  C   UNL     1      36.964  52.697  43.639  1.00  0.00     0.032 A 
HETATM    8  C   UNL     1      37.903  53.602  43.074  1.00  0.00     0.101 A 
HETATM    9  N   UNL     1      38.755  54.051  44.005  1.00  0.00    -0.166 NA
HETATM   10  N   UNL     1      38.421  53.415  45.153  1.00  0.00    -0.244 N 
HETATM   11  C   UNL     1      37.340  52.586  44.962  1.00  0.00     0.134 A 
BRANCH   8  12
HETATM   12  C   UNL     1      38.029  54.040  41.683  1.00  0.00    -0.005 A 
HETATM   13  C   UNL     1      37.132  54.982  41.159  1.00  0.00     0.014 A 
HETATM   14  C   UNL     1      37.249  55.411  39.836  1.00  0.00     0.001 A 
HETATM   15  C   UNL     1      38.266  54.908  39.026  1.00  0.00     0.000 A 
HETATM   16  C   UNL     1      39.174  53.984  39.541  1.00  0.00     0.001 A 
HETATM   17  C   UNL     1      39.060  53.555  40.865  1.00  0.00     0.014 A 
ENDBRANCH   8  12
BRANCH  10  18
HETATM   18  C   UNL     1      39.150  53.642  46.354  1.00  0.00     0.058 A 
HETATM   19  C   UNL     1      40.506  53.997  46.280  1.00  0.00     0.031 A 
HETATM   20  C   UNL     1      41.240  54.222  47.446  1.00  0.00     0.002 A 
HETATM   21  C   UNL     1      40.629  54.097  48.692  1.00  0.00     0.000 A 
HETATM   22  C   UNL     1      39.282  53.747  48.774  1.00  0.00     0.002 A 
HETATM   23  C   UNL     1      38.540  53.518  47.611  1.00  0.00     0.031 A 
ENDBRANCH  10  18
ENDBRANCH   6   7
ENDBRANCH   2   5
BRANCH   1  24
HETATM   24  C   UNL     1      31.528  50.376  42.871  1.00  0.00     0.170 A 
HETATM   25  C   UNL     1      30.618  50.907  41.969  1.00  0.00     0.096 A 
HETATM   26  N   UNL     1      29.975  49.794  41.433  1.00  0.00    -0.215 N 
HETATM   27  N   UNL     1      30.409  48.685  42.088  1.00  0.00     0.012 NA
HETATM   28  N   UNL     1      31.364  49.024  42.937  1.00  0.00    -0.152 NA
BRANCH  25  29
HETATM   29  C   UNL     1      30.275  52.320  41.681  1.00  0.00     0.295 C 
BRANCH  29  30
HETATM   30  N   UNL     1      31.390  53.147  41.093  1.00  0.00    -0.073 N 
HETATM   31  C   UNL     1      30.966  54.536  40.700  1.00  0.00     0.269 C 
HETATM   32  H   UNL     1      32.122  53.219  41.813  1.00  0.00     0.279 HD
HETATM   33  C   UNL     1      32.031  52.437  39.929  1.00  0.00     0.269 C 
ENDBRANCH  29  30
ENDBRANCH  25  29
BRANCH  26  34
HETATM   34  C   UNL     1      29.059  49.735  40.356  1.00  0.00     0.225 A 
HETATM   35  N   UNL     1      29.474  50.001  39.114  1.00  0.00    -0.081 NA
HETATM   36  O   UNL     1      28.323  49.825  38.338  1.00  0.00    -0.103 OA
HETATM   37  N   UNL     1      27.248  49.427  39.119  1.00  0.00    -0.083 NA
HETATM   38  C   UNL     1      27.703  49.368  40.370  1.00  0.00     0.201 A 
BRANCH  38  39
HETATM   39  N   UNL     1      26.964  49.019  41.434  1.00  0.00    -0.379 N 
HETATM   40  H   UNL     1      26.293  49.674  41.827  1.00  0.00     0.158 HD
HETATM   41  H   UNL     1      26.871  48.063  41.772  1.00  0.00     0.158 HD
ENDBRANCH  38  39
ENDBRANCH  26  34
ENDBRANCH   1  24
TORSDOF 9
ENDMDL
MODEL 9
REMARK VINA RESULT:      -8.3      2.081      3.064
REMARK  9 active torsions:
REMARK  status: ('A' for Active; 'I' for Inactive)
REMARK    1  A    between atoms: N_2  and  C_4 
REMARK    2  A    between atoms: C_4  and  C_5 
REMARK    3  A    between atoms: N_6  and  C_7 
REMARK    4  A    between atoms: C_11  and  N_12 
REMARK    5  A    between atoms: C_15  and  C_16 
REMARK       I    between atoms: C_16  and  N_17 
REMARK    6  A    between atoms: N_17  and  N_18 
REMARK    7  A    between atoms: C_19  and  C_20 
REMARK    8  A    between atoms: C_21  and  C_22 
REMARK    9  A    between atoms: N_29  and  C_30 
ROOT
HETATM    1  C   UNL     1      23.395  48.126  49.486  1.00  0.00     0.293 C 
HETATM    2  N   UNL     1      23.293  46.761  49.291  1.00  0.00    -0.242 N 
HETATM    3  O   UNL     1      24.125  48.688  50.297  1.00  0.00    -0.264 OA
HETATM    4  H   UNL     1      22.636  46.390  48.606  1.00  0.00     0.192 HD
ENDROOT
BRANCH   2   5
HETATM    5  N   UNL     1      24.044  45.916  50.055  1.00  0.00    -0.183 NA
HETATM    6  C   UNL     1      25.159  45.517  49.533  1.00  0.00     0.154 C 
BRANCH   6   7
HETATM    7  C   UNL     1      25.993  44.614  50.286  1.00  0.00     0.032 A 
HETATM    8  C   UNL     1      26.147  43.208  50.148  1.00  0.00     0.101 A 
HETATM    9  N   UNL     1      27.064  42.740  51.005  1.00  0.00    -0.166 NA
HETATM   10  N   UNL     1      27.472  43.807  51.734  1.00  0.00    -0.244 N 
HETATM   11  C   UNL     1      26.839  44.956  51.323  1.00  0.00     0.134 A 
BRANCH   8  12
HETATM   12  C   UNL     1      25.444  42.295  49.246  1.00  0.00    -0.005 A 
HETATM   13  C   UNL     1      26.168  41.489  48.357  1.00  0.00     0.014 A 
HETATM   14  C   UNL     1      25.507  40.610  47.498  1.00  0.00     0.001 A 
HETATM   15  C   UNL     1      24.115  40.524  47.523  1.00  0.00     0.000 A 
HETATM   16  C   UNL     1      23.385  41.308  48.414  1.00  0.00     0.001 A 
HETATM   17  C   UNL     1      24.046  42.186  49.276  1.00  0.00     0.014 A 
ENDBRANCH   8  12
BRANCH  10  18
HETATM   18  C   UNL     1      28.439  43.660  52.768  1.00  0.00     0.058 A 
HETATM   19  C   UNL     1      29.504  42.763  52.592  1.00  0.00     0.031 A 
HETATM   20  C   UNL     1      30.462  42.602  53.595  1.00  0.00     0.002 A 
HETATM   21  C   UNL     1      30.366  43.333  54.777  1.00  0.00     0.000 A 
HETATM   22  C   UNL     1      29.312  44.227  54.959  1.00  0.00     0.002 A 
HETATM   23  C   UNL     1      28.347  44.393  53.960  1.00  0.00     0.031 A 
ENDBRANCH  10  18
ENDBRANCH   6   7
ENDBRANCH   2   5
BRANCH   1  24
HETATM   24  C   UNL     1      22.521  48.911  48.625  1.00  0.00     0.170 A 
HETATM   25  C   UNL     1      21.181  49.202  48.842  1.00  0.00     0.096 A 
HETATM   26  N   UNL     1      20.835  50.039  47.784  1.00  0.00    -0.215 N 
HETATM   27  N   UNL     1      21.892  50.122  46.933  1.00  0.00     0.012 NA
HETATM   28  N   UNL     1      22.919  49.467  47.446  1.00  0.00    -0.152 NA
BRANCH  25  29
HETATM   29  C   UNL     1      20.248  48.684  49.871  1.00  0.00     0.295 C 
BRANCH  29  30
HETATM   30  N   UNL     1      19.415  47.501  49.447  1.00  0.00    -0.073 N 
HETATM   31  C   UNL     1      19.897  46.849  48.180  1.00  0.00     0.269 C 
HETATM   32  H   UNL     1      19.463  46.811  50.209  1.00  0.00     0.279 HD
HETATM   33  C   UNL     1      17.962  47.879  49.330  1.00  0.00     0.269 C 
ENDBRANCH  29  30
ENDBRANCH  25  29
BRANCH  26  34
HETATM   34  C   UNL     1      19.635  50.760  47.584  1.00  0.00     0.225 A 
HETATM   35  N   UNL     1      19.430  51.906  48.240  1.00  0.00    -0.081 NA
HETATM   36  O   UNL     1      18.178  52.328  47.780  1.00  0.00    -0.103 OA
HETATM   37  N   UNL     1      17.668  51.450  46.836  1.00  0.00    -0.083 NA
HETATM   38  C   UNL     1      18.571  50.478  46.711  1.00  0.00     0.201 A 
BRANCH  38  39
HETATM   39  N   UNL     1      18.450  49.426  45.887  1.00  0.00    -0.379 N 
HETATM   40  H   UNL     1      17.921  49.512  45.023  1.00  0.00     0.158 HD
HETATM   41  H   UNL     1      19.017  48.583  45.955  1.00  0.00     0.158 HD
ENDBRANCH  38  39
ENDBRANCH  26  34
ENDBRANCH   1  24
TORSDOF 9
ENDMDL
MODEL 10
REMARK VINA RESULT:      -8.2      3.476     11.088
REMARK  9 active torsions:
REMARK  status: ('A' for Active; 'I' for Inactive)
REMARK    1  A    between atoms: N_2  and  C_4 
REMARK    2  A    between atoms: C_4  and  C_5 
REMARK    3  A    between atoms: N_6  and  C_7 
REMARK    4  A    between atoms: C_11  and  N_12 
REMARK    5  A    between atoms: C_15  and  C_16 
REMARK       I    between atoms: C_16  and  N_17 
REMARK    6  A    between atoms: N_17  and  N_18 
REMARK    7  A    between atoms: C_19  and  C_20 
REMARK    8  A    between atoms: C_21  and  C_22 
REMARK    9  A    between atoms: N_29  and  C_30 
ROOT
HETATM    1  C   UNL     1      22.927  48.138  48.813  1.00  0.00     0.293 C 
HETATM    2  N   UNL     1      22.225  49.022  49.610  1.00  0.00    -0.242 N 
HETATM    3  O   UNL     1      22.643  47.818  47.663  1.00  0.00    -0.264 OA
HETATM    4  H   UNL     1      22.529  49.204  50.565  1.00  0.00     0.192 HD
ENDROOT
BRANCH   2   5
HETATM    5  N   UNL     1      21.095  49.613  49.123  1.00  0.00    -0.183 NA
HETATM    6  C   UNL     1      19.976  49.204  49.628  1.00  0.00     0.154 C 
BRANCH   6   7
HETATM    7  C   UNL     1      18.746  49.782  49.147  1.00  0.00     0.032 A 
HETATM    8  C   UNL     1      17.856  49.296  48.150  1.00  0.00     0.101 A 
HETATM    9  N   UNL     1      16.788  50.097  48.030  1.00  0.00    -0.166 NA
HETATM   10  N   UNL     1      16.993  51.121  48.893  1.00  0.00    -0.244 N 
HETATM   11  C   UNL     1      18.171  50.959  49.582  1.00  0.00     0.134 A 
BRANCH   8  12
HETATM   12  C   UNL     1      17.992  48.114  47.299  1.00  0.00    -0.005 A 
HETATM   13  C   UNL     1      17.300  46.937  47.617  1.00  0.00     0.014 A 
HETATM   14  C   UNL     1      17.419  45.805  46.808  1.00  0.00     0.001 A 
HETATM   15  C   UNL     1      18.225  45.841  45.671  1.00  0.00     0.000 A 
HETATM   16  C   UNL     1      18.905  47.011  45.336  1.00  0.00     0.001 A 
HETATM   17  C   UNL     1      18.785  48.144  46.143  1.00  0.00     0.014 A 
ENDBRANCH   8  12
BRANCH  10  18
HETATM   18  C   UNL     1      16.050  52.182  49.005  1.00  0.00     0.058 A 
HETATM   19  C   UNL     1      15.815  52.764  50.261  1.00  0.00     0.031 A 
HETATM   20  C   UNL     1      14.892  53.803  50.394  1.00  0.00     0.002 A 
HETATM   21  C   UNL     1      14.200  54.270  49.279  1.00  0.00     0.000 A 
HETATM   22  C   UNL     1      14.429  53.699  48.028  1.00  0.00     0.002 A 
HETATM   23  C   UNL     1      15.350  52.656  47.886  1.00  0.00     0.031 A 
ENDBRANCH  10  18
ENDBRANCH   6   7
ENDBRANCH   2   5
BRANCH   1  24
HETATM   24  C   UNL     1      24.094  47.558  49.464  1.00  0.00     0.170 A 
HETATM   25  C   UNL     1      24.350  46.210  49.667  1.00  0.00     0.096 A 
HETATM   26  N   UNL     1      25.616  46.184  50.248  1.00  0.00    -0.215 N 
HETATM   27  N   UNL     1      26.012  47.463  50.482  1.00  0.00     0.012 NA
HETATM   28  N   UNL     1      25.113  48.297  49.988  1.00  0.00    -0.152 NA
BRANCH  25  29
HETATM   29  C   UNL     1      23.479  45.030  49.450  1.00  0.00     0.295 C 
BRANCH  29  30
HETATM   30  N   UNL     1      23.873  44.142  48.297  1.00  0.00    -0.073 N 
HETATM   31  C   UNL     1      23.055  44.369  47.056  1.00  0.00     0.269 C 
HETATM   32  H   UNL     1      24.859  44.349  48.082  1.00  0.00     0.279 HD
HETATM   33  C   UNL     1      23.839  42.691  48.698  1.00  0.00     0.269 C 
ENDBRANCH  29  30
ENDBRANCH  25  29
BRANCH  26  34
HETATM   34  C   UNL     1      26.438  45.067  50.528  1.00  0.00     0.225 A 
HETATM   35  N   UNL     1      26.902  44.314  49.526  1.00  0.00    -0.081 NA
HETATM   36  O   UNL     1      27.673  43.343  50.175  1.00  0.00    -0.103 OA
HETATM   37  N   UNL     1      27.685  43.546  51.546  1.00  0.00    -0.083 NA
HETATM   38  C   UNL     1      26.922  44.616  51.768  1.00  0.00     0.201 A 
BRANCH  38  39
HETATM   39  N   UNL     1      26.678  45.141  52.978  1.00  0.00    -0.379 N 
HETATM   40  H   UNL     1      26.355  44.546  53.737  1.00  0.00     0.158 HD
HETATM   41  H   UNL     1      26.980  46.069  53.266  1.00  0.00     0.158 HD
ENDBRANCH  38  39
ENDBRANCH  26  34
ENDBRANCH   1  24
TORSDOF 9
ENDMDL
