MODEL 1
REMARK VINA RESULT:      -9.4      0.000      0.000
REMARK  7 active torsions:
REMARK  status: ('A' for Active; 'I' for Inactive)
REMARK    1  A    between atoms: C_4  and  C_5 
REMARK    2  A    between atoms: C_5  and  N_6 
REMARK       I    between atoms: N_6  and  C_7 
REMARK       I    between atoms: C_7  and  N_8 
REMARK    3  A    between atoms: N_8  and  C_9 
REMARK    4  A    between atoms: C_9  and  C_10 
REMARK    5  A    between atoms: C_12  and  O_13 
REMARK    6  A    between atoms: O_13  and  C_14 
REMARK    7  A    between atoms: C_23  and  O_24 
ROOT
HETATM    1  N   UNL     1      26.121  45.056  52.479  1.00  0.00    -0.335 N 
HETATM    2  C   UNL     1      24.999  45.233  51.736  1.00  0.00     0.316 C 
HETATM    3  N   UNL     1      24.961  46.334  50.946  1.00  0.00    -0.339 N 
HETATM    4  O   UNL     1      24.036  44.474  51.723  1.00  0.00    -0.247 OA
HETATM    5  H   UNL     1      26.619  45.896  52.715  1.00  0.00     0.165 HD
HETATM    6  H   UNL     1      24.128  46.346  50.372  1.00  0.00     0.164 HD
ENDROOT
BRANCH   1   7
HETATM    7  C   UNL     1      26.348  43.973  53.440  1.00  0.00     0.118 C 
HETATM    8  C   UNL     1      25.662  44.138  54.797  1.00  0.00     0.037 C 
BRANCH   7   9
HETATM    9  C   UNL     1      27.826  43.629  53.586  1.00  0.00    -0.002 A 
HETATM   10  C   UNL     1      28.556  44.080  54.704  1.00  0.00     0.018 A 
HETATM   11  C   UNL     1      29.917  43.794  54.854  1.00  0.00    -0.061 A 
HETATM   12  C   UNL     1      30.662  44.281  56.061  1.00  0.00     0.048 C 
HETATM   13  C   UNL     1      30.549  43.002  53.895  1.00  0.00     0.009 A 
HETATM   14  C   UNL     1      29.838  42.520  52.795  1.00  0.00     0.038 A 
HETATM   15  C   UNL     1      28.481  42.824  52.631  1.00  0.00     0.076 A 
BRANCH  15  16
HETATM   16  O   UNL     1      27.714  42.383  51.582  1.00  0.00    -0.355 OA
HETATM   17  C   UNL     1      27.922  41.053  51.127  1.00  0.00     0.210 C 
ENDBRANCH  15  16
ENDBRANCH   7   9
ENDBRANCH   1   7
BRANCH   3  18
HETATM   18  C   UNL     1      26.002  47.279  50.605  1.00  0.00     0.163 C 
BRANCH  18  19
HETATM   19  C   UNL     1      25.535  48.251  49.558  1.00  0.00    -0.035 A 
HETATM   20  C   UNL     1      24.175  48.376  49.257  1.00  0.00     0.066 A 
HETATM   21  C   UNL     1      23.792  49.280  48.279  1.00  0.00     0.164 A 
HETATM   22  N   UNL     1      24.652  50.064  47.598  1.00  0.00    -0.237 NA
HETATM   23  C   UNL     1      25.957  49.946  47.920  1.00  0.00     0.120 A 
HETATM   24  C   UNL     1      26.442  49.068  48.878  1.00  0.00     0.028 A 
BRANCH  21  25
HETATM   25  O   UNL     1      22.440  49.354  48.001  1.00  0.00    -0.329 OA
BRANCH  25  26
HETATM   26  C   UNL     1      21.820  50.640  48.210  1.00  0.00     0.130 C 
HETATM   27  C   UNL     1      20.349  50.797  47.738  1.00  0.00     0.032 C 
HETATM   28  C   UNL     1      20.088  51.609  49.019  1.00  0.00     0.005 C 
HETATM   29  C   UNL     1      21.285  50.874  49.647  1.00  0.00     0.032 C 
ENDBRANCH  25  26
ENDBRANCH  21  25
ENDBRANCH  18  19
ENDBRANCH   3  18
TORSDOF 7
ENDMDL
MODEL 2
REMARK VINA RESULT:      -9.3      1.662      2.679
REMARK  7 active torsions:
REMARK  status: ('A' for Active; 'I' for Inactive)
REMARK    1  A    between atoms: C_4  and  C_5 
REMARK    2  A    between atoms: C_5  and  N_6 
REMARK       I    between atoms: N_6  and  C_7 
REMARK       I    between atoms: C_7  and  N_8 
REMARK    3  A    between atoms: N_8  and  C_9 
REMARK    4  A    between atoms: C_9  and  C_10 
REMARK    5  A    between atoms: C_12  and  O_13 
REMARK    6  A    between atoms: O_13  and  C_14 
REMARK    7  A    between atoms: C_23  and  O_24 
ROOT
HETATM    1  N   UNL     1      26.015  45.246  52.602  1.00  0.00    -0.335 N 
HETATM    2  C   UNL     1      26.563  45.240  51.360  1.00  0.00     0.316 C 
HETATM    3  N   UNL     1      26.060  46.130  50.471  1.00  0.00    -0.339 N 
HETATM    4  O   UNL     1      27.472  44.502  50.996  1.00  0.00    -0.247 OA
HETATM    5  H   UNL     1      25.065  45.569  52.653  1.00  0.00     0.165 HD
HETATM    6  H   UNL     1      26.576  46.111  49.600  1.00  0.00     0.164 HD
ENDROOT
BRANCH   1   7
HETATM    7  C   UNL     1      26.364  44.333  53.695  1.00  0.00     0.118 C 
HETATM    8  C   UNL     1      25.215  43.952  54.630  1.00  0.00     0.037 C 
BRANCH   7   9
HETATM    9  C   UNL     1      27.596  44.797  54.465  1.00  0.00    -0.002 A 
HETATM   10  C   UNL     1      28.697  43.935  54.636  1.00  0.00     0.018 A 
HETATM   11  C   UNL     1      29.832  44.329  55.352  1.00  0.00    -0.061 A 
HETATM   12  C   UNL     1      30.990  43.389  55.507  1.00  0.00     0.048 C 
HETATM   13  C   UNL     1      29.889  45.624  55.866  1.00  0.00     0.009 A 
HETATM   14  C   UNL     1      28.821  46.505  55.683  1.00  0.00     0.038 A 
HETATM   15  C   UNL     1      27.675  46.106  54.986  1.00  0.00     0.076 A 
BRANCH  15  16
HETATM   16  O   UNL     1      26.590  46.914  54.760  1.00  0.00    -0.355 OA
HETATM   17  C   UNL     1      26.551  48.168  55.429  1.00  0.00     0.210 C 
ENDBRANCH  15  16
ENDBRANCH   7   9
ENDBRANCH   1   7
BRANCH   3  18
HETATM   18  C   UNL     1      25.151  47.238  50.666  1.00  0.00     0.163 C 
BRANCH  18  19
HETATM   19  C   UNL     1      25.321  48.279  49.594  1.00  0.00    -0.035 A 
HETATM   20  C   UNL     1      24.208  48.824  48.946  1.00  0.00     0.066 A 
HETATM   21  C   UNL     1      24.415  49.775  47.960  1.00  0.00     0.164 A 
HETATM   22  N   UNL     1      25.631  50.223  47.586  1.00  0.00    -0.237 NA
HETATM   23  C   UNL     1      26.690  49.702  48.240  1.00  0.00     0.120 A 
HETATM   24  C   UNL     1      26.590  48.743  49.236  1.00  0.00     0.028 A 
BRANCH  21  25
HETATM   25  O   UNL     1      23.287  50.271  47.333  1.00  0.00    -0.329 OA
BRANCH  25  26
HETATM   26  C   UNL     1      22.045  50.122  48.052  1.00  0.00     0.130 C 
HETATM   27  C   UNL     1      21.522  51.368  48.817  1.00  0.00     0.032 C 
HETATM   28  C   UNL     1      20.107  50.988  48.346  1.00  0.00     0.005 C 
HETATM   29  C   UNL     1      20.771  50.242  47.175  1.00  0.00     0.032 C 
ENDBRANCH  25  26
ENDBRANCH  21  25
ENDBRANCH  18  19
ENDBRANCH   3  18
TORSDOF 7
ENDMDL
MODEL 3
REMARK VINA RESULT:      -8.6      2.010      3.195
REMARK  7 active torsions:
REMARK  status: ('A' for Active; 'I' for Inactive)
REMARK    1  A    between atoms: C_4  and  C_5 
REMARK    2  A    between atoms: C_5  and  N_6 
REMARK       I    between atoms: N_6  and  C_7 
REMARK       I    between atoms: C_7  and  N_8 
REMARK    3  A    between atoms: N_8  and  C_9 
REMARK    4  A    between atoms: C_9  and  C_10 
REMARK    5  A    between atoms: C_12  and  O_13 
REMARK    6  A    between atoms: O_13  and  C_14 
REMARK    7  A    between atoms: C_23  and  O_24 
ROOT
HETATM    1  N   UNL     1      28.086  43.451  52.049  1.00  0.00    -0.335 N 
HETATM    2  C   UNL     1      27.642  42.969  50.861  1.00  0.00     0.316 C 
HETATM    3  N   UNL     1      27.078  43.865  50.015  1.00  0.00    -0.339 N 
HETATM    4  O   UNL     1      27.722  41.799  50.501  1.00  0.00    -0.247 OA
HETATM    5  H   UNL     1      27.617  44.275  52.383  1.00  0.00     0.165 HD
HETATM    6  H   UNL     1      26.848  43.437  49.126  1.00  0.00     0.164 HD
ENDROOT
BRANCH   1   7
HETATM    7  C   UNL     1      28.672  42.653  53.130  1.00  0.00     0.118 C 
HETATM    8  C   UNL     1      27.806  41.505  53.648  1.00  0.00     0.037 C 
BRANCH   7   9
HETATM    9  C   UNL     1      29.208  43.520  54.264  1.00  0.00    -0.002 A 
HETATM   10  C   UNL     1      30.340  43.116  54.998  1.00  0.00     0.018 A 
HETATM   11  C   UNL     1      30.842  43.884  56.054  1.00  0.00    -0.061 A 
HETATM   12  C   UNL     1      32.056  43.428  56.808  1.00  0.00     0.048 C 
HETATM   13  C   UNL     1      30.231  45.102  56.352  1.00  0.00     0.009 A 
HETATM   14  C   UNL     1      29.125  45.536  55.619  1.00  0.00     0.038 A 
HETATM   15  C   UNL     1      28.608  44.759  54.576  1.00  0.00     0.076 A 
BRANCH  15  16
HETATM   16  O   UNL     1      27.530  45.119  53.807  1.00  0.00    -0.355 OA
HETATM   17  C   UNL     1      27.008  46.430  53.979  1.00  0.00     0.210 C 
ENDBRANCH  15  16
ENDBRANCH   7   9
ENDBRANCH   1   7
BRANCH   3  18
HETATM   18  C   UNL     1      27.030  45.309  50.074  1.00  0.00     0.163 C 
BRANCH  18  19
HETATM   19  C   UNL     1      25.662  45.825  49.723  1.00  0.00    -0.035 A 
HETATM   20  C   UNL     1      25.345  47.176  49.894  1.00  0.00     0.066 A 
HETATM   21  C   UNL     1      24.068  47.605  49.564  1.00  0.00     0.164 A 
HETATM   22  N   UNL     1      23.105  46.798  49.074  1.00  0.00    -0.237 NA
HETATM   23  C   UNL     1      23.439  45.504  48.894  1.00  0.00     0.120 A 
HETATM   24  C   UNL     1      24.685  44.976  49.198  1.00  0.00     0.028 A 
BRANCH  21  25
HETATM   25  O   UNL     1      23.794  48.944  49.768  1.00  0.00    -0.329 OA
BRANCH  25  26
HETATM   26  C   UNL     1      22.595  49.448  49.142  1.00  0.00     0.130 C 
HETATM   27  C   UNL     1      21.876  50.629  49.849  1.00  0.00     0.032 C 
HETATM   28  C   UNL     1      21.628  51.232  48.455  1.00  0.00     0.005 C 
HETATM   29  C   UNL     1      22.843  50.426  47.964  1.00  0.00     0.032 C 
ENDBRANCH  25  26
ENDBRANCH  21  25
ENDBRANCH  18  19
ENDBRANCH   3  18
TORSDOF 7
ENDMDL
MODEL 4
REMARK VINA RESULT:      -8.1      1.779      2.749
REMARK  7 active torsions:
REMARK  status: ('A' for Active; 'I' for Inactive)
REMARK    1  A    between atoms: C_4  and  C_5 
REMARK    2  A    between atoms: C_5  and  N_6 
REMARK       I    between atoms: N_6  and  C_7 
REMARK       I    between atoms: C_7  and  N_8 
REMARK    3  A    between atoms: N_8  and  C_9 
REMARK    4  A    between atoms: C_9  and  C_10 
REMARK    5  A    between atoms: C_12  and  O_13 
REMARK    6  A    between atoms: O_13  and  C_14 
REMARK    7  A    between atoms: C_23  and  O_24 
ROOT
HETATM    1  N   UNL     1      26.185  45.151  50.874  1.00  0.00    -0.335 N 
HETATM    2  C   UNL     1      26.616  45.995  49.903  1.00  0.00     0.316 C 
HETATM    3  N   UNL     1      25.754  46.969  49.519  1.00  0.00    -0.339 N 
HETATM    4  O   UNL     1      27.715  45.944  49.362  1.00  0.00    -0.247 OA
HETATM    5  H   UNL     1      25.189  45.032  50.933  1.00  0.00     0.165 HD
HETATM    6  H   UNL     1      26.183  47.597  48.851  1.00  0.00     0.164 HD
ENDROOT
BRANCH   1   7
HETATM    7  C   UNL     1      26.926  43.998  51.395  1.00  0.00     0.118 C 
HETATM    8  C   UNL     1      26.164  42.673  51.405  1.00  0.00     0.037 C 
BRANCH   7   9
HETATM    9  C   UNL     1      27.579  44.291  52.742  1.00  0.00    -0.002 A 
HETATM   10  C   UNL     1      28.766  43.631  53.117  1.00  0.00     0.018 A 
HETATM   11  C   UNL     1      29.376  43.868  54.354  1.00  0.00    -0.061 A 
HETATM   12  C   UNL     1      30.645  43.156  54.718  1.00  0.00     0.048 C 
HETATM   13  C   UNL     1      28.818  44.816  55.210  1.00  0.00     0.009 A 
HETATM   14  C   UNL     1      27.657  45.503  54.846  1.00  0.00     0.038 A 
HETATM   15  C   UNL     1      27.033  45.252  53.619  1.00  0.00     0.076 A 
BRANCH  15  16
HETATM   16  O   UNL     1      25.897  45.888  53.188  1.00  0.00    -0.355 OA
HETATM   17  C   UNL     1      25.717  47.246  53.570  1.00  0.00     0.210 C 
ENDBRANCH  15  16
ENDBRANCH   7   9
ENDBRANCH   1   7
BRANCH   3  18
HETATM   18  C   UNL     1      24.501  47.395  50.103  1.00  0.00     0.163 C 
BRANCH  18  19
HETATM   19  C   UNL     1      23.889  48.522  49.319  1.00  0.00    -0.035 A 
HETATM   20  C   UNL     1      22.510  48.753  49.360  1.00  0.00     0.066 A 
HETATM   21  C   UNL     1      21.990  49.799  48.615  1.00  0.00     0.164 A 
HETATM   22  N   UNL     1      22.734  50.625  47.851  1.00  0.00    -0.237 NA
HETATM   23  C   UNL     1      24.064  50.400  47.843  1.00  0.00     0.120 A 
HETATM   24  C   UNL     1      24.681  49.378  48.549  1.00  0.00     0.028 A 
BRANCH  21  25
HETATM   25  O   UNL     1      20.620  49.977  48.671  1.00  0.00    -0.329 OA
BRANCH  25  26
HETATM   26  C   UNL     1      20.162  51.343  48.755  1.00  0.00     0.130 C 
HETATM   27  C   UNL     1      19.034  51.768  47.775  1.00  0.00     0.032 C 
HETATM   28  C   UNL     1      18.412  52.567  48.934  1.00  0.00     0.005 C 
HETATM   29  C   UNL     1      19.144  51.614  49.895  1.00  0.00     0.032 C 
ENDBRANCH  25  26
ENDBRANCH  21  25
ENDBRANCH  18  19
ENDBRANCH   3  18
TORSDOF 7
ENDMDL
MODEL 5
REMARK VINA RESULT:      -8.0      1.994      9.459
REMARK  7 active torsions:
REMARK  status: ('A' for Active; 'I' for Inactive)
REMARK    1  A    between atoms: C_4  and  C_5 
REMARK    2  A    between atoms: C_5  and  N_6 
REMARK       I    between atoms: N_6  and  C_7 
REMARK       I    between atoms: C_7  and  N_8 
REMARK    3  A    between atoms: N_8  and  C_9 
REMARK    4  A    between atoms: C_9  and  C_10 
REMARK    5  A    between atoms: C_12  and  O_13 
REMARK    6  A    between atoms: O_13  and  C_14 
REMARK    7  A    between atoms: C_23  and  O_24 
ROOT
HETATM    1  N   UNL     1      23.054  46.706  49.082  1.00  0.00    -0.335 N 
HETATM    2  C   UNL     1      23.392  45.467  49.521  1.00  0.00     0.316 C 
HETATM    3  N   UNL     1      24.637  45.325  50.039  1.00  0.00    -0.339 N 
HETATM    4  O   UNL     1      22.658  44.485  49.489  1.00  0.00    -0.247 OA
HETATM    5  H   UNL     1      23.822  47.284  48.787  1.00  0.00     0.165 HD
HETATM    6  H   UNL     1      24.775  44.393  50.411  1.00  0.00     0.164 HD
ENDROOT
BRANCH   1   7
HETATM    7  C   UNL     1      21.789  47.069  48.437  1.00  0.00     0.118 C 
HETATM    8  C   UNL     1      21.656  46.665  46.969  1.00  0.00     0.037 C 
BRANCH   7   9
HETATM    9  C   UNL     1      21.424  48.533  48.662  1.00  0.00    -0.002 A 
HETATM   10  C   UNL     1      20.197  48.878  49.261  1.00  0.00     0.018 A 
HETATM   11  C   UNL     1      19.830  50.213  49.463  1.00  0.00    -0.061 A 
HETATM   12  C   UNL     1      18.520  50.545  50.113  1.00  0.00     0.048 C 
HETATM   13  C   UNL     1      20.726  51.220  49.104  1.00  0.00     0.009 A 
HETATM   14  C   UNL     1      21.960  50.899  48.534  1.00  0.00     0.038 A 
HETATM   15  C   UNL     1      22.320  49.565  48.311  1.00  0.00     0.076 A 
BRANCH  15  16
HETATM   16  O   UNL     1      23.514  49.171  47.764  1.00  0.00    -0.355 OA
HETATM   17  C   UNL     1      24.691  49.836  48.202  1.00  0.00     0.210 C 
ENDBRANCH  15  16
ENDBRANCH   7   9
ENDBRANCH   1   7
BRANCH   3  18
HETATM   18  C   UNL     1      25.627  46.320  50.386  1.00  0.00     0.163 C 
BRANCH  18  19
HETATM   19  C   UNL     1      25.975  46.256  51.847  1.00  0.00    -0.035 A 
HETATM   20  C   UNL     1      26.687  45.170  52.364  1.00  0.00     0.066 A 
HETATM   21  C   UNL     1      26.979  45.151  53.719  1.00  0.00     0.164 A 
HETATM   22  N   UNL     1      26.627  46.127  54.580  1.00  0.00    -0.237 NA
HETATM   23  C   UNL     1      25.962  47.178  54.058  1.00  0.00     0.120 A 
HETATM   24  C   UNL     1      25.618  47.289  52.719  1.00  0.00     0.028 A 
BRANCH  21  25
HETATM   25  O   UNL     1      27.666  44.047  54.188  1.00  0.00    -0.329 OA
BRANCH  25  26
HETATM   26  C   UNL     1      29.096  44.195  54.307  1.00  0.00     0.130 C 
HETATM   27  C   UNL     1      29.633  44.799  55.633  1.00  0.00     0.032 C 
HETATM   28  C   UNL     1      30.775  43.770  55.569  1.00  0.00     0.005 C 
HETATM   29  C   UNL     1      29.850  42.898  54.702  1.00  0.00     0.032 C 
ENDBRANCH  25  26
ENDBRANCH  21  25
ENDBRANCH  18  19
ENDBRANCH   3  18
TORSDOF 7
ENDMDL
MODEL 6
REMARK VINA RESULT:      -8.0      2.384      9.747
REMARK  7 active torsions:
REMARK  status: ('A' for Active; 'I' for Inactive)
REMARK    1  A    between atoms: C_4  and  C_5 
REMARK    2  A    between atoms: C_5  and  N_6 
REMARK       I    between atoms: N_6  and  C_7 
REMARK       I    between atoms: C_7  and  N_8 
REMARK    3  A    between atoms: N_8  and  C_9 
REMARK    4  A    between atoms: C_9  and  C_10 
REMARK    5  A    between atoms: C_12  and  O_13 
REMARK    6  A    between atoms: O_13  and  C_14 
REMARK    7  A    between atoms: C_23  and  O_24 
ROOT
HETATM    1  N   UNL     1      24.614  48.317  49.711  1.00  0.00    -0.335 N 
HETATM    2  C   UNL     1      25.883  47.859  49.860  1.00  0.00     0.316 C 
HETATM    3  N   UNL     1      26.209  47.361  51.078  1.00  0.00    -0.339 N 
HETATM    4  O   UNL     1      26.739  47.855  48.982  1.00  0.00    -0.247 OA
HETATM    5  H   UNL     1      24.170  48.639  50.552  1.00  0.00     0.165 HD
HETATM    6  H   UNL     1      27.144  46.972  51.078  1.00  0.00     0.164 HD
ENDROOT
BRANCH   1   7
HETATM    7  C   UNL     1      24.069  48.946  48.504  1.00  0.00     0.118 C 
HETATM    8  C   UNL     1      24.765  50.233  48.058  1.00  0.00     0.037 C 
BRANCH   7   9
HETATM    9  C   UNL     1      22.555  49.110  48.571  1.00  0.00    -0.002 A 
HETATM   10  C   UNL     1      21.972  50.391  48.500  1.00  0.00     0.018 A 
HETATM   11  C   UNL     1      20.587  50.571  48.576  1.00  0.00    -0.061 A 
HETATM   12  C   UNL     1      19.999  51.948  48.487  1.00  0.00     0.048 C 
HETATM   13  C   UNL     1      19.766  49.448  48.675  1.00  0.00     0.009 A 
HETATM   14  C   UNL     1      20.321  48.167  48.718  1.00  0.00     0.038 A 
HETATM   15  C   UNL     1      21.708  47.986  48.664  1.00  0.00     0.076 A 
BRANCH  15  16
HETATM   16  O   UNL     1      22.326  46.762  48.694  1.00  0.00    -0.355 OA
HETATM   17  C   UNL     1      22.216  45.940  47.540  1.00  0.00     0.210 C 
ENDBRANCH  15  16
ENDBRANCH   7   9
ENDBRANCH   1   7
BRANCH   3  18
HETATM   18  C   UNL     1      25.375  47.053  52.219  1.00  0.00     0.163 C 
BRANCH  18  19
HETATM   19  C   UNL     1      26.073  46.121  53.170  1.00  0.00    -0.035 A 
HETATM   20  C   UNL     1      27.143  46.568  53.950  1.00  0.00     0.066 A 
HETATM   21  C   UNL     1      27.760  45.670  54.807  1.00  0.00     0.164 A 
HETATM   22  N   UNL     1      27.386  44.383  54.947  1.00  0.00    -0.237 NA
HETATM   23  C   UNL     1      26.337  43.977  54.204  1.00  0.00     0.120 A 
HETATM   24  C   UNL     1      25.656  44.795  53.314  1.00  0.00     0.028 A 
BRANCH  21  25
HETATM   25  O   UNL     1      28.827  46.152  55.544  1.00  0.00    -0.329 OA
BRANCH  25  26
HETATM   26  C   UNL     1      29.278  45.314  56.628  1.00  0.00     0.130 C 
HETATM   27  C   UNL     1      30.723  44.754  56.530  1.00  0.00     0.032 C 
HETATM   28  C   UNL     1      30.865  45.023  58.039  1.00  0.00     0.005 C 
HETATM   29  C   UNL     1      29.762  46.085  57.884  1.00  0.00     0.032 C 
ENDBRANCH  25  26
ENDBRANCH  21  25
ENDBRANCH  18  19
ENDBRANCH   3  18
TORSDOF 7
ENDMDL
MODEL 7
REMARK VINA RESULT:      -7.9      2.739      8.671
REMARK  7 active torsions:
REMARK  status: ('A' for Active; 'I' for Inactive)
REMARK    1  A    between atoms: C_4  and  C_5 
REMARK    2  A    between atoms: C_5  and  N_6 
REMARK       I    between atoms: N_6  and  C_7 
REMARK       I    between atoms: C_7  and  N_8 
REMARK    3  A    between atoms: N_8  and  C_9 
REMARK    4  A    between atoms: C_9  and  C_10 
REMARK    5  A    between atoms: C_12  and  O_13 
REMARK    6  A    between atoms: O_13  and  C_14 
REMARK    7  A    between atoms: C_23  and  O_24 
ROOT
HETATM    1  N   UNL     1      25.791  44.821  51.345  1.00  0.00    -0.335 N 
HETATM    2  C   UNL     1      26.126  43.572  51.758  1.00  0.00     0.316 C 
HETATM    3  N   UNL     1      26.078  43.341  53.093  1.00  0.00    -0.339 N 
HETATM    4  O   UNL     1      26.456  42.651  51.019  1.00  0.00    -0.247 OA
HETATM    5  H   UNL     1      25.942  45.553  52.016  1.00  0.00     0.165 HD
HETATM    6  H   UNL     1      26.265  42.369  53.304  1.00  0.00     0.164 HD
ENDROOT
BRANCH   1   7
HETATM    7  C   UNL     1      25.830  45.303  49.961  1.00  0.00     0.118 C 
HETATM    8  C   UNL     1      26.934  46.312  49.644  1.00  0.00     0.037 C 
BRANCH   7   9
HETATM    9  C   UNL     1      24.466  45.779  49.475  1.00  0.00    -0.002 A 
HETATM   10  C   UNL     1      24.149  47.152  49.470  1.00  0.00     0.018 A 
HETATM   11  C   UNL     1      22.899  47.614  49.046  1.00  0.00    -0.061 A 
HETATM   12  C   UNL     1      22.599  49.084  49.043  1.00  0.00     0.048 C 
HETATM   13  C   UNL     1      21.965  46.693  48.573  1.00  0.00     0.009 A 
HETATM   14  C   UNL     1      22.268  45.330  48.543  1.00  0.00     0.038 A 
HETATM   15  C   UNL     1      23.510  44.863  48.987  1.00  0.00     0.076 A 
BRANCH  15  16
HETATM   16  O   UNL     1      23.883  43.543  48.982  1.00  0.00    -0.355 OA
HETATM   17  C   UNL     1      22.978  42.600  49.542  1.00  0.00     0.210 C 
ENDBRANCH  15  16
ENDBRANCH   7   9
ENDBRANCH   1   7
BRANCH   3  18
HETATM   18  C   UNL     1      25.543  44.150  54.166  1.00  0.00     0.163 C 
BRANCH  18  19
HETATM   19  C   UNL     1      26.450  45.307  54.482  1.00  0.00    -0.035 A 
HETATM   20  C   UNL     1      27.753  45.087  54.938  1.00  0.00     0.066 A 
HETATM   21  C   UNL     1      28.550  46.185  55.224  1.00  0.00     0.164 A 
HETATM   22  N   UNL     1      28.151  47.464  55.080  1.00  0.00    -0.237 NA
HETATM   23  C   UNL     1      26.899  47.655  54.615  1.00  0.00     0.120 A 
HETATM   24  C   UNL     1      26.023  46.626  54.306  1.00  0.00     0.028 A 
BRANCH  21  25
HETATM   25  O   UNL     1      29.823  45.919  55.692  1.00  0.00    -0.329 OA
BRANCH  25  26
HETATM   26  C   UNL     1      30.007  44.642  56.337  1.00  0.00     0.130 C 
HETATM   27  C   UNL     1      31.017  43.661  55.681  1.00  0.00     0.032 C 
HETATM   28  C   UNL     1      31.486  43.291  57.099  1.00  0.00     0.005 C 
HETATM   29  C   UNL     1      30.967  44.665  57.556  1.00  0.00     0.032 C 
ENDBRANCH  25  26
ENDBRANCH  21  25
ENDBRANCH  18  19
ENDBRANCH   3  18
TORSDOF 7
ENDMDL
MODEL 8
REMARK VINA RESULT:      -7.9      1.661      2.084
REMARK  7 active torsions:
REMARK  status: ('A' for Active; 'I' for Inactive)
REMARK    1  A    between atoms: C_4  and  C_5 
REMARK    2  A    between atoms: C_5  and  N_6 
REMARK       I    between atoms: N_6  and  C_7 
REMARK       I    between atoms: C_7  and  N_8 
REMARK    3  A    between atoms: N_8  and  C_9 
REMARK    4  A    between atoms: C_9  and  C_10 
REMARK    5  A    between atoms: C_12  and  O_13 
REMARK    6  A    between atoms: O_13  and  C_14 
REMARK    7  A    between atoms: C_23  and  O_24 
ROOT
HETATM    1  N   UNL     1      26.155  44.977  50.825  1.00  0.00    -0.335 N 
HETATM    2  C   UNL     1      26.676  45.836  49.912  1.00  0.00     0.316 C 
HETATM    3  N   UNL     1      25.918  46.914  49.593  1.00  0.00    -0.339 N 
HETATM    4  O   UNL     1      27.770  45.711  49.372  1.00  0.00    -0.247 OA
HETATM    5  H   UNL     1      25.152  44.954  50.874  1.00  0.00     0.165 HD
HETATM    6  H   UNL     1      26.414  47.538  48.969  1.00  0.00     0.164 HD
ENDROOT
BRANCH   1   7
HETATM    7  C   UNL     1      26.774  43.724  51.270  1.00  0.00     0.118 C 
HETATM    8  C   UNL     1      25.820  42.542  51.447  1.00  0.00     0.037 C 
BRANCH   7   9
HETATM    9  C   UNL     1      27.669  43.922  52.489  1.00  0.00    -0.002 A 
HETATM   10  C   UNL     1      27.418  44.970  53.396  1.00  0.00     0.018 A 
HETATM   11  C   UNL     1      28.234  45.184  54.512  1.00  0.00    -0.061 A 
HETATM   12  C   UNL     1      27.932  46.304  55.463  1.00  0.00     0.048 C 
HETATM   13  C   UNL     1      29.290  44.307  54.754  1.00  0.00     0.009 A 
HETATM   14  C   UNL     1      29.539  43.244  53.883  1.00  0.00     0.038 A 
HETATM   15  C   UNL     1      28.738  43.040  52.754  1.00  0.00     0.076 A 
BRANCH  15  16
HETATM   16  O   UNL     1      28.916  42.017  51.857  1.00  0.00    -0.355 OA
HETATM   17  C   UNL     1      28.959  40.692  52.370  1.00  0.00     0.210 C 
ENDBRANCH  15  16
ENDBRANCH   7   9
ENDBRANCH   1   7
BRANCH   3  18
HETATM   18  C   UNL     1      24.709  47.423  50.201  1.00  0.00     0.163 C 
BRANCH  18  19
HETATM   19  C   UNL     1      24.099  48.518  49.370  1.00  0.00    -0.035 A 
HETATM   20  C   UNL     1      22.713  48.695  49.330  1.00  0.00     0.066 A 
HETATM   21  C   UNL     1      22.197  49.713  48.544  1.00  0.00     0.164 A 
HETATM   22  N   UNL     1      22.951  50.560  47.816  1.00  0.00    -0.237 NA
HETATM   23  C   UNL     1      24.287  50.388  47.886  1.00  0.00     0.120 A 
HETATM   24  C   UNL     1      24.901  49.398  48.638  1.00  0.00     0.028 A 
BRANCH  21  25
HETATM   25  O   UNL     1      20.820  49.838  48.520  1.00  0.00    -0.329 OA
BRANCH  25  26
HETATM   26  C   UNL     1      20.308  51.154  48.225  1.00  0.00     0.130 C 
HETATM   27  C   UNL     1      18.961  51.228  47.456  1.00  0.00     0.032 C 
HETATM   28  C   UNL     1      18.573  52.403  48.372  1.00  0.00     0.005 C 
HETATM   29  C   UNL     1      19.566  51.839  49.403  1.00  0.00     0.032 C 
ENDBRANCH  25  26
ENDBRANCH  21  25
ENDBRANCH  18  19
ENDBRANCH   3  18
TORSDOF 7
ENDMDL
MODEL 9
REMARK VINA RESULT:      -7.6      2.211      9.510
REMARK  7 active torsions:
REMARK  status: ('A' for Active; 'I' for Inactive)
REMARK    1  A    between atoms: C_4  and  C_5 
REMARK    2  A    between atoms: C_5  and  N_6 
REMARK       I    between atoms: N_6  and  C_7 
REMARK       I    between atoms: C_7  and  N_8 
REMARK    3  A    between atoms: N_8  and  C_9 
REMARK    4  A    between atoms: C_9  and  C_10 
REMARK    5  A    between atoms: C_12  and  O_13 
REMARK    6  A    between atoms: O_13  and  C_14 
REMARK    7  A    between atoms: C_23  and  O_24 
ROOT
HETATM    1  N   UNL     1      24.075  48.305  49.539  1.00  0.00    -0.335 N 
HETATM    2  C   UNL     1      25.431  48.271  49.578  1.00  0.00     0.316 C 
HETATM    3  N   UNL     1      25.991  47.511  50.552  1.00  0.00    -0.339 N 
HETATM    4  O   UNL     1      26.173  48.864  48.803  1.00  0.00    -0.247 OA
HETATM    5  H   UNL     1      23.613  48.140  50.415  1.00  0.00     0.165 HD
HETATM    6  H   UNL     1      26.999  47.480  50.459  1.00  0.00     0.164 HD
ENDROOT
BRANCH   1   7
HETATM    7  C   UNL     1      23.266  49.103  48.612  1.00  0.00     0.118 C 
HETATM    8  C   UNL     1      23.465  50.617  48.697  1.00  0.00     0.037 C 
BRANCH   7   9
HETATM    9  C   UNL     1      21.792  48.718  48.652  1.00  0.00    -0.002 A 
HETATM   10  C   UNL     1      20.877  49.477  49.408  1.00  0.00     0.018 A 
HETATM   11  C   UNL     1      19.522  49.136  49.476  1.00  0.00    -0.061 A 
HETATM   12  C   UNL     1      18.573  49.972  50.283  1.00  0.00     0.048 C 
HETATM   13  C   UNL     1      19.063  48.047  48.736  1.00  0.00     0.009 A 
HETATM   14  C   UNL     1      19.947  47.298  47.957  1.00  0.00     0.038 A 
HETATM   15  C   UNL     1      21.307  47.624  47.905  1.00  0.00     0.076 A 
BRANCH  15  16
HETATM   16  O   UNL     1      22.235  46.942  47.159  1.00  0.00    -0.355 OA
HETATM   17  C   UNL     1      22.414  45.559  47.434  1.00  0.00     0.210 C 
ENDBRANCH  15  16
ENDBRANCH   7   9
ENDBRANCH   1   7
BRANCH   3  18
HETATM   18  C   UNL     1      25.390  46.560  51.461  1.00  0.00     0.163 C 
BRANCH  18  19
HETATM   19  C   UNL     1      26.262  45.349  51.638  1.00  0.00    -0.035 A 
HETATM   20  C   UNL     1      26.792  45.030  52.892  1.00  0.00     0.066 A 
HETATM   21  C   UNL     1      27.597  43.907  53.006  1.00  0.00     0.164 A 
HETATM   22  N   UNL     1      27.897  43.087  51.978  1.00  0.00    -0.237 NA
HETATM   23  C   UNL     1      27.357  43.398  50.783  1.00  0.00     0.120 A 
HETATM   24  C   UNL     1      26.545  44.501  50.564  1.00  0.00     0.028 A 
BRANCH  21  25
HETATM   25  O   UNL     1      28.115  43.642  54.260  1.00  0.00    -0.329 OA
BRANCH  25  26
HETATM   26  C   UNL     1      29.438  44.155  54.520  1.00  0.00     0.130 C 
HETATM   27  C   UNL     1      29.603  45.085  55.753  1.00  0.00     0.032 C 
HETATM   28  C   UNL     1      30.937  44.372  56.036  1.00  0.00     0.005 C 
HETATM   29  C   UNL     1      30.382  43.168  55.256  1.00  0.00     0.032 C 
ENDBRANCH  25  26
ENDBRANCH  21  25
ENDBRANCH  18  19
ENDBRANCH   3  18
TORSDOF 7
ENDMDL
MODEL 10
REMARK VINA RESULT:      -7.6      2.322      8.783
REMARK  7 active torsions:
REMARK  status: ('A' for Active; 'I' for Inactive)
REMARK    1  A    between atoms: C_4  and  C_5 
REMARK    2  A    between atoms: C_5  and  N_6 
REMARK       I    between atoms: N_6  and  C_7 
REMARK       I    between atoms: C_7  and  N_8 
REMARK    3  A    between atoms: N_8  and  C_9 
REMARK    4  A    between atoms: C_9  and  C_10 
REMARK    5  A    between atoms: C_12  and  O_13 
REMARK    6  A    between atoms: O_13  and  C_14 
REMARK    7  A    between atoms: C_23  and  O_24 
ROOT
HETATM    1  N   UNL     1      24.427  45.293  51.201  1.00  0.00    -0.335 N 
HETATM    2  C   UNL     1      25.257  44.226  51.326  1.00  0.00     0.316 C 
HETATM    3  N   UNL     1      25.739  43.975  52.568  1.00  0.00    -0.339 N 
HETATM    4  O   UNL     1      25.589  43.481  50.411  1.00  0.00    -0.247 OA
HETATM    5  H   UNL     1      24.558  46.024  51.878  1.00  0.00     0.165 HD
HETATM    6  H   UNL     1      26.283  43.121  52.585  1.00  0.00     0.164 HD
ENDROOT
BRANCH   1   7
HETATM    7  C   UNL     1      23.841  45.778  49.947  1.00  0.00     0.118 C 
HETATM    8  C   UNL     1      23.852  44.784  48.785  1.00  0.00     0.037 C 
BRANCH   7   9
HETATM    9  C   UNL     1      24.394  47.138  49.539  1.00  0.00    -0.002 A 
HETATM   10  C   UNL     1      25.782  47.380  49.558  1.00  0.00     0.018 A 
HETATM   11  C   UNL     1      26.314  48.625  49.205  1.00  0.00    -0.061 A 
HETATM   12  C   UNL     1      27.797  48.844  49.226  1.00  0.00     0.048 C 
HETATM   13  C   UNL     1      25.448  49.632  48.779  1.00  0.00     0.009 A 
HETATM   14  C   UNL     1      24.071  49.405  48.725  1.00  0.00     0.038 A 
HETATM   15  C   UNL     1      23.535  48.168  49.099  1.00  0.00     0.076 A 
BRANCH  15  16
HETATM   16  O   UNL     1      22.197  47.867  49.067  1.00  0.00    -0.355 OA
HETATM   17  C   UNL     1      21.358  48.676  48.253  1.00  0.00     0.210 C 
ENDBRANCH  15  16
ENDBRANCH   7   9
ENDBRANCH   1   7
BRANCH   3  18
HETATM   18  C   UNL     1      25.373  44.540  53.848  1.00  0.00     0.163 C 
BRANCH  18  19
HETATM   19  C   UNL     1      26.424  45.495  54.343  1.00  0.00    -0.035 A 
HETATM   20  C   UNL     1      27.277  45.134  55.390  1.00  0.00     0.066 A 
HETATM   21  C   UNL     1      28.226  46.050  55.818  1.00  0.00     0.164 A 
HETATM   22  N   UNL     1      28.389  47.275  55.280  1.00  0.00    -0.237 NA
HETATM   23  C   UNL     1      27.571  47.594  54.256  1.00  0.00     0.120 A 
HETATM   24  C   UNL     1      26.588  46.752  53.757  1.00  0.00     0.028 A 
BRANCH  21  25
HETATM   25  O   UNL     1      29.034  45.657  56.869  1.00  0.00    -0.329 OA
BRANCH  25  26
HETATM   26  C   UNL     1      30.357  45.203  56.515  1.00  0.00     0.130 C 
HETATM   27  C   UNL     1      31.138  44.402  57.593  1.00  0.00     0.032 C 
HETATM   28  C   UNL     1      31.634  43.483  56.463  1.00  0.00     0.005 C 
HETATM   29  C   UNL     1      30.390  43.907  55.663  1.00  0.00     0.032 C 
ENDBRANCH  25  26
ENDBRANCH  21  25
ENDBRANCH  18  19
ENDBRANCH   3  18
TORSDOF 7
ENDMDL
