MODEL 1
REMARK VINA RESULT:     -10.7      0.000      0.000
REMARK  9 active torsions:
REMARK  status: ('A' for Active; 'I' for Inactive)
REMARK    1  A    between atoms: C_4  and  S_5 
REMARK    2  A    between atoms: S_5  and  C_6 
REMARK    3  A    between atoms: C_6  and  C_7 
REMARK       I    between atoms: C_7  and  N_8 
REMARK    4  A    between atoms: N_8  and  C_9 
REMARK    5  A    between atoms: C_9  and  C_10 
REMARK    6  A    between atoms: C_20  and  C_21 
REMARK    7  A    between atoms: C_26  and  C_27 
REMARK       I    between atoms: C_27  and  N_28 
REMARK    8  A    between atoms: N_28  and  C_29 
REMARK    9  A    between atoms: C_31  and  C_32 
ROOT
HETATM    1  C   UNL     1      24.186  43.072  50.283  1.00  0.00     0.069 C 
HETATM    2  C   UNL     1      24.111  44.571  50.106  1.00  0.00     0.019 C 
HETATM    3  N   UNL     1      23.265  45.004  49.101  1.00  0.00    -0.353 N 
HETATM    4  C   UNL     1      22.905  46.316  48.847  1.00  0.00     0.087 C 
HETATM    5  C   UNL     1      23.588  47.292  49.489  1.00  0.00     0.057 C 
HETATM    6  C   UNL     1      23.422  48.776  49.203  1.00  0.00     0.019 C 
HETATM    7  N   UNL     1      23.283  50.007  48.968  1.00  0.00    -0.096 N 
HETATM    8  C   UNL     1      24.740  46.953  50.448  1.00  0.00     0.129 C 
HETATM    9  C   UNL     1      24.808  45.476  50.835  1.00  0.00     0.048 C 
HETATM   10  H   UNL     1      22.848  44.290  48.512  1.00  0.00     0.166 HD
ENDROOT
BRANCH   4  11
HETATM   11  S   UNL     1      21.647  46.709  47.677  1.00  0.00    -0.102 SA
BRANCH  11  12
HETATM   12  C   UNL     1      20.166  46.102  48.542  1.00  0.00     0.183 C 
BRANCH  12  13
HETATM   13  C   UNL     1      19.254  47.204  49.047  1.00  0.00     0.227 C 
HETATM   14  N   UNL     1      19.783  48.085  49.959  1.00  0.00    -0.356 N 
HETATM   15  H   UNL     1      20.732  47.958  50.288  1.00  0.00     0.162 HD
HETATM   16  O   UNL     1      18.069  47.235  48.714  1.00  0.00    -0.273 OA
BRANCH  14  17
HETATM   17  C   UNL     1      18.928  49.046  50.621  1.00  0.00     0.161 C 
BRANCH  17  18
HETATM   18  C   UNL     1      18.855  50.366  49.901  1.00  0.00    -0.041 A 
HETATM   19  C   UNL     1      19.951  50.861  49.180  1.00  0.00     0.009 A 
HETATM   20  C   UNL     1      19.849  52.053  48.462  1.00  0.00     0.001 A 
HETATM   21  C   UNL     1      18.646  52.758  48.445  1.00  0.00     0.000 A 
HETATM   22  C   UNL     1      17.546  52.272  49.147  1.00  0.00     0.001 A 
HETATM   23  C   UNL     1      17.648  51.081  49.869  1.00  0.00     0.009 A 
ENDBRANCH  17  18
ENDBRANCH  14  17
ENDBRANCH  12  13
ENDBRANCH  11  12
ENDBRANCH   4  11
BRANCH   8  24
HETATM   24  C   UNL     1      26.056  47.446  49.889  1.00  0.00     0.066 A 
HETATM   25  O   UNL     1      26.902  46.488  49.408  1.00  0.00    -0.326 OA
HETATM   26  C   UNL     1      28.014  47.128  48.964  1.00  0.00     0.142 A 
HETATM   27  C   UNL     1      27.885  48.487  49.129  1.00  0.00     0.027 A 
HETATM   28  C   UNL     1      26.617  48.696  49.722  1.00  0.00     0.035 A 
ENDBRANCH   8  24
BRANCH   9  29
HETATM   29  C   UNL     1      25.565  45.041  52.067  1.00  0.00     0.255 C 
HETATM   30  N   UNL     1      26.900  44.753  51.890  1.00  0.00    -0.323 N 
HETATM   31  H   UNL     1      27.318  44.899  50.981  1.00  0.00     0.169 HD
HETATM   32  O   UNL     1      24.994  45.025  53.154  1.00  0.00    -0.268 OA
BRANCH  30  33
HETATM   33  C   UNL     1      27.803  44.251  52.856  1.00  0.00     0.035 A 
HETATM   34  C   UNL     1      28.293  44.990  53.934  1.00  0.00     0.045 A 
HETATM   35  C   UNL     1      29.162  44.409  54.876  1.00  0.00     0.050 A 
HETATM   36  C   UNL     1      29.560  43.075  54.706  1.00  0.00     0.016 A 
HETATM   37  C   UNL     1      29.077  42.330  53.633  1.00  0.00     0.003 A 
HETATM   38  C   UNL     1      28.196  42.913  52.720  1.00  0.00     0.029 A 
BRANCH  35  39
HETATM   39  C   UNL     1      29.680  45.219  56.038  1.00  0.00     0.417 C 
HETATM   40  F   UNL     1      30.608  44.561  56.787  1.00  0.00    -0.166 F 
HETATM   41  F   UNL     1      30.281  46.380  55.648  1.00  0.00    -0.166 F 
HETATM   42  F   UNL     1      28.691  45.585  56.900  1.00  0.00    -0.166 F 
ENDBRANCH  35  39
ENDBRANCH  30  33
ENDBRANCH   9  29
TORSDOF 9
ENDMDL
MODEL 2
REMARK VINA RESULT:     -10.6      1.024      1.626
REMARK  9 active torsions:
REMARK  status: ('A' for Active; 'I' for Inactive)
REMARK    1  A    between atoms: C_4  and  S_5 
REMARK    2  A    between atoms: S_5  and  C_6 
REMARK    3  A    between atoms: C_6  and  C_7 
REMARK       I    between atoms: C_7  and  N_8 
REMARK    4  A    between atoms: N_8  and  C_9 
REMARK    5  A    between atoms: C_9  and  C_10 
REMARK    6  A    between atoms: C_20  and  C_21 
REMARK    7  A    between atoms: C_26  and  C_27 
REMARK       I    between atoms: C_27  and  N_28 
REMARK    8  A    between atoms: N_28  and  C_29 
REMARK    9  A    between atoms: C_31  and  C_32 
ROOT
HETATM    1  C   UNL     1      24.036  43.072  50.610  1.00  0.00     0.069 C 
HETATM    2  C   UNL     1      23.965  44.540  50.258  1.00  0.00     0.019 C 
HETATM    3  N   UNL     1      23.192  44.844  49.151  1.00  0.00    -0.353 N 
HETATM    4  C   UNL     1      22.843  46.112  48.723  1.00  0.00     0.087 C 
HETATM    5  C   UNL     1      23.472  47.166  49.297  1.00  0.00     0.057 C 
HETATM    6  C   UNL     1      23.318  48.605  48.832  1.00  0.00     0.019 C 
HETATM    7  N   UNL     1      23.189  49.799  48.448  1.00  0.00    -0.096 N 
HETATM    8  C   UNL     1      24.552  46.954  50.369  1.00  0.00     0.129 C 
HETATM    9  C   UNL     1      24.601  45.532  50.927  1.00  0.00     0.048 C 
HETATM   10  H   UNL     1      22.823  44.061  48.620  1.00  0.00     0.166 HD
ENDROOT
BRANCH   4  11
HETATM   11  S   UNL     1      21.672  46.352  47.429  1.00  0.00    -0.102 SA
BRANCH  11  12
HETATM   12  C   UNL     1      20.155  45.726  48.214  1.00  0.00     0.183 C 
BRANCH  12  13
HETATM   13  C   UNL     1      19.196  46.815  48.656  1.00  0.00     0.227 C 
HETATM   14  N   UNL     1      19.600  47.621  49.692  1.00  0.00    -0.356 N 
HETATM   15  H   UNL     1      20.489  47.448  50.146  1.00  0.00     0.162 HD
HETATM   16  O   UNL     1      18.073  46.898  48.158  1.00  0.00    -0.273 OA
BRANCH  14  17
HETATM   17  C   UNL     1      18.674  48.558  50.288  1.00  0.00     0.161 C 
BRANCH  17  18
HETATM   18  C   UNL     1      18.815  49.954  49.746  1.00  0.00    -0.041 A 
HETATM   19  C   UNL     1      19.925  50.322  48.970  1.00  0.00     0.009 A 
HETATM   20  C   UNL     1      20.012  51.601  48.417  1.00  0.00     0.001 A 
HETATM   21  C   UNL     1      18.986  52.522  48.621  1.00  0.00     0.000 A 
HETATM   22  C   UNL     1      17.873  52.166  49.380  1.00  0.00     0.001 A 
HETATM   23  C   UNL     1      17.786  50.889  49.937  1.00  0.00     0.009 A 
ENDBRANCH  17  18
ENDBRANCH  14  17
ENDBRANCH  12  13
ENDBRANCH  11  12
ENDBRANCH   4  11
BRANCH   8  24
HETATM   24  C   UNL     1      25.903  47.399  49.854  1.00  0.00     0.066 A 
HETATM   25  O   UNL     1      26.745  46.408  49.437  1.00  0.00    -0.326 OA
HETATM   26  C   UNL     1      27.890  47.009  49.023  1.00  0.00     0.142 A 
HETATM   27  C   UNL     1      27.788  48.374  49.143  1.00  0.00     0.027 A 
HETATM   28  C   UNL     1      26.501  48.630  49.675  1.00  0.00     0.035 A 
ENDBRANCH   8  24
BRANCH   9  29
HETATM   29  C   UNL     1      25.269  45.251  52.252  1.00  0.00     0.255 C 
HETATM   30  N   UNL     1      26.554  45.724  52.397  1.00  0.00    -0.323 N 
HETATM   31  H   UNL     1      26.963  46.275  51.654  1.00  0.00     0.169 HD
HETATM   32  O   UNL     1      24.636  44.689  53.141  1.00  0.00    -0.268 OA
BRANCH  30  33
HETATM   33  C   UNL     1      27.420  45.524  53.497  1.00  0.00     0.035 A 
HETATM   34  C   UNL     1      28.264  44.421  53.643  1.00  0.00     0.045 A 
HETATM   35  C   UNL     1      29.125  44.310  54.751  1.00  0.00     0.050 A 
HETATM   36  C   UNL     1      29.107  45.311  55.734  1.00  0.00     0.016 A 
HETATM   37  C   UNL     1      28.267  46.413  55.597  1.00  0.00     0.003 A 
HETATM   38  C   UNL     1      27.437  46.522  54.481  1.00  0.00     0.029 A 
BRANCH  35  39
HETATM   39  C   UNL     1      30.036  43.116  54.893  1.00  0.00     0.417 C 
HETATM   40  F   UNL     1      30.755  43.116  56.050  1.00  0.00    -0.166 F 
HETATM   41  F   UNL     1      29.360  41.931  54.883  1.00  0.00    -0.166 F 
HETATM   42  F   UNL     1      30.945  43.032  53.883  1.00  0.00    -0.166 F 
ENDBRANCH  35  39
ENDBRANCH  30  33
ENDBRANCH   9  29
TORSDOF 9
ENDMDL
MODEL 3
REMARK VINA RESULT:      -9.9      4.562      8.580
REMARK  9 active torsions:
REMARK  status: ('A' for Active; 'I' for Inactive)
REMARK    1  A    between atoms: C_4  and  S_5 
REMARK    2  A    between atoms: S_5  and  C_6 
REMARK    3  A    between atoms: C_6  and  C_7 
REMARK       I    between atoms: C_7  and  N_8 
REMARK    4  A    between atoms: N_8  and  C_9 
REMARK    5  A    between atoms: C_9  and  C_10 
REMARK    6  A    between atoms: C_20  and  C_21 
REMARK    7  A    between atoms: C_26  and  C_27 
REMARK       I    between atoms: C_27  and  N_28 
REMARK    8  A    between atoms: N_28  and  C_29 
REMARK    9  A    between atoms: C_31  and  C_32 
ROOT
HETATM    1  C   UNL     1      28.226  41.202  51.672  1.00  0.00     0.069 C 
HETATM    2  C   UNL     1      26.953  41.947  51.342  1.00  0.00     0.019 C 
HETATM    3  N   UNL     1      26.294  41.514  50.205  1.00  0.00    -0.353 N 
HETATM    4  C   UNL     1      25.041  41.922  49.783  1.00  0.00     0.087 C 
HETATM    5  C   UNL     1      24.483  42.988  50.405  1.00  0.00     0.057 C 
HETATM    6  C   UNL     1      23.191  43.653  49.958  1.00  0.00     0.019 C 
HETATM    7  N   UNL     1      22.119  44.204  49.589  1.00  0.00    -0.096 N 
HETATM    8  C   UNL     1      25.230  43.731  51.524  1.00  0.00     0.129 C 
HETATM    9  C   UNL     1      26.449  42.982  52.058  1.00  0.00     0.048 C 
HETATM   10  H   UNL     1      26.762  40.810  49.643  1.00  0.00     0.166 HD
ENDROOT
BRANCH   4  11
HETATM   11  S   UNL     1      24.225  41.128  48.438  1.00  0.00    -0.102 SA
BRANCH  11  12
HETATM   12  C   UNL     1      25.550  41.112  47.190  1.00  0.00     0.183 C 
BRANCH  12  13
HETATM   13  C   UNL     1      26.221  39.763  47.023  1.00  0.00     0.227 C 
HETATM   14  N   UNL     1      26.013  38.833  48.012  1.00  0.00    -0.356 N 
HETATM   15  H   UNL     1      25.459  39.079  48.824  1.00  0.00     0.162 HD
HETATM   16  O   UNL     1      26.990  39.561  46.082  1.00  0.00    -0.273 OA
BRANCH  14  17
HETATM   17  C   UNL     1      26.761  37.596  48.016  1.00  0.00     0.161 C 
BRANCH  17  18
HETATM   18  C   UNL     1      27.958  37.632  48.928  1.00  0.00    -0.041 A 
HETATM   19  C   UNL     1      27.988  36.887  50.116  1.00  0.00     0.009 A 
HETATM   20  C   UNL     1      29.130  36.876  50.919  1.00  0.00     0.001 A 
HETATM   21  C   UNL     1      30.259  37.598  50.537  1.00  0.00     0.000 A 
HETATM   22  C   UNL     1      30.248  38.333  49.354  1.00  0.00     0.001 A 
HETATM   23  C   UNL     1      29.105  38.349  48.552  1.00  0.00     0.009 A 
ENDBRANCH  17  18
ENDBRANCH  14  17
ENDBRANCH  12  13
ENDBRANCH  11  12
ENDBRANCH   4  11
BRANCH   8  24
HETATM   24  C   UNL     1      25.584  45.134  51.082  1.00  0.00     0.066 A 
HETATM   25  O   UNL     1      26.343  45.234  49.951  1.00  0.00    -0.326 OA
HETATM   26  C   UNL     1      26.553  46.558  49.731  1.00  0.00     0.142 A 
HETATM   27  C   UNL     1      25.918  47.312  50.690  1.00  0.00     0.027 A 
HETATM   28  C   UNL     1      25.286  46.392  51.562  1.00  0.00     0.035 A 
ENDBRANCH   8  24
BRANCH   9  29
HETATM   29  C   UNL     1      27.030  43.327  53.408  1.00  0.00     0.255 C 
HETATM   30  N   UNL     1      28.104  44.189  53.406  1.00  0.00    -0.323 N 
HETATM   31  H   UNL     1      28.412  44.589  52.529  1.00  0.00     0.169 HD
HETATM   32  O   UNL     1      26.497  42.893  54.425  1.00  0.00    -0.268 OA
BRANCH  30  33
HETATM   33  C   UNL     1      28.874  44.601  54.519  1.00  0.00     0.035 A 
HETATM   34  C   UNL     1      29.809  43.795  55.169  1.00  0.00     0.045 A 
HETATM   35  C   UNL     1      30.564  44.289  56.250  1.00  0.00     0.050 A 
HETATM   36  C   UNL     1      30.345  45.602  56.693  1.00  0.00     0.016 A 
HETATM   37  C   UNL     1      29.412  46.412  56.050  1.00  0.00     0.003 A 
HETATM   38  C   UNL     1      28.689  45.917  54.964  1.00  0.00     0.029 A 
BRANCH  35  39
HETATM   39  C   UNL     1      31.575  43.408  56.940  1.00  0.00     0.417 C 
HETATM   40  F   UNL     1      31.039  42.264  57.452  1.00  0.00    -0.166 F 
HETATM   41  F   UNL     1      32.577  43.002  56.109  1.00  0.00    -0.166 F 
HETATM   42  F   UNL     1      32.188  44.036  57.981  1.00  0.00    -0.166 F 
ENDBRANCH  35  39
ENDBRANCH  30  33
ENDBRANCH   9  29
TORSDOF 9
ENDMDL
MODEL 4
REMARK VINA RESULT:      -9.7      1.711      2.325
REMARK  9 active torsions:
REMARK  status: ('A' for Active; 'I' for Inactive)
REMARK    1  A    between atoms: C_4  and  S_5 
REMARK    2  A    between atoms: S_5  and  C_6 
REMARK    3  A    between atoms: C_6  and  C_7 
REMARK       I    between atoms: C_7  and  N_8 
REMARK    4  A    between atoms: N_8  and  C_9 
REMARK    5  A    between atoms: C_9  and  C_10 
REMARK    6  A    between atoms: C_20  and  C_21 
REMARK    7  A    between atoms: C_26  and  C_27 
REMARK       I    between atoms: C_27  and  N_28 
REMARK    8  A    between atoms: N_28  and  C_29 
REMARK    9  A    between atoms: C_31  and  C_32 
ROOT
HETATM    1  C   UNL     1      23.916  44.105  48.505  1.00  0.00     0.069 C 
HETATM    2  C   UNL     1      23.630  45.553  48.832  1.00  0.00     0.019 C 
HETATM    3  N   UNL     1      22.518  46.090  48.207  1.00  0.00    -0.353 N 
HETATM    4  C   UNL     1      21.960  47.330  48.461  1.00  0.00     0.087 C 
HETATM    5  C   UNL     1      22.665  48.193  49.230  1.00  0.00     0.057 C 
HETATM    6  C   UNL     1      22.265  49.640  49.470  1.00  0.00     0.019 C 
HETATM    7  N   UNL     1      21.934  50.840  49.671  1.00  0.00    -0.096 N 
HETATM    8  C   UNL     1      24.048  47.813  49.780  1.00  0.00     0.129 C 
HETATM    9  C   UNL     1      24.377  46.327  49.657  1.00  0.00     0.048 C 
HETATM   10  H   UNL     1      22.053  45.508  47.518  1.00  0.00     0.166 HD
ENDROOT
BRANCH   4  11
HETATM   11  S   UNL     1      20.416  47.800  47.753  1.00  0.00    -0.102 SA
BRANCH  11  12
HETATM   12  C   UNL     1      19.268  47.339  49.087  1.00  0.00     0.183 C 
BRANCH  12  13
HETATM   13  C   UNL     1      18.761  48.517  49.897  1.00  0.00     0.227 C 
HETATM   14  N   UNL     1      18.619  49.714  49.239  1.00  0.00    -0.356 N 
HETATM   15  H   UNL     1      18.884  49.785  48.264  1.00  0.00     0.162 HD
HETATM   16  O   UNL     1      18.578  48.407  51.110  1.00  0.00    -0.273 OA
BRANCH  14  17
HETATM   17  C   UNL     1      18.317  50.919  49.979  1.00  0.00     0.161 C 
BRANCH  17  18
HETATM   18  C   UNL     1      17.193  51.717  49.376  1.00  0.00    -0.041 A 
HETATM   19  C   UNL     1      16.594  51.328  48.169  1.00  0.00     0.009 A 
HETATM   20  C   UNL     1      15.508  52.038  47.654  1.00  0.00     0.001 A 
HETATM   21  C   UNL     1      14.999  53.135  48.346  1.00  0.00     0.000 A 
HETATM   22  C   UNL     1      15.577  53.526  49.552  1.00  0.00     0.001 A 
HETATM   23  C   UNL     1      16.666  52.819  50.066  1.00  0.00     0.009 A 
ENDBRANCH  17  18
ENDBRANCH  14  17
ENDBRANCH  12  13
ENDBRANCH  11  12
ENDBRANCH   4  11
BRANCH   8  24
HETATM   24  C   UNL     1      25.122  48.678  49.156  1.00  0.00     0.066 A 
HETATM   25  O   UNL     1      24.720  49.493  48.137  1.00  0.00    -0.326 OA
HETATM   26  C   UNL     1      25.819  50.171  47.716  1.00  0.00     0.142 A 
HETATM   27  C   UNL     1      26.917  49.823  48.467  1.00  0.00     0.027 A 
HETATM   28  C   UNL     1      26.467  48.861  49.404  1.00  0.00     0.035 A 
ENDBRANCH   8  24
BRANCH   9  29
HETATM   29  C   UNL     1      25.459  45.707  50.508  1.00  0.00     0.255 C 
HETATM   30  N   UNL     1      25.212  45.655  51.863  1.00  0.00    -0.323 N 
HETATM   31  H   UNL     1      24.317  45.972  52.212  1.00  0.00     0.169 HD
HETATM   32  O   UNL     1      26.454  45.230  49.970  1.00  0.00    -0.268 OA
BRANCH  30  33
HETATM   33  C   UNL     1      26.090  45.205  52.876  1.00  0.00     0.035 A 
HETATM   34  C   UNL     1      26.921  46.039  53.625  1.00  0.00     0.045 A 
HETATM   35  C   UNL     1      27.742  45.520  54.643  1.00  0.00     0.050 A 
HETATM   36  C   UNL     1      27.742  44.138  54.882  1.00  0.00     0.016 A 
HETATM   37  C   UNL     1      26.917  43.298  54.138  1.00  0.00     0.003 A 
HETATM   38  C   UNL     1      26.090  43.830  53.149  1.00  0.00     0.029 A 
BRANCH  35  39
HETATM   39  C   UNL     1      28.631  46.435  55.448  1.00  0.00     0.417 C 
HETATM   40  F   UNL     1      28.185  46.645  56.718  1.00  0.00    -0.166 F 
HETATM   41  F   UNL     1      29.901  45.956  55.581  1.00  0.00    -0.166 F 
HETATM   42  F   UNL     1      28.757  47.667  54.884  1.00  0.00    -0.166 F 
ENDBRANCH  35  39
ENDBRANCH  30  33
ENDBRANCH   9  29
TORSDOF 9
ENDMDL
MODEL 5
REMARK VINA RESULT:      -9.6      2.321      3.124
REMARK  9 active torsions:
REMARK  status: ('A' for Active; 'I' for Inactive)
REMARK    1  A    between atoms: C_4  and  S_5 
REMARK    2  A    between atoms: S_5  and  C_6 
REMARK    3  A    between atoms: C_6  and  C_7 
REMARK       I    between atoms: C_7  and  N_8 
REMARK    4  A    between atoms: N_8  and  C_9 
REMARK    5  A    between atoms: C_9  and  C_10 
REMARK    6  A    between atoms: C_20  and  C_21 
REMARK    7  A    between atoms: C_26  and  C_27 
REMARK       I    between atoms: C_27  and  N_28 
REMARK    8  A    between atoms: N_28  and  C_29 
REMARK    9  A    between atoms: C_31  and  C_32 
ROOT
HETATM    1  C   UNL     1      23.481  44.300  48.187  1.00  0.00     0.069 C 
HETATM    2  C   UNL     1      23.301  45.729  48.645  1.00  0.00     0.019 C 
HETATM    3  N   UNL     1      22.193  46.378  48.129  1.00  0.00    -0.353 N 
HETATM    4  C   UNL     1      21.725  47.623  48.511  1.00  0.00     0.087 C 
HETATM    5  C   UNL     1      22.519  48.377  49.307  1.00  0.00     0.057 C 
HETATM    6  C   UNL     1      22.221  49.819  49.685  1.00  0.00     0.019 C 
HETATM    7  N   UNL     1      21.974  51.015  50.000  1.00  0.00    -0.096 N 
HETATM    8  C   UNL     1      23.903  47.875  49.748  1.00  0.00     0.129 C 
HETATM    9  C   UNL     1      24.134  46.387  49.487  1.00  0.00     0.048 C 
HETATM   10  H   UNL     1      21.659  45.883  47.422  1.00  0.00     0.166 HD
ENDROOT
BRANCH   4  11
HETATM   11  S   UNL     1      20.179  48.237  47.930  1.00  0.00    -0.102 SA
BRANCH  11  12
HETATM   12  C   UNL     1      19.116  47.922  49.373  1.00  0.00     0.183 C 
BRANCH  12  13
HETATM   13  C   UNL     1      18.671  49.178  50.096  1.00  0.00     0.227 C 
HETATM   14  N   UNL     1      18.385  50.277  49.322  1.00  0.00    -0.356 N 
HETATM   15  H   UNL     1      18.510  50.230  48.318  1.00  0.00     0.162 HD
HETATM   16  O   UNL     1      18.661  49.220  51.326  1.00  0.00    -0.273 OA
BRANCH  14  17
HETATM   17  C   UNL     1      18.132  51.557  49.944  1.00  0.00     0.161 C 
BRANCH  17  18
HETATM   18  C   UNL     1      16.889  52.230  49.426  1.00  0.00    -0.041 A 
HETATM   19  C   UNL     1      16.248  53.236  50.164  1.00  0.00     0.009 A 
HETATM   20  C   UNL     1      15.135  53.899  49.643  1.00  0.00     0.001 A 
HETATM   21  C   UNL     1      14.659  53.575  48.374  1.00  0.00     0.000 A 
HETATM   22  C   UNL     1      15.293  52.586  47.625  1.00  0.00     0.001 A 
HETATM   23  C   UNL     1      16.403  51.919  48.146  1.00  0.00     0.009 A 
ENDBRANCH  17  18
ENDBRANCH  14  17
ENDBRANCH  12  13
ENDBRANCH  11  12
ENDBRANCH   4  11
BRANCH   8  24
HETATM   24  C   UNL     1      24.994  48.726  49.137  1.00  0.00     0.066 A 
HETATM   25  O   UNL     1      26.230  48.621  49.707  1.00  0.00    -0.326 OA
HETATM   26  C   UNL     1      27.053  49.458  49.025  1.00  0.00     0.142 A 
HETATM   27  C   UNL     1      26.371  50.081  48.007  1.00  0.00     0.027 A 
HETATM   28  C   UNL     1      25.039  49.605  48.074  1.00  0.00     0.035 A 
ENDBRANCH   8  24
BRANCH   9  29
HETATM   29  C   UNL     1      25.218  45.639  50.225  1.00  0.00     0.255 C 
HETATM   30  N   UNL     1      24.853  45.064  51.423  1.00  0.00    -0.323 N 
HETATM   31  H   UNL     1      23.887  45.116  51.719  1.00  0.00     0.169 HD
HETATM   32  O   UNL     1      26.327  45.520  49.712  1.00  0.00    -0.268 OA
BRANCH  30  33
HETATM   33  C   UNL     1      25.692  44.386  52.337  1.00  0.00     0.035 A 
HETATM   34  C   UNL     1      26.799  43.620  51.969  1.00  0.00     0.045 A 
HETATM   35  C   UNL     1      27.609  43.003  52.941  1.00  0.00     0.050 A 
HETATM   36  C   UNL     1      27.274  43.141  54.296  1.00  0.00     0.016 A 
HETATM   37  C   UNL     1      26.171  43.902  54.672  1.00  0.00     0.003 A 
HETATM   38  C   UNL     1      25.391  44.528  53.699  1.00  0.00     0.029 A 
BRANCH  35  39
HETATM   39  C   UNL     1      28.805  42.182  52.528  1.00  0.00     0.417 C 
HETATM   40  F   UNL     1      29.962  42.900  52.472  1.00  0.00    -0.166 F 
HETATM   41  F   UNL     1      29.057  41.149  53.382  1.00  0.00    -0.166 F 
HETATM   42  F   UNL     1      28.651  41.618  51.299  1.00  0.00    -0.166 F 
ENDBRANCH  35  39
ENDBRANCH  30  33
ENDBRANCH   9  29
TORSDOF 9
ENDMDL
MODEL 6
REMARK VINA RESULT:      -9.3      4.724      8.536
REMARK  9 active torsions:
REMARK  status: ('A' for Active; 'I' for Inactive)
REMARK    1  A    between atoms: C_4  and  S_5 
REMARK    2  A    between atoms: S_5  and  C_6 
REMARK    3  A    between atoms: C_6  and  C_7 
REMARK       I    between atoms: C_7  and  N_8 
REMARK    4  A    between atoms: N_8  and  C_9 
REMARK    5  A    between atoms: C_9  and  C_10 
REMARK    6  A    between atoms: C_20  and  C_21 
REMARK    7  A    between atoms: C_26  and  C_27 
REMARK       I    between atoms: C_27  and  N_28 
REMARK    8  A    between atoms: N_28  and  C_29 
REMARK    9  A    between atoms: C_31  and  C_32 
ROOT
HETATM    1  C   UNL     1      28.309  41.329  51.726  1.00  0.00     0.069 C 
HETATM    2  C   UNL     1      27.023  42.042  51.375  1.00  0.00     0.019 C 
HETATM    3  N   UNL     1      26.394  41.592  50.228  1.00  0.00    -0.353 N 
HETATM    4  C   UNL     1      25.138  41.968  49.786  1.00  0.00     0.087 C 
HETATM    5  C   UNL     1      24.543  43.019  50.398  1.00  0.00     0.057 C 
HETATM    6  C   UNL     1      23.242  43.651  49.930  1.00  0.00     0.019 C 
HETATM    7  N   UNL     1      22.162  44.174  49.544  1.00  0.00    -0.096 N 
HETATM    8  C   UNL     1      25.252  43.780  51.529  1.00  0.00     0.129 C 
HETATM    9  C   UNL     1      26.481  43.062  52.083  1.00  0.00     0.048 C 
HETATM   10  H   UNL     1      26.889  40.901  49.674  1.00  0.00     0.166 HD
ENDROOT
BRANCH   4  11
HETATM   11  S   UNL     1      24.365  41.154  48.427  1.00  0.00    -0.102 SA
BRANCH  11  12
HETATM   12  C   UNL     1      25.748  40.161  47.785  1.00  0.00     0.183 C 
BRANCH  12  13
HETATM   13  C   UNL     1      26.061  40.414  46.323  1.00  0.00     0.227 C 
HETATM   14  N   UNL     1      27.385  40.519  45.976  1.00  0.00    -0.356 N 
HETATM   15  H   UNL     1      28.099  40.460  46.693  1.00  0.00     0.162 HD
HETATM   16  O   UNL     1      25.152  40.607  45.515  1.00  0.00    -0.273 OA
BRANCH  14  17
HETATM   17  C   UNL     1      27.756  40.939  44.643  1.00  0.00     0.161 C 
BRANCH  17  18
HETATM   18  C   UNL     1      28.785  40.043  44.006  1.00  0.00    -0.041 A 
HETATM   19  C   UNL     1      28.789  38.661  44.243  1.00  0.00     0.009 A 
HETATM   20  C   UNL     1      29.706  37.832  43.594  1.00  0.00     0.001 A 
HETATM   21  C   UNL     1      30.619  38.373  42.691  1.00  0.00     0.000 A 
HETATM   22  C   UNL     1      30.619  39.743  42.437  1.00  0.00     0.001 A 
HETATM   23  C   UNL     1      29.705  40.573  43.089  1.00  0.00     0.009 A 
ENDBRANCH  17  18
ENDBRANCH  14  17
ENDBRANCH  12  13
ENDBRANCH  11  12
ENDBRANCH   4  11
BRANCH   8  24
HETATM   24  C   UNL     1      25.578  45.192  51.093  1.00  0.00     0.066 A 
HETATM   25  O   UNL     1      26.370  45.312  49.987  1.00  0.00    -0.326 OA
HETATM   26  C   UNL     1      26.546  46.641  49.769  1.00  0.00     0.142 A 
HETATM   27  C   UNL     1      25.857  47.378  50.703  1.00  0.00     0.027 A 
HETATM   28  C   UNL     1      25.224  46.443  51.557  1.00  0.00     0.035 A 
ENDBRANCH   8  24
BRANCH   9  29
HETATM   29  C   UNL     1      27.031  43.422  53.443  1.00  0.00     0.255 C 
HETATM   30  N   UNL     1      28.167  44.202  53.453  1.00  0.00    -0.323 N 
HETATM   31  H   UNL     1      28.539  44.539  52.575  1.00  0.00     0.169 HD
HETATM   32  O   UNL     1      26.425  43.073  54.452  1.00  0.00    -0.268 OA
BRANCH  30  33
HETATM   33  C   UNL     1      28.919  44.604  54.581  1.00  0.00     0.035 A 
HETATM   34  C   UNL     1      29.862  43.800  55.224  1.00  0.00     0.045 A 
HETATM   35  C   UNL     1      30.598  44.284  56.321  1.00  0.00     0.050 A 
HETATM   36  C   UNL     1      30.353  45.584  56.788  1.00  0.00     0.016 A 
HETATM   37  C   UNL     1      29.414  46.391  56.154  1.00  0.00     0.003 A 
HETATM   38  C   UNL     1      28.709  45.907  55.051  1.00  0.00     0.029 A 
BRANCH  35  39
HETATM   39  C   UNL     1      31.617  43.406  57.003  1.00  0.00     0.417 C 
HETATM   40  F   UNL     1      31.088  42.262  57.522  1.00  0.00    -0.166 F 
HETATM   41  F   UNL     1      32.612  43.000  56.163  1.00  0.00    -0.166 F 
HETATM   42  F   UNL     1      32.240  44.036  58.037  1.00  0.00    -0.166 F 
ENDBRANCH  35  39
ENDBRANCH  30  33
ENDBRANCH   9  29
TORSDOF 9
ENDMDL
MODEL 7
REMARK VINA RESULT:      -9.3      3.493      6.829
REMARK  9 active torsions:
REMARK  status: ('A' for Active; 'I' for Inactive)
REMARK    1  A    between atoms: C_4  and  S_5 
REMARK    2  A    between atoms: S_5  and  C_6 
REMARK    3  A    between atoms: C_6  and  C_7 
REMARK       I    between atoms: C_7  and  N_8 
REMARK    4  A    between atoms: N_8  and  C_9 
REMARK    5  A    between atoms: C_9  and  C_10 
REMARK    6  A    between atoms: C_20  and  C_21 
REMARK    7  A    between atoms: C_26  and  C_27 
REMARK       I    between atoms: C_27  and  N_28 
REMARK    8  A    between atoms: N_28  and  C_29 
REMARK    9  A    between atoms: C_31  and  C_32 
ROOT
HETATM    1  C   UNL     1      26.198  41.746  50.505  1.00  0.00     0.069 C 
HETATM    2  C   UNL     1      25.490  43.045  50.192  1.00  0.00     0.019 C 
HETATM    3  N   UNL     1      24.702  43.027  49.055  1.00  0.00    -0.353 N 
HETATM    4  C   UNL     1      23.837  44.027  48.646  1.00  0.00     0.087 C 
HETATM    5  C   UNL     1      23.908  45.220  49.283  1.00  0.00     0.057 C 
HETATM    6  C   UNL     1      23.143  46.461  48.852  1.00  0.00     0.019 C 
HETATM    7  N   UNL     1      22.507  47.490  48.496  1.00  0.00    -0.096 N 
HETATM    8  C   UNL     1      24.931  45.459  50.405  1.00  0.00     0.129 C 
HETATM    9  C   UNL     1      25.591  44.182  50.923  1.00  0.00     0.048 C 
HETATM   10  H   UNL     1      24.740  42.190  48.482  1.00  0.00     0.166 HD
ENDROOT
BRANCH   4  11
HETATM   11  S   UNL     1      22.729  43.784  47.298  1.00  0.00    -0.102 SA
BRANCH  11  12
HETATM   12  C   UNL     1      22.405  41.998  47.433  1.00  0.00     0.183 C 
BRANCH  12  13
HETATM   13  C   UNL     1      23.404  41.134  46.688  1.00  0.00     0.227 C 
HETATM   14  N   UNL     1      23.857  40.007  47.328  1.00  0.00    -0.356 N 
HETATM   15  H   UNL     1      23.547  39.806  48.272  1.00  0.00     0.162 HD
HETATM   16  O   UNL     1      23.847  41.493  45.596  1.00  0.00    -0.273 OA
BRANCH  14  17
HETATM   17  C   UNL     1      24.940  39.235  46.762  1.00  0.00     0.161 C 
BRANCH  17  18
HETATM   18  C   UNL     1      26.262  39.490  47.433  1.00  0.00    -0.041 A 
HETATM   19  C   UNL     1      26.745  38.634  48.434  1.00  0.00     0.009 A 
HETATM   20  C   UNL     1      28.003  38.844  49.002  1.00  0.00     0.001 A 
HETATM   21  C   UNL     1      28.798  39.903  48.567  1.00  0.00     0.000 A 
HETATM   22  C   UNL     1      28.336  40.755  47.566  1.00  0.00     0.001 A 
HETATM   23  C   UNL     1      27.077  40.549  47.001  1.00  0.00     0.009 A 
ENDBRANCH  17  18
ENDBRANCH  14  17
ENDBRANCH  12  13
ENDBRANCH  11  12
ENDBRANCH   4  11
BRANCH   8  24
HETATM   24  C   UNL     1      25.958  46.484  49.975  1.00  0.00     0.066 A 
HETATM   25  O   UNL     1      27.102  45.992  49.415  1.00  0.00    -0.326 OA
HETATM   26  C   UNL     1      27.883  47.060  49.108  1.00  0.00     0.142 A 
HETATM   27  C   UNL     1      27.247  48.233  49.439  1.00  0.00     0.027 A 
HETATM   28  C   UNL     1      25.998  47.863  49.994  1.00  0.00     0.035 A 
ENDBRANCH   8  24
BRANCH   9  29
HETATM   29  C   UNL     1      26.268  44.162  52.272  1.00  0.00     0.255 C 
HETATM   30  N   UNL     1      27.636  44.321  52.269  1.00  0.00    -0.323 N 
HETATM   31  H   UNL     1      28.109  44.498  51.392  1.00  0.00     0.169 HD
HETATM   32  O   UNL     1      25.586  44.074  53.289  1.00  0.00    -0.268 OA
BRANCH  30  33
HETATM   33  C   UNL     1      28.508  44.257  53.381  1.00  0.00     0.035 A 
HETATM   34  C   UNL     1      28.464  45.136  54.465  1.00  0.00     0.045 A 
HETATM   35  C   UNL     1      29.343  44.988  55.554  1.00  0.00     0.050 A 
HETATM   36  C   UNL     1      30.294  43.957  55.528  1.00  0.00     0.016 A 
HETATM   37  C   UNL     1      30.345  43.076  54.451  1.00  0.00     0.003 A 
HETATM   38  C   UNL     1      29.451  43.221  53.389  1.00  0.00     0.029 A 
BRANCH  35  39
HETATM   39  C   UNL     1      29.281  45.942  56.720  1.00  0.00     0.417 C 
HETATM   40  F   UNL     1      30.496  46.453  57.068  1.00  0.00    -0.166 F 
HETATM   41  F   UNL     1      28.486  47.023  56.477  1.00  0.00    -0.166 F 
HETATM   42  F   UNL     1      28.781  45.359  57.844  1.00  0.00    -0.166 F 
ENDBRANCH  35  39
ENDBRANCH  30  33
ENDBRANCH   9  29
TORSDOF 9
ENDMDL
MODEL 8
REMARK VINA RESULT:      -9.3      4.392      8.358
REMARK  9 active torsions:
REMARK  status: ('A' for Active; 'I' for Inactive)
REMARK    1  A    between atoms: C_4  and  S_5 
REMARK    2  A    between atoms: S_5  and  C_6 
REMARK    3  A    between atoms: C_6  and  C_7 
REMARK       I    between atoms: C_7  and  N_8 
REMARK    4  A    between atoms: N_8  and  C_9 
REMARK    5  A    between atoms: C_9  and  C_10 
REMARK    6  A    between atoms: C_20  and  C_21 
REMARK    7  A    between atoms: C_26  and  C_27 
REMARK       I    between atoms: C_27  and  N_28 
REMARK    8  A    between atoms: N_28  and  C_29 
REMARK    9  A    between atoms: C_31  and  C_32 
ROOT
HETATM    1  C   UNL     1      28.006  40.953  51.454  1.00  0.00     0.069 C 
HETATM    2  C   UNL     1      26.791  41.788  51.123  1.00  0.00     0.019 C 
HETATM    3  N   UNL     1      26.077  41.376  50.011  1.00  0.00    -0.353 N 
HETATM    4  C   UNL     1      24.853  41.870  49.598  1.00  0.00     0.087 C 
HETATM    5  C   UNL     1      24.394  42.995  50.196  1.00  0.00     0.057 C 
HETATM    6  C   UNL     1      23.151  43.748  49.751  1.00  0.00     0.019 C 
HETATM    7  N   UNL     1      22.118  44.373  49.383  1.00  0.00    -0.096 N 
HETATM    8  C   UNL     1      25.219  43.709  51.279  1.00  0.00     0.129 C 
HETATM    9  C   UNL     1      26.385  42.880  51.816  1.00  0.00     0.048 C 
HETATM   10  H   UNL     1      26.477  40.621  49.463  1.00  0.00     0.166 HD
ENDROOT
BRANCH   4  11
HETATM   11  S   UNL     1      23.951  41.106  48.292  1.00  0.00    -0.102 SA
BRANCH  11  12
HETATM   12  C   UNL     1      25.025  41.469  46.869  1.00  0.00     0.183 C 
BRANCH  12  13
HETATM   13  C   UNL     1      25.933  40.320  46.474  1.00  0.00     0.227 C 
HETATM   14  N   UNL     1      26.021  39.264  47.347  1.00  0.00    -0.356 N 
HETATM   15  H   UNL     1      25.517  39.295  48.226  1.00  0.00     0.162 HD
HETATM   16  O   UNL     1      26.624  40.392  45.457  1.00  0.00    -0.273 OA
BRANCH  14  17
HETATM   17  C   UNL     1      26.998  38.221  47.130  1.00  0.00     0.161 C 
BRANCH  17  18
HETATM   18  C   UNL     1      27.874  37.972  48.329  1.00  0.00    -0.041 A 
HETATM   19  C   UNL     1      27.416  37.213  49.416  1.00  0.00     0.009 A 
HETATM   20  C   UNL     1      28.260  36.934  50.492  1.00  0.00     0.001 A 
HETATM   21  C   UNL     1      29.574  37.397  50.488  1.00  0.00     0.000 A 
HETATM   22  C   UNL     1      30.046  38.143  49.410  1.00  0.00     0.001 A 
HETATM   23  C   UNL     1      29.202  38.426  48.335  1.00  0.00     0.009 A 
ENDBRANCH  17  18
ENDBRANCH  14  17
ENDBRANCH  12  13
ENDBRANCH  11  12
ENDBRANCH   4  11
BRANCH   8  24
HETATM   24  C   UNL     1      25.676  45.065  50.788  1.00  0.00     0.066 A 
HETATM   25  O   UNL     1      25.194  46.145  51.470  1.00  0.00    -0.326 OA
HETATM   26  C   UNL     1      25.712  47.251  50.876  1.00  0.00     0.142 A 
HETATM   27  C   UNL     1      26.540  46.897  49.838  1.00  0.00     0.027 A 
HETATM   28  C   UNL     1      26.523  45.482  49.782  1.00  0.00     0.035 A 
ENDBRANCH   8  24
BRANCH   9  29
HETATM   29  C   UNL     1      27.017  43.217  53.144  1.00  0.00     0.255 C 
HETATM   30  N   UNL     1      28.349  43.569  53.112  1.00  0.00    -0.323 N 
HETATM   31  H   UNL     1      28.817  43.642  52.218  1.00  0.00     0.169 HD
HETATM   32  O   UNL     1      26.325  43.228  54.158  1.00  0.00    -0.268 OA
BRANCH  30  33
HETATM   33  C   UNL     1      29.187  43.848  54.217  1.00  0.00     0.035 A 
HETATM   34  C   UNL     1      28.893  44.782  55.212  1.00  0.00     0.045 A 
HETATM   35  C   UNL     1      29.762  44.978  56.301  1.00  0.00     0.050 A 
HETATM   36  C   UNL     1      30.954  44.241  56.365  1.00  0.00     0.016 A 
HETATM   37  C   UNL     1      31.256  43.308  55.376  1.00  0.00     0.003 A 
HETATM   38  C   UNL     1      30.373  43.107  54.315  1.00  0.00     0.029 A 
BRANCH  35  39
HETATM   39  C   UNL     1      29.428  45.987  57.371  1.00  0.00     0.417 C 
HETATM   40  F   UNL     1      28.481  46.890  56.990  1.00  0.00    -0.166 F 
HETATM   41  F   UNL     1      28.946  45.411  58.510  1.00  0.00    -0.166 F 
HETATM   42  F   UNL     1      30.512  46.716  57.755  1.00  0.00    -0.166 F 
ENDBRANCH  35  39
ENDBRANCH  30  33
ENDBRANCH   9  29
TORSDOF 9
ENDMDL
MODEL 9
REMARK VINA RESULT:      -9.2      1.925      2.372
REMARK  9 active torsions:
REMARK  status: ('A' for Active; 'I' for Inactive)
REMARK    1  A    between atoms: C_4  and  S_5 
REMARK    2  A    between atoms: S_5  and  C_6 
REMARK    3  A    between atoms: C_6  and  C_7 
REMARK       I    between atoms: C_7  and  N_8 
REMARK    4  A    between atoms: N_8  and  C_9 
REMARK    5  A    between atoms: C_9  and  C_10 
REMARK    6  A    between atoms: C_20  and  C_21 
REMARK    7  A    between atoms: C_26  and  C_27 
REMARK       I    between atoms: C_27  and  N_28 
REMARK    8  A    between atoms: N_28  and  C_29 
REMARK    9  A    between atoms: C_31  and  C_32 
ROOT
HETATM    1  C   UNL     1      23.335  43.877  48.302  1.00  0.00     0.069 C 
HETATM    2  C   UNL     1      23.296  45.333  48.706  1.00  0.00     0.019 C 
HETATM    3  N   UNL     1      22.467  46.135  47.943  1.00  0.00    -0.353 N 
HETATM    4  C   UNL     1      22.138  47.453  48.206  1.00  0.00     0.087 C 
HETATM    5  C   UNL     1      22.840  48.097  49.168  1.00  0.00     0.057 C 
HETATM    6  C   UNL     1      22.709  49.582  49.466  1.00  0.00     0.019 C 
HETATM    7  N   UNL     1      22.601  50.814  49.715  1.00  0.00    -0.096 N 
HETATM    8  C   UNL     1      23.977  47.392  49.924  1.00  0.00     0.129 C 
HETATM    9  C   UNL     1      24.008  45.878  49.723  1.00  0.00     0.048 C 
HETATM   10  H   UNL     1      22.037  45.707  47.129  1.00  0.00     0.166 HD
ENDROOT
BRANCH   4  11
HETATM   11  S   UNL     1      20.898  48.290  47.275  1.00  0.00    -0.102 SA
BRANCH  11  12
HETATM   12  C   UNL     1      19.532  47.091  47.361  1.00  0.00     0.183 C 
BRANCH  12  13
HETATM   13  C   UNL     1      18.156  47.727  47.409  1.00  0.00     0.227 C 
HETATM   14  N   UNL     1      18.002  48.933  46.769  1.00  0.00    -0.356 N 
HETATM   15  H   UNL     1      18.799  49.370  46.323  1.00  0.00     0.162 HD
HETATM   16  O   UNL     1      17.255  47.217  48.075  1.00  0.00    -0.273 OA
BRANCH  14  17
HETATM   17  C   UNL     1      16.778  49.686  46.923  1.00  0.00     0.161 C 
BRANCH  17  18
HETATM   18  C   UNL     1      16.865  50.744  47.990  1.00  0.00    -0.041 A 
HETATM   19  C   UNL     1      18.074  51.399  48.264  1.00  0.00     0.009 A 
HETATM   20  C   UNL     1      18.127  52.424  49.210  1.00  0.00     0.001 A 
HETATM   21  C   UNL     1      16.971  52.817  49.881  1.00  0.00     0.000 A 
HETATM   22  C   UNL     1      15.760  52.183  49.610  1.00  0.00     0.001 A 
HETATM   23  C   UNL     1      15.706  51.154  48.668  1.00  0.00     0.009 A 
ENDBRANCH  17  18
ENDBRANCH  14  17
ENDBRANCH  12  13
ENDBRANCH  11  12
ENDBRANCH   4  11
BRANCH   8  24
HETATM   24  C   UNL     1      25.308  48.028  49.590  1.00  0.00     0.066 A 
HETATM   25  O   UNL     1      25.298  48.953  48.585  1.00  0.00    -0.326 OA
HETATM   26  C   UNL     1      26.574  49.394  48.440  1.00  0.00     0.142 A 
HETATM   27  C   UNL     1      27.401  48.785  49.355  1.00  0.00     0.027 A 
HETATM   28  C   UNL     1      26.583  47.905  50.104  1.00  0.00     0.035 A 
ENDBRANCH   8  24
BRANCH   9  29
HETATM   29  C   UNL     1      24.747  44.990  50.696  1.00  0.00     0.255 C 
HETATM   30  N   UNL     1      25.897  44.396  50.225  1.00  0.00    -0.323 N 
HETATM   31  H   UNL     1      26.220  44.620  49.293  1.00  0.00     0.169 HD
HETATM   32  O   UNL     1      24.343  44.891  51.851  1.00  0.00    -0.268 OA
BRANCH  30  33
HETATM   33  C   UNL     1      26.718  43.465  50.902  1.00  0.00     0.035 A 
HETATM   34  C   UNL     1      27.655  43.808  51.878  1.00  0.00     0.045 A 
HETATM   35  C   UNL     1      28.412  42.819  52.535  1.00  0.00     0.050 A 
HETATM   36  C   UNL     1      28.238  41.475  52.175  1.00  0.00     0.016 A 
HETATM   37  C   UNL     1      27.307  41.124  51.201  1.00  0.00     0.003 A 
HETATM   38  C   UNL     1      26.545  42.113  50.576  1.00  0.00     0.029 A 
BRANCH  35  39
HETATM   39  C   UNL     1      29.417  43.204  53.591  1.00  0.00     0.417 C 
HETATM   40  F   UNL     1      30.711  43.094  53.176  1.00  0.00    -0.166 F 
HETATM   41  F   UNL     1      29.277  44.494  54.010  1.00  0.00    -0.166 F 
HETATM   42  F   UNL     1      29.314  42.437  54.712  1.00  0.00    -0.166 F 
ENDBRANCH  35  39
ENDBRANCH  30  33
ENDBRANCH   9  29
TORSDOF 9
ENDMDL
MODEL 10
REMARK VINA RESULT:      -9.1      4.960     10.879
REMARK  9 active torsions:
REMARK  status: ('A' for Active; 'I' for Inactive)
REMARK    1  A    between atoms: C_4  and  S_5 
REMARK    2  A    between atoms: S_5  and  C_6 
REMARK    3  A    between atoms: C_6  and  C_7 
REMARK       I    between atoms: C_7  and  N_8 
REMARK    4  A    between atoms: N_8  and  C_9 
REMARK    5  A    between atoms: C_9  and  C_10 
REMARK    6  A    between atoms: C_20  and  C_21 
REMARK    7  A    between atoms: C_26  and  C_27 
REMARK       I    between atoms: C_27  and  N_28 
REMARK    8  A    between atoms: N_28  and  C_29 
REMARK    9  A    between atoms: C_31  and  C_32 
ROOT
HETATM    1  C   UNL     1      24.745  49.230  48.687  1.00  0.00     0.069 C 
HETATM    2  C   UNL     1      24.378  47.809  49.051  1.00  0.00     0.019 C 
HETATM    3  N   UNL     1      25.410  47.049  49.571  1.00  0.00    -0.353 N 
HETATM    4  C   UNL     1      25.295  45.785  50.122  1.00  0.00     0.087 C 
HETATM    5  C   UNL     1      24.120  45.132  49.961  1.00  0.00     0.057 C 
HETATM    6  C   UNL     1      23.888  43.685  50.366  1.00  0.00     0.019 C 
HETATM    7  N   UNL     1      23.694  42.486  50.704  1.00  0.00    -0.096 N 
HETATM    8  C   UNL     1      22.965  45.766  49.170  1.00  0.00     0.129 C 
HETATM    9  C   UNL     1      23.151  47.257  48.891  1.00  0.00     0.048 C 
HETATM   10  H   UNL     1      26.334  47.469  49.573  1.00  0.00     0.166 HD
ENDROOT
BRANCH   4  11
HETATM   11  S   UNL     1      26.651  45.020  50.948  1.00  0.00    -0.102 SA
BRANCH  11  12
HETATM   12  C   UNL     1      26.145  45.201  52.686  1.00  0.00     0.183 C 
BRANCH  12  13
HETATM   13  C   UNL     1      26.939  44.342  53.651  1.00  0.00     0.227 C 
HETATM   14  N   UNL     1      28.294  44.254  53.442  1.00  0.00    -0.356 N 
HETATM   15  H   UNL     1      28.711  44.726  52.649  1.00  0.00     0.162 HD
HETATM   16  O   UNL     1      26.364  43.686  54.520  1.00  0.00    -0.273 OA
BRANCH  14  17
HETATM   17  C   UNL     1      29.087  43.316  54.203  1.00  0.00     0.161 C 
BRANCH  17  18
HETATM   18  C   UNL     1      29.801  43.951  55.366  1.00  0.00    -0.041 A 
HETATM   19  C   UNL     1      29.407  45.202  55.863  1.00  0.00     0.009 A 
HETATM   20  C   UNL     1      30.033  45.751  56.983  1.00  0.00     0.001 A 
HETATM   21  C   UNL     1      31.052  45.050  57.627  1.00  0.00     0.000 A 
HETATM   22  C   UNL     1      31.446  43.802  57.151  1.00  0.00     0.001 A 
HETATM   23  C   UNL     1      30.823  43.254  56.028  1.00  0.00     0.009 A 
ENDBRANCH  17  18
ENDBRANCH  14  17
ENDBRANCH  12  13
ENDBRANCH  11  12
ENDBRANCH   4  11
BRANCH   8  24
HETATM   24  C   UNL     1      22.702  44.987  47.900  1.00  0.00     0.066 A 
HETATM   25  O   UNL     1      21.500  44.345  47.825  1.00  0.00    -0.326 OA
HETATM   26  C   UNL     1      21.464  43.710  46.626  1.00  0.00     0.142 A 
HETATM   27  C   UNL     1      22.616  43.955  45.917  1.00  0.00     0.027 A 
HETATM   28  C   UNL     1      23.417  44.786  46.736  1.00  0.00     0.035 A 
ENDBRANCH   8  24
BRANCH   9  29
HETATM   29  C   UNL     1      21.968  48.123  48.530  1.00  0.00     0.255 C 
HETATM   30  N   UNL     1      21.256  48.650  49.585  1.00  0.00    -0.323 N 
HETATM   31  H   UNL     1      21.582  48.487  50.529  1.00  0.00     0.169 HD
HETATM   32  O   UNL     1      21.735  48.368  47.350  1.00  0.00    -0.268 OA
BRANCH  30  33
HETATM   33  C   UNL     1      20.070  49.417  49.519  1.00  0.00     0.035 A 
HETATM   34  C   UNL     1      18.876  48.972  48.947  1.00  0.00     0.045 A 
HETATM   35  C   UNL     1      17.725  49.782  48.951  1.00  0.00     0.050 A 
HETATM   36  C   UNL     1      17.795  51.065  49.512  1.00  0.00     0.016 A 
HETATM   37  C   UNL     1      18.981  51.518  50.082  1.00  0.00     0.003 A 
HETATM   38  C   UNL     1      20.108  50.695  50.094  1.00  0.00     0.029 A 
BRANCH  35  39
HETATM   39  C   UNL     1      16.441  49.285  48.334  1.00  0.00     0.417 C 
HETATM   40  F   UNL     1      16.511  49.135  46.982  1.00  0.00    -0.166 F 
HETATM   41  F   UNL     1      16.058  48.069  48.818  1.00  0.00    -0.166 F 
HETATM   42  F   UNL     1      15.394  50.123  48.567  1.00  0.00    -0.166 F 
ENDBRANCH  35  39
ENDBRANCH  30  33
ENDBRANCH   9  29
TORSDOF 9
ENDMDL
