MODEL 1
REMARK VINA RESULT:      -8.3      0.000      0.000
REMARK  3 active torsions:
REMARK  status: ('A' for Active; 'I' for Inactive)
REMARK    1  A    between atoms: C_9  and  C_10 
REMARK    2  A    between atoms: C_16  and  C_17 
REMARK       I    between atoms: C_17  and  N_18 
REMARK    3  A    between atoms: N_18  and  C_19 
ROOT
HETATM    1  C   UNL     1      29.968  42.639  53.375  1.00  0.00     0.070 C 
HETATM    2  C   UNL     1      28.815  42.187  52.516  1.00  0.00     0.037 A 
HETATM    3  N   UNL     1      29.110  41.207  51.574  1.00  0.00    -0.192 N 
HETATM    4  C   UNL     1      28.164  40.568  50.858  1.00  0.00     0.725 A 
HETATM    5  N   UNL     1      26.859  40.969  50.957  1.00  0.00    -0.082 N 
HETATM    6  N   UNL     1      26.038  40.127  50.287  1.00  0.00    -0.149 NA
HETATM    7  C   UNL     1      26.933  39.297  49.739  1.00  0.00     0.275 A 
HETATM    8  N   UNL     1      28.244  39.529  50.068  1.00  0.00    -0.054 NA
HETATM    9  C   UNL     1      26.401  42.077  51.797  1.00  0.00     0.221 A 
HETATM   10  C   UNL     1      27.541  42.629  52.641  1.00  0.00     0.064 A 
HETATM   11  H   UNL     1      30.060  40.847  51.548  1.00  0.00     0.184 HD
ENDROOT
BRANCH  10  12
HETATM   12  C   UNL     1      27.106  43.638  53.636  1.00  0.00     0.256 C 
HETATM   13  N   UNL     1      27.221  44.932  53.186  1.00  0.00    -0.322 N 
HETATM   14  H   UNL     1      27.500  45.053  52.219  1.00  0.00     0.169 HD
HETATM   15  O   UNL     1      26.661  43.258  54.712  1.00  0.00    -0.267 OA
BRANCH  13  16
HETATM   16  C   UNL     1      26.949  46.104  53.919  1.00  0.00     0.052 A 
HETATM   17  C   UNL     1      25.872  46.958  53.697  1.00  0.00     0.145 A 
HETATM   18  N   UNL     1      25.619  48.074  54.431  1.00  0.00    -0.271 NA
HETATM   19  C   UNL     1      26.475  48.350  55.435  1.00  0.00     0.116 A 
HETATM   20  C   UNL     1      27.574  47.567  55.739  1.00  0.00     0.021 A 
HETATM   21  C   UNL     1      27.814  46.433  54.966  1.00  0.00     0.032 A 
ENDBRANCH  13  16
ENDBRANCH  10  12
BRANCH   9  22
HETATM   22  C   UNL     1      25.760  43.140  50.911  1.00  0.00     0.064 A 
HETATM   23  N   UNL     1      26.575  43.953  50.178  1.00  0.00    -0.263 NA
HETATM   24  C   UNL     1      25.984  44.868  49.377  1.00  0.00     0.117 A 
HETATM   25  C   UNL     1      24.614  45.032  49.270  1.00  0.00     0.019 A 
HETATM   26  C   UNL     1      23.794  44.203  50.024  1.00  0.00     0.003 A 
HETATM   27  C   UNL     1      24.368  43.244  50.852  1.00  0.00     0.030 A 
ENDBRANCH   9  22
TORSDOF 3
ENDMDL
MODEL 2
REMARK VINA RESULT:      -8.1      2.103      2.944
REMARK  3 active torsions:
REMARK  status: ('A' for Active; 'I' for Inactive)
REMARK    1  A    between atoms: C_9  and  C_10 
REMARK    2  A    between atoms: C_16  and  C_17 
REMARK       I    between atoms: C_17  and  N_18 
REMARK    3  A    between atoms: N_18  and  C_19 
ROOT
HETATM    1  C   UNL     1      28.768  40.809  52.298  1.00  0.00     0.070 C 
HETATM    2  C   UNL     1      27.583  41.506  51.681  1.00  0.00     0.037 A 
HETATM    3  N   UNL     1      27.117  40.967  50.487  1.00  0.00    -0.192 N 
HETATM    4  C   UNL     1      25.965  41.355  49.906  1.00  0.00     0.725 A 
HETATM    5  N   UNL     1      25.267  42.410  50.431  1.00  0.00    -0.082 N 
HETATM    6  N   UNL     1      24.074  42.562  49.812  1.00  0.00    -0.149 NA
HETATM    7  C   UNL     1      24.165  41.618  48.868  1.00  0.00     0.275 A 
HETATM    8  N   UNL     1      25.303  40.854  48.895  1.00  0.00    -0.054 NA
HETATM    9  C   UNL     1      25.695  43.176  51.603  1.00  0.00     0.221 A 
HETATM   10  C   UNL     1      26.937  42.562  52.233  1.00  0.00     0.064 A 
HETATM   11  H   UNL     1      27.580  40.136  50.131  1.00  0.00     0.184 HD
ENDROOT
BRANCH  10  12
HETATM   12  C   UNL     1      27.320  43.189  53.520  1.00  0.00     0.256 C 
HETATM   13  N   UNL     1      28.612  43.658  53.534  1.00  0.00    -0.322 N 
HETATM   14  H   UNL     1      29.123  43.606  52.660  1.00  0.00     0.169 HD
HETATM   15  O   UNL     1      26.485  43.274  54.411  1.00  0.00    -0.267 OA
BRANCH  13  16
HETATM   16  C   UNL     1      29.282  44.243  54.627  1.00  0.00     0.052 A 
HETATM   17  C   UNL     1      28.964  45.472  55.199  1.00  0.00     0.145 A 
HETATM   18  N   UNL     1      29.614  46.007  56.267  1.00  0.00    -0.271 NA
HETATM   19  C   UNL     1      30.623  45.284  56.792  1.00  0.00     0.116 A 
HETATM   20  C   UNL     1      31.018  44.053  56.299  1.00  0.00     0.021 A 
HETATM   21  C   UNL     1      30.339  43.530  55.199  1.00  0.00     0.032 A 
ENDBRANCH  13  16
ENDBRANCH  10  12
BRANCH   9  22
HETATM   22  C   UNL     1      25.903  44.631  51.196  1.00  0.00     0.064 A 
HETATM   23  N   UNL     1      26.746  44.901  50.157  1.00  0.00    -0.263 NA
HETATM   24  C   UNL     1      26.892  46.196  49.796  1.00  0.00     0.117 A 
HETATM   25  C   UNL     1      26.250  47.251  50.420  1.00  0.00     0.019 A 
HETATM   26  C   UNL     1      25.398  46.965  51.479  1.00  0.00     0.003 A 
HETATM   27  C   UNL     1      25.218  45.643  51.873  1.00  0.00     0.030 A 
ENDBRANCH   9  22
TORSDOF 3
ENDMDL
MODEL 3
REMARK VINA RESULT:      -7.4     13.394     15.805
REMARK  3 active torsions:
REMARK  status: ('A' for Active; 'I' for Inactive)
REMARK    1  A    between atoms: C_9  and  C_10 
REMARK    2  A    between atoms: C_16  and  C_17 
REMARK       I    between atoms: C_17  and  N_18 
REMARK    3  A    between atoms: N_18  and  C_19 
ROOT
HETATM    1  C   UNL     1      28.765  53.253  38.147  1.00  0.00     0.070 C 
HETATM    2  C   UNL     1      28.714  51.801  38.548  1.00  0.00     0.037 A 
HETATM    3  N   UNL     1      27.453  51.304  38.860  1.00  0.00    -0.192 N 
HETATM    4  C   UNL     1      27.209  49.993  39.059  1.00  0.00     0.725 A 
HETATM    5  N   UNL     1      28.255  49.109  39.079  1.00  0.00    -0.082 N 
HETATM    6  N   UNL     1      27.812  47.832  39.142  1.00  0.00    -0.149 NA
HETATM    7  C   UNL     1      26.494  48.035  39.247  1.00  0.00     0.275 A 
HETATM    8  N   UNL     1      26.083  49.342  39.195  1.00  0.00    -0.054 NA
HETATM    9  C   UNL     1      29.657  49.490  38.906  1.00  0.00     0.221 A 
HETATM   10  C   UNL     1      29.783  50.969  38.569  1.00  0.00     0.064 A 
HETATM   11  H   UNL     1      26.661  51.933  38.772  1.00  0.00     0.184 HD
ENDROOT
BRANCH  10  12
HETATM   12  C   UNL     1      31.162  51.381  38.214  1.00  0.00     0.256 C 
HETATM   13  N   UNL     1      31.929  51.711  39.306  1.00  0.00    -0.322 N 
HETATM   14  H   UNL     1      31.511  51.560  40.218  1.00  0.00     0.169 HD
HETATM   15  O   UNL     1      31.506  51.355  37.040  1.00  0.00    -0.267 OA
BRANCH  13  16
HETATM   16  C   UNL     1      33.252  52.198  39.288  1.00  0.00     0.052 A 
HETATM   17  C   UNL     1      33.612  53.543  39.318  1.00  0.00     0.145 A 
HETATM   18  N   UNL     1      34.897  53.988  39.320  1.00  0.00    -0.271 NA
HETATM   19  C   UNL     1      35.867  53.052  39.294  1.00  0.00     0.116 A 
HETATM   20  C   UNL     1      35.615  51.692  39.263  1.00  0.00     0.021 A 
HETATM   21  C   UNL     1      34.289  51.263  39.255  1.00  0.00     0.032 A 
ENDBRANCH  13  16
ENDBRANCH  10  12
BRANCH   9  22
HETATM   22  C   UNL     1      30.434  49.107  40.161  1.00  0.00     0.064 A 
HETATM   23  N   UNL     1      30.087  49.692  41.344  1.00  0.00    -0.263 NA
HETATM   24  C   UNL     1      30.771  49.316  42.449  1.00  0.00     0.117 A 
HETATM   25  C   UNL     1      31.797  48.389  42.444  1.00  0.00     0.019 A 
HETATM   26  C   UNL     1      32.146  47.803  41.233  1.00  0.00     0.003 A 
HETATM   27  C   UNL     1      31.458  48.161  40.078  1.00  0.00     0.030 A 
ENDBRANCH   9  22
TORSDOF 3
ENDMDL
MODEL 4
REMARK VINA RESULT:      -7.2     13.257     14.306
REMARK  3 active torsions:
REMARK  status: ('A' for Active; 'I' for Inactive)
REMARK    1  A    between atoms: C_9  and  C_10 
REMARK    2  A    between atoms: C_16  and  C_17 
REMARK       I    between atoms: C_17  and  N_18 
REMARK    3  A    between atoms: N_18  and  C_19 
ROOT
HETATM    1  C   UNL     1      30.262  46.622  39.475  1.00  0.00     0.070 C 
HETATM    2  C   UNL     1      29.150  47.639  39.483  1.00  0.00     0.037 A 
HETATM    3  N   UNL     1      28.090  47.383  38.621  1.00  0.00    -0.192 N 
HETATM    4  C   UNL     1      26.942  48.089  38.639  1.00  0.00     0.725 A 
HETATM    5  N   UNL     1      26.839  49.188  39.449  1.00  0.00    -0.082 N 
HETATM    6  N   UNL     1      25.578  49.680  39.446  1.00  0.00    -0.149 NA
HETATM    7  C   UNL     1      25.004  48.877  38.543  1.00  0.00     0.275 A 
HETATM    8  N   UNL     1      25.802  47.887  38.029  1.00  0.00    -0.054 NA
HETATM    9  C   UNL     1      27.914  49.674  40.314  1.00  0.00     0.221 A 
HETATM   10  C   UNL     1      29.104  48.724  40.294  1.00  0.00     0.064 A 
HETATM   11  H   UNL     1      28.121  46.527  38.074  1.00  0.00     0.184 HD
ENDROOT
BRANCH  10  12
HETATM   12  C   UNL     1      30.156  49.070  41.279  1.00  0.00     0.256 C 
HETATM   13  N   UNL     1      31.080  49.965  40.795  1.00  0.00    -0.322 N 
HETATM   14  H   UNL     1      30.901  50.350  39.874  1.00  0.00     0.169 HD
HETATM   15  O   UNL     1      30.099  48.588  42.403  1.00  0.00    -0.267 OA
BRANCH  13  16
HETATM   16  C   UNL     1      32.227  50.435  41.467  1.00  0.00     0.052 A 
HETATM   17  C   UNL     1      32.249  51.490  42.376  1.00  0.00     0.145 A 
HETATM   18  N   UNL     1      33.365  51.912  43.027  1.00  0.00    -0.271 NA
HETATM   19  C   UNL     1      34.511  51.251  42.765  1.00  0.00     0.116 A 
HETATM   20  C   UNL     1      34.596  50.191  41.881  1.00  0.00     0.021 A 
HETATM   21  C   UNL     1      33.438  49.782  41.221  1.00  0.00     0.032 A 
ENDBRANCH  13  16
ENDBRANCH  10  12
BRANCH   9  22
HETATM   22  C   UNL     1      28.290  51.091  39.891  1.00  0.00     0.064 A 
HETATM   23  N   UNL     1      28.547  52.012  40.865  1.00  0.00    -0.263 NA
HETATM   24  C   UNL     1      28.907  53.254  40.467  1.00  0.00     0.117 A 
HETATM   25  C   UNL     1      29.018  53.639  39.143  1.00  0.00     0.019 A 
HETATM   26  C   UNL     1      28.750  52.695  38.160  1.00  0.00     0.003 A 
HETATM   27  C   UNL     1      28.385  51.405  38.534  1.00  0.00     0.030 A 
ENDBRANCH   9  22
TORSDOF 3
ENDMDL
MODEL 5
REMARK VINA RESULT:      -7.2      4.942      7.054
REMARK  3 active torsions:
REMARK  status: ('A' for Active; 'I' for Inactive)
REMARK    1  A    between atoms: C_9  and  C_10 
REMARK    2  A    between atoms: C_16  and  C_17 
REMARK       I    between atoms: C_17  and  N_18 
REMARK    3  A    between atoms: N_18  and  C_19 
ROOT
HETATM    1  C   UNL     1      26.181  49.109  49.086  1.00  0.00     0.070 C 
HETATM    2  C   UNL     1      25.541  47.833  49.568  1.00  0.00     0.037 A 
HETATM    3  N   UNL     1      26.382  46.945  50.229  1.00  0.00    -0.192 N 
HETATM    4  C   UNL     1      25.934  45.852  50.877  1.00  0.00     0.725 A 
HETATM    5  N   UNL     1      24.610  45.514  50.792  1.00  0.00    -0.082 N 
HETATM    6  N   UNL     1      24.315  44.483  51.618  1.00  0.00    -0.149 NA
HETATM    7  C   UNL     1      25.531  44.199  52.098  1.00  0.00     0.275 A 
HETATM    8  N   UNL     1      26.548  45.015  51.674  1.00  0.00    -0.054 NA
HETATM    9  C   UNL     1      23.618  46.265  50.022  1.00  0.00     0.221 A 
HETATM   10  C   UNL     1      24.224  47.537  49.444  1.00  0.00     0.064 A 
HETATM   11  H   UNL     1      27.350  47.223  50.366  1.00  0.00     0.184 HD
ENDROOT
BRANCH  10  12
HETATM   12  C   UNL     1      23.231  48.426  48.797  1.00  0.00     0.256 C 
HETATM   13  N   UNL     1      22.147  48.704  49.597  1.00  0.00    -0.322 N 
HETATM   14  H   UNL     1      22.183  48.354  50.548  1.00  0.00     0.169 HD
HETATM   15  O   UNL     1      23.460  48.855  47.674  1.00  0.00    -0.267 OA
BRANCH  13  16
HETATM   16  C   UNL     1      21.014  49.463  49.242  1.00  0.00     0.052 A 
HETATM   17  C   UNL     1      19.757  48.939  48.951  1.00  0.00     0.145 A 
HETATM   18  N   UNL     1      18.672  49.693  48.630  1.00  0.00    -0.271 NA
HETATM   19  C   UNL     1      18.846  51.030  48.602  1.00  0.00     0.116 A 
HETATM   20  C   UNL     1      20.052  51.650  48.875  1.00  0.00     0.021 A 
HETATM   21  C   UNL     1      21.150  50.853  49.194  1.00  0.00     0.032 A 
ENDBRANCH  13  16
ENDBRANCH  10  12
BRANCH   9  22
HETATM   22  C   UNL     1      23.030  45.356  48.948  1.00  0.00     0.064 A 
HETATM   23  N   UNL     1      21.688  45.418  48.708  1.00  0.00    -0.263 NA
HETATM   24  C   UNL     1      21.194  44.623  47.731  1.00  0.00     0.117 A 
HETATM   25  C   UNL     1      21.964  43.755  46.977  1.00  0.00     0.019 A 
HETATM   26  C   UNL     1      23.328  43.697  47.233  1.00  0.00     0.003 A 
HETATM   27  C   UNL     1      23.871  44.506  48.226  1.00  0.00     0.030 A 
ENDBRANCH   9  22
TORSDOF 3
ENDMDL
MODEL 6
REMARK VINA RESULT:      -7.1     12.812     15.356
REMARK  3 active torsions:
REMARK  status: ('A' for Active; 'I' for Inactive)
REMARK    1  A    between atoms: C_9  and  C_10 
REMARK    2  A    between atoms: C_16  and  C_17 
REMARK       I    between atoms: C_17  and  N_18 
REMARK    3  A    between atoms: N_18  and  C_19 
ROOT
HETATM    1  C   UNL     1      32.130  48.347  42.386  1.00  0.00     0.070 C 
HETATM    2  C   UNL     1      32.372  49.451  41.390  1.00  0.00     0.037 A 
HETATM    3  N   UNL     1      33.384  50.348  41.715  1.00  0.00    -0.192 N 
HETATM    4  C   UNL     1      33.847  51.276  40.854  1.00  0.00     0.725 A 
HETATM    5  N   UNL     1      33.226  51.444  39.646  1.00  0.00    -0.082 N 
HETATM    6  N   UNL     1      33.910  52.308  38.861  1.00  0.00    -0.149 NA
HETATM    7  C   UNL     1      34.880  52.686  39.701  1.00  0.00     0.275 A 
HETATM    8  N   UNL     1      34.881  52.074  40.928  1.00  0.00    -0.054 NA
HETATM    9  C   UNL     1      32.059  50.676  39.208  1.00  0.00     0.221 A 
HETATM   10  C   UNL     1      31.716  49.584  40.212  1.00  0.00     0.064 A 
HETATM   11  H   UNL     1      33.904  50.185  42.573  1.00  0.00     0.184 HD
ENDROOT
BRANCH  10  12
HETATM   12  C   UNL     1      30.651  48.664  39.746  1.00  0.00     0.256 C 
HETATM   13  N   UNL     1      29.421  48.934  40.296  1.00  0.00    -0.322 N 
HETATM   14  H   UNL     1      29.354  49.762  40.877  1.00  0.00     0.169 HD
HETATM   15  O   UNL     1      30.928  47.806  38.919  1.00  0.00    -0.267 OA
BRANCH  13  16
HETATM   16  C   UNL     1      28.233  48.200  40.099  1.00  0.00     0.052 A 
HETATM   17  C   UNL     1      27.328  48.402  39.061  1.00  0.00     0.145 A 
HETATM   18  N   UNL     1      26.198  47.668  38.881  1.00  0.00    -0.271 NA
HETATM   19  C   UNL     1      25.961  46.684  39.772  1.00  0.00     0.116 A 
HETATM   20  C   UNL     1      26.797  46.401  40.837  1.00  0.00     0.021 A 
HETATM   21  C   UNL     1      27.945  47.174  41.003  1.00  0.00     0.032 A 
ENDBRANCH  13  16
ENDBRANCH  10  12
BRANCH   9  22
HETATM   22  C   UNL     1      30.897  51.634  38.965  1.00  0.00     0.064 A 
HETATM   23  N   UNL     1      30.296  51.627  37.739  1.00  0.00    -0.263 NA
HETATM   24  C   UNL     1      29.249  52.463  37.556  1.00  0.00     0.117 A 
HETATM   25  C   UNL     1      28.766  53.322  38.527  1.00  0.00     0.019 A 
HETATM   26  C   UNL     1      29.388  53.324  39.769  1.00  0.00     0.003 A 
HETATM   27  C   UNL     1      30.464  52.471  39.995  1.00  0.00     0.030 A 
ENDBRANCH   9  22
TORSDOF 3
ENDMDL
MODEL 7
REMARK VINA RESULT:      -6.9     13.190     14.653
REMARK  3 active torsions:
REMARK  status: ('A' for Active; 'I' for Inactive)
REMARK    1  A    between atoms: C_9  and  C_10 
REMARK    2  A    between atoms: C_16  and  C_17 
REMARK       I    between atoms: C_17  and  N_18 
REMARK    3  A    between atoms: N_18  and  C_19 
ROOT
HETATM    1  C   UNL     1      27.827  51.608  40.842  1.00  0.00     0.070 C 
HETATM    2  C   UNL     1      27.326  50.528  39.919  1.00  0.00     0.037 A 
HETATM    3  N   UNL     1      25.945  50.438  39.786  1.00  0.00    -0.192 N 
HETATM    4  C   UNL     1      25.344  49.654  38.869  1.00  0.00     0.725 A 
HETATM    5  N   UNL     1      26.103  48.809  38.105  1.00  0.00    -0.082 N 
HETATM    6  N   UNL     1      25.356  48.214  37.147  1.00  0.00    -0.149 NA
HETATM    7  C   UNL     1      24.142  48.684  37.456  1.00  0.00     0.275 A 
HETATM    8  N   UNL     1      24.092  49.572  38.499  1.00  0.00    -0.054 NA
HETATM    9  C   UNL     1      27.556  48.680  38.219  1.00  0.00     0.221 A 
HETATM   10  C   UNL     1      28.120  49.701  39.197  1.00  0.00     0.064 A 
HETATM   11  H   UNL     1      25.376  51.114  40.289  1.00  0.00     0.184 HD
ENDROOT
BRANCH  10  12
HETATM   12  C   UNL     1      29.602  49.736  39.228  1.00  0.00     0.256 C 
HETATM   13  N   UNL     1      30.130  49.356  40.439  1.00  0.00    -0.322 N 
HETATM   14  H   UNL     1      29.474  49.017  41.134  1.00  0.00     0.169 HD
HETATM   15  O   UNL     1      30.210  50.046  38.212  1.00  0.00    -0.267 OA
BRANCH  13  16
HETATM   16  C   UNL     1      31.493  49.348  40.797  1.00  0.00     0.052 A 
HETATM   17  C   UNL     1      32.280  48.207  40.929  1.00  0.00     0.145 A 
HETATM   18  N   UNL     1      33.600  48.226  41.256  1.00  0.00    -0.271 NA
HETATM   19  C   UNL     1      34.162  49.435  41.456  1.00  0.00     0.116 A 
HETATM   20  C   UNL     1      33.468  50.627  41.348  1.00  0.00     0.021 A 
HETATM   21  C   UNL     1      32.115  50.579  41.019  1.00  0.00     0.032 A 
ENDBRANCH  13  16
ENDBRANCH  10  12
BRANCH   9  22
HETATM   22  C   UNL     1      27.899  47.245  38.608  1.00  0.00     0.064 A 
HETATM   23  N   UNL     1      28.658  46.503  37.750  1.00  0.00    -0.263 NA
HETATM   24  C   UNL     1      28.975  45.244  38.129  1.00  0.00     0.117 A 
HETATM   25  C   UNL     1      28.568  44.670  39.321  1.00  0.00     0.019 A 
HETATM   26  C   UNL     1      27.792  45.433  40.184  1.00  0.00     0.003 A 
HETATM   27  C   UNL     1      27.454  46.735  39.830  1.00  0.00     0.030 A 
ENDBRANCH   9  22
TORSDOF 3
ENDMDL
MODEL 8
REMARK VINA RESULT:      -6.8     16.660     17.859
REMARK  3 active torsions:
REMARK  status: ('A' for Active; 'I' for Inactive)
REMARK    1  A    between atoms: C_9  and  C_10 
REMARK    2  A    between atoms: C_16  and  C_17 
REMARK       I    between atoms: C_17  and  N_18 
REMARK    3  A    between atoms: N_18  and  C_19 
ROOT
HETATM    1  C   UNL     1      35.619  43.738  65.930  1.00  0.00     0.070 C 
HETATM    2  C   UNL     1      36.857  43.233  65.235  1.00  0.00     0.037 A 
HETATM    3  N   UNL     1      37.064  41.859  65.292  1.00  0.00    -0.192 N 
HETATM    4  C   UNL     1      38.016  41.230  64.574  1.00  0.00     0.725 A 
HETATM    5  N   UNL     1      38.908  41.969  63.844  1.00  0.00    -0.082 N 
HETATM    6  N   UNL     1      39.690  41.172  63.079  1.00  0.00    -0.149 NA
HETATM    7  C   UNL     1      39.268  39.965  63.471  1.00  0.00     0.275 A 
HETATM    8  N   UNL     1      38.241  39.956  64.380  1.00  0.00    -0.054 NA
HETATM    9  C   UNL     1      38.914  43.431  63.790  1.00  0.00     0.221 A 
HETATM   10  C   UNL     1      37.721  44.010  64.539  1.00  0.00     0.064 A 
HETATM   11  H   UNL     1      36.364  41.294  65.764  1.00  0.00     0.184 HD
ENDROOT
BRANCH  10  12
HETATM   12  C   UNL     1      37.575  45.476  64.378  1.00  0.00     0.256 C 
HETATM   13  N   UNL     1      38.303  46.199  65.293  1.00  0.00    -0.322 N 
HETATM   14  H   UNL     1      38.913  45.671  65.908  1.00  0.00     0.169 HD
HETATM   15  O   UNL     1      36.886  45.907  63.463  1.00  0.00    -0.267 OA
BRANCH  13  16
HETATM   16  C   UNL     1      38.319  47.602  65.435  1.00  0.00     0.052 A 
HETATM   17  C   UNL     1      37.345  48.353  66.086  1.00  0.00     0.145 A 
HETATM   18  N   UNL     1      37.393  49.705  66.227  1.00  0.00    -0.271 NA
HETATM   19  C   UNL     1      38.461  50.336  65.699  1.00  0.00     0.116 A 
HETATM   20  C   UNL     1      39.482  49.682  65.034  1.00  0.00     0.021 A 
HETATM   21  C   UNL     1      39.405  48.297  64.897  1.00  0.00     0.032 A 
ENDBRANCH  13  16
ENDBRANCH  10  12
BRANCH   9  22
HETATM   22  C   UNL     1      40.247  43.943  64.327  1.00  0.00     0.064 A 
HETATM   23  N   UNL     1      40.504  43.811  65.661  1.00  0.00    -0.263 NA
HETATM   24  C   UNL     1      41.704  44.245  66.109  1.00  0.00     0.117 A 
HETATM   25  C   UNL     1      42.669  44.819  65.301  1.00  0.00     0.019 A 
HETATM   26  C   UNL     1      42.395  44.953  63.946  1.00  0.00     0.003 A 
HETATM   27  C   UNL     1      41.173  44.509  63.449  1.00  0.00     0.030 A 
ENDBRANCH   9  22
TORSDOF 3
ENDMDL
MODEL 9
REMARK VINA RESULT:      -6.5      8.463     11.216
REMARK  3 active torsions:
REMARK  status: ('A' for Active; 'I' for Inactive)
REMARK    1  A    between atoms: C_9  and  C_10 
REMARK    2  A    between atoms: C_16  and  C_17 
REMARK       I    between atoms: C_17  and  N_18 
REMARK    3  A    between atoms: N_18  and  C_19 
ROOT
HETATM    1  C   UNL     1      19.809  46.595  45.023  1.00  0.00     0.070 C 
HETATM    2  C   UNL     1      18.749  47.309  45.821  1.00  0.00     0.037 A 
HETATM    3  N   UNL     1      17.505  47.422  45.211  1.00  0.00    -0.192 N 
HETATM    4  C   UNL     1      16.407  47.865  45.856  1.00  0.00     0.725 A 
HETATM    5  N   UNL     1      16.525  48.347  47.132  1.00  0.00    -0.082 N 
HETATM    6  N   UNL     1      15.310  48.607  47.668  1.00  0.00    -0.149 NA
HETATM    7  C   UNL     1      14.519  48.342  46.623  1.00  0.00     0.275 A 
HETATM    8  N   UNL     1      15.150  47.881  45.497  1.00  0.00    -0.054 NA
HETATM    9  C   UNL     1      17.788  48.427  47.867  1.00  0.00     0.221 A 
HETATM   10  C   UNL     1      18.920  47.784  47.078  1.00  0.00     0.064 A 
HETATM   11  H   UNL     1      17.386  46.997  44.295  1.00  0.00     0.184 HD
ENDROOT
BRANCH  10  12
HETATM   12  C   UNL     1      20.188  47.681  47.839  1.00  0.00     0.256 C 
HETATM   13  N   UNL     1      21.076  48.692  47.556  1.00  0.00    -0.322 N 
HETATM   14  H   UNL     1      20.747  49.428  46.941  1.00  0.00     0.169 HD
HETATM   15  O   UNL     1      20.322  46.774  48.650  1.00  0.00    -0.267 OA
BRANCH  13  16
HETATM   16  C   UNL     1      22.382  48.831  48.069  1.00  0.00     0.052 A 
HETATM   17  C   UNL     1      23.030  47.901  48.877  1.00  0.00     0.145 A 
HETATM   18  N   UNL     1      24.298  48.048  49.343  1.00  0.00    -0.271 NA
HETATM   19  C   UNL     1      24.954  49.171  48.985  1.00  0.00     0.116 A 
HETATM   20  C   UNL     1      24.401  50.155  48.185  1.00  0.00     0.021 A 
HETATM   21  C   UNL     1      23.096  49.982  47.727  1.00  0.00     0.032 A 
ENDBRANCH  13  16
ENDBRANCH  10  12
BRANCH   9  22
HETATM   22  C   UNL     1      18.069  49.886  48.213  1.00  0.00     0.064 A 
HETATM   23  N   UNL     1      18.384  50.744  47.199  1.00  0.00    -0.263 NA
HETATM   24  C   UNL     1      18.601  52.039  47.526  1.00  0.00     0.117 A 
HETATM   25  C   UNL     1      18.532  52.533  48.817  1.00  0.00     0.019 A 
HETATM   26  C   UNL     1      18.215  51.649  49.841  1.00  0.00     0.003 A 
HETATM   27  C   UNL     1      17.978  50.312  49.540  1.00  0.00     0.030 A 
ENDBRANCH   9  22
TORSDOF 3
ENDMDL
MODEL 10
REMARK VINA RESULT:      -6.5      7.664     11.093
REMARK  3 active torsions:
REMARK  status: ('A' for Active; 'I' for Inactive)
REMARK    1  A    between atoms: C_9  and  C_10 
REMARK    2  A    between atoms: C_16  and  C_17 
REMARK       I    between atoms: C_17  and  N_18 
REMARK    3  A    between atoms: N_18  and  C_19 
ROOT
HETATM    1  C   UNL     1      20.839  45.159  48.618  1.00  0.00     0.070 C 
HETATM    2  C   UNL     1      21.314  46.586  48.524  1.00  0.00     0.037 A 
HETATM    3  N   UNL     1      22.558  46.848  49.087  1.00  0.00    -0.192 N 
HETATM    4  C   UNL     1      23.204  48.020  48.929  1.00  0.00     0.725 A 
HETATM    5  N   UNL     1      22.574  49.056  48.292  1.00  0.00    -0.082 N 
HETATM    6  N   UNL     1      23.419  50.094  48.096  1.00  0.00    -0.149 NA
HETATM    7  C   UNL     1      24.511  49.642  48.722  1.00  0.00     0.275 A 
HETATM    8  N   UNL     1      24.423  48.376  49.240  1.00  0.00    -0.054 NA
HETATM    9  C   UNL     1      21.211  48.988  47.763  1.00  0.00     0.221 A 
HETATM   10  C   UNL     1      20.643  47.581  47.896  1.00  0.00     0.064 A 
HETATM   11  H   UNL     1      23.068  46.068  49.493  1.00  0.00     0.184 HD
ENDROOT
BRANCH  10  12
HETATM   12  C   UNL     1      19.333  47.406  47.225  1.00  0.00     0.256 C 
HETATM   13  N   UNL     1      19.430  47.315  45.857  1.00  0.00    -0.322 N 
HETATM   14  H   UNL     1      20.366  47.289  45.468  1.00  0.00     0.169 HD
HETATM   15  O   UNL     1      18.322  47.319  47.910  1.00  0.00    -0.267 OA
BRANCH  13  16
HETATM   16  C   UNL     1      18.361  47.209  44.944  1.00  0.00     0.052 A 
HETATM   17  C   UNL     1      17.777  46.015  44.528  1.00  0.00     0.145 A 
HETATM   18  N   UNL     1      16.733  45.940  43.661  1.00  0.00    -0.271 NA
HETATM   19  C   UNL     1      16.245  47.105  43.189  1.00  0.00     0.116 A 
HETATM   20  C   UNL     1      16.753  48.343  43.540  1.00  0.00     0.021 A 
HETATM   21  C   UNL     1      17.828  48.392  44.426  1.00  0.00     0.032 A 
ENDBRANCH  13  16
ENDBRANCH  10  12
BRANCH   9  22
HETATM   22  C   UNL     1      20.353  50.034  48.466  1.00  0.00     0.064 A 
HETATM   23  N   UNL     1      19.979  49.806  49.759  1.00  0.00    -0.263 NA
HETATM   24  C   UNL     1      19.243  50.762  50.371  1.00  0.00     0.117 A 
HETATM   25  C   UNL     1      18.844  51.939  49.763  1.00  0.00     0.019 A 
HETATM   26  C   UNL     1      19.225  52.158  48.446  1.00  0.00     0.003 A 
HETATM   27  C   UNL     1      19.990  51.200  47.787  1.00  0.00     0.030 A 
ENDBRANCH   9  22
TORSDOF 3
ENDMDL
