MODEL 1
REMARK VINA RESULT:      -9.1      0.000      0.000
REMARK  6 active torsions:
REMARK  status: ('A' for Active; 'I' for Inactive)
REMARK    1  A    between atoms: C_4  and  C_5 
REMARK    2  A    between atoms: C_5  and  C_6 
REMARK    3  A    between atoms: C_10  and  C_11 
REMARK    4  A    between atoms: C_10  and  C_15 
REMARK    5  A    between atoms: N_19  and  C_20 
REMARK    6  A    between atoms: C_20  and  C_21 
ROOT
HETATM    1  C   UNL     1      30.850  48.723  39.425  1.00  0.00     0.084 C 
HETATM    2  N   UNL     1      30.160  49.827  39.232  1.00  0.00    -0.331 N 
HETATM    3  C   UNL     1      30.424  51.003  39.895  1.00  0.00     0.128 C 
HETATM    4  C   UNL     1      31.350  51.009  40.865  1.00  0.00     0.100 C 
HETATM    5  C   UNL     1      32.128  49.792  41.307  1.00  0.00     0.264 C 
HETATM    6  N   UNL     1      29.732  52.152  39.544  1.00  0.00    -0.278 N 
HETATM    7  C   UNL     1      29.899  53.345  40.233  1.00  0.00     0.331 C 
HETATM    8  O   UNL     1      29.312  54.387  39.967  1.00  0.00    -0.246 OA
HETATM    9  N   UNL     1      30.801  53.317  41.254  1.00  0.00    -0.275 N 
HETATM   10  C   UNL     1      31.604  52.274  41.562  1.00  0.00     0.262 C 
HETATM   11  O   UNL     1      32.510  52.348  42.377  1.00  0.00    -0.267 OA
HETATM   12  N   UNL     1      31.810  48.654  40.321  1.00  0.00    -0.351 N 
HETATM   13  H   UNL     1      32.335  47.779  40.420  1.00  0.00     0.162 HD
HETATM   14  H   UNL     1      29.375  49.778  38.580  1.00  0.00     0.168 HD
HETATM   15  H   UNL     1      30.969  54.198  41.726  1.00  0.00     0.173 HD
ENDROOT
BRANCH   5  16
HETATM   16  C   UNL     1      31.713  49.307  42.700  1.00  0.00     0.426 C 
HETATM   17  F   UNL     1      30.355  49.259  42.764  1.00  0.00    -0.168 F 
HETATM   18  F   UNL     1      32.142  48.039  42.903  1.00  0.00    -0.168 F 
HETATM   19  F   UNL     1      32.132  50.064  43.720  1.00  0.00    -0.168 F 
ENDBRANCH   5  16
BRANCH   5  20
HETATM   20  C   UNL     1      33.654  49.934  41.344  1.00  0.00     0.426 C 
HETATM   21  F   UNL     1      34.069  50.732  40.329  1.00  0.00    -0.168 F 
HETATM   22  F   UNL     1      34.181  50.384  42.486  1.00  0.00    -0.168 F 
HETATM   23  F   UNL     1      34.207  48.711  41.105  1.00  0.00    -0.168 F 
ENDBRANCH   5  20
BRANCH   1  24
HETATM   24  C   UNL     1      30.545  47.521  38.592  1.00  0.00     0.114 C 
BRANCH  24  25
HETATM   25  C   UNL     1      29.199  46.884  38.848  1.00  0.00    -0.051 A 
HETATM   26  C   UNL     1      28.699  46.855  40.160  1.00  0.00     0.007 A 
HETATM   27  C   UNL     1      27.429  46.340  40.429  1.00  0.00     0.001 A 
HETATM   28  C   UNL     1      26.639  45.857  39.390  1.00  0.00     0.000 A 
HETATM   29  C   UNL     1      27.117  45.889  38.084  1.00  0.00     0.001 A 
HETATM   30  C   UNL     1      28.385  46.406  37.810  1.00  0.00     0.007 A 
ENDBRANCH  24  25
ENDBRANCH   1  24
BRANCH   6  31
HETATM   31  C   UNL     1      28.798  52.189  38.414  1.00  0.00     0.200 C 
BRANCH  31  32
HETATM   32  C   UNL     1      27.728  51.179  38.615  1.00  0.00     0.070 A 
HETATM   33  O   UNL     1      27.429  50.392  37.535  1.00  0.00    -0.325 OA
HETATM   34  C   UNL     1      26.444  49.542  37.932  1.00  0.00     0.142 A 
HETATM   35  C   UNL     1      26.113  49.770  39.247  1.00  0.00     0.027 A 
HETATM   36  C   UNL     1      26.942  50.827  39.691  1.00  0.00     0.036 A 
ENDBRANCH  31  32
ENDBRANCH   6  31
TORSDOF 6
ENDMDL
MODEL 2
REMARK VINA RESULT:      -8.6      2.819      5.929
REMARK  6 active torsions:
REMARK  status: ('A' for Active; 'I' for Inactive)
REMARK    1  A    between atoms: C_4  and  C_5 
REMARK    2  A    between atoms: C_5  and  C_6 
REMARK    3  A    between atoms: C_10  and  C_11 
REMARK    4  A    between atoms: C_10  and  C_15 
REMARK    5  A    between atoms: N_19  and  C_20 
REMARK    6  A    between atoms: C_20  and  C_21 
ROOT
HETATM    1  C   UNL     1      30.271  49.686  41.628  1.00  0.00     0.084 C 
HETATM    2  N   UNL     1      29.183  48.969  41.446  1.00  0.00    -0.331 N 
HETATM    3  C   UNL     1      28.247  49.254  40.479  1.00  0.00     0.128 C 
HETATM    4  C   UNL     1      28.381  50.376  39.757  1.00  0.00     0.100 C 
HETATM    5  C   UNL     1      29.493  51.380  39.941  1.00  0.00     0.264 C 
HETATM    6  N   UNL     1      27.194  48.377  40.273  1.00  0.00    -0.278 N 
HETATM    7  C   UNL     1      26.178  48.656  39.369  1.00  0.00     0.331 C 
HETATM    8  O   UNL     1      25.224  47.918  39.151  1.00  0.00    -0.246 OA
HETATM    9  N   UNL     1      26.299  49.828  38.686  1.00  0.00    -0.275 N 
HETATM   10  C   UNL     1      27.363  50.661  38.740  1.00  0.00     0.262 C 
HETATM   11  O   UNL     1      27.502  51.613  37.991  1.00  0.00    -0.267 OA
HETATM   12  N   UNL     1      30.508  50.774  40.928  1.00  0.00    -0.351 N 
HETATM   13  H   UNL     1      31.379  51.289  41.089  1.00  0.00     0.162 HD
HETATM   14  H   UNL     1      29.029  48.187  42.086  1.00  0.00     0.168 HD
HETATM   15  H   UNL     1      25.590  50.012  37.985  1.00  0.00     0.173 HD
ENDROOT
BRANCH   5  16
HETATM   16  C   UNL     1      29.000  52.694  40.555  1.00  0.00     0.426 C 
HETATM   17  F   UNL     1      27.802  52.475  41.162  1.00  0.00    -0.168 F 
HETATM   18  F   UNL     1      29.844  53.102  41.531  1.00  0.00    -0.168 F 
HETATM   19  F   UNL     1      28.830  53.703  39.693  1.00  0.00    -0.168 F 
ENDBRANCH   5  16
BRANCH   5  20
HETATM   20  C   UNL     1      30.278  51.768  38.682  1.00  0.00     0.426 C 
HETATM   21  F   UNL     1      30.608  50.655  37.982  1.00  0.00    -0.168 F 
HETATM   22  F   UNL     1      29.683  52.634  37.856  1.00  0.00    -0.168 F 
HETATM   23  F   UNL     1      31.459  52.331  39.065  1.00  0.00    -0.168 F 
ENDBRANCH   5  20
BRANCH   1  24
HETATM   24  C   UNL     1      31.273  49.244  42.644  1.00  0.00     0.114 C 
BRANCH  24  25
HETATM   25  C   UNL     1      32.419  50.201  42.878  1.00  0.00    -0.051 A 
HETATM   26  C   UNL     1      32.339  51.110  43.946  1.00  0.00     0.007 A 
HETATM   27  C   UNL     1      33.405  51.963  44.239  1.00  0.00     0.001 A 
HETATM   28  C   UNL     1      34.568  51.912  43.475  1.00  0.00     0.000 A 
HETATM   29  C   UNL     1      34.665  51.010  42.421  1.00  0.00     0.001 A 
HETATM   30  C   UNL     1      33.602  50.153  42.126  1.00  0.00     0.007 A 
ENDBRANCH  24  25
ENDBRANCH   1  24
BRANCH   6  31
HETATM   31  C   UNL     1      27.093  47.094  40.977  1.00  0.00     0.200 C 
BRANCH  31  32
HETATM   32  C   UNL     1      27.745  46.029  40.172  1.00  0.00     0.070 A 
HETATM   33  O   UNL     1      29.059  46.236  39.847  1.00  0.00    -0.325 OA
HETATM   34  C   UNL     1      29.458  45.154  39.127  1.00  0.00     0.142 A 
HETATM   35  C   UNL     1      28.425  44.257  38.992  1.00  0.00     0.027 A 
HETATM   36  C   UNL     1      27.316  44.820  39.667  1.00  0.00     0.036 A 
ENDBRANCH  31  32
ENDBRANCH   6  31
TORSDOF 6
ENDMDL
MODEL 3
REMARK VINA RESULT:      -8.5     13.081     15.470
REMARK  6 active torsions:
REMARK  status: ('A' for Active; 'I' for Inactive)
REMARK    1  A    between atoms: C_4  and  C_5 
REMARK    2  A    between atoms: C_5  and  C_6 
REMARK    3  A    between atoms: C_10  and  C_11 
REMARK    4  A    between atoms: C_10  and  C_15 
REMARK    5  A    between atoms: N_19  and  C_20 
REMARK    6  A    between atoms: C_20  and  C_21 
ROOT
HETATM    1  C   UNL     1      28.958  43.435  53.349  1.00  0.00     0.084 C 
HETATM    2  N   UNL     1      28.553  42.434  52.597  1.00  0.00    -0.331 N 
HETATM    3  C   UNL     1      27.316  42.398  51.996  1.00  0.00     0.128 C 
HETATM    4  C   UNL     1      26.431  43.367  52.270  1.00  0.00     0.100 C 
HETATM    5  C   UNL     1      26.688  44.509  53.225  1.00  0.00     0.264 C 
HETATM    6  N   UNL     1      27.016  41.366  51.120  1.00  0.00    -0.278 N 
HETATM    7  C   UNL     1      25.758  41.235  50.549  1.00  0.00     0.331 C 
HETATM    8  O   UNL     1      25.439  40.342  49.773  1.00  0.00    -0.246 OA
HETATM    9  N   UNL     1      24.853  42.196  50.886  1.00  0.00    -0.275 N 
HETATM   10  C   UNL     1      25.117  43.298  51.624  1.00  0.00     0.262 C 
HETATM   11  O   UNL     1      24.322  44.213  51.763  1.00  0.00    -0.267 OA
HETATM   12  N   UNL     1      28.172  44.453  53.628  1.00  0.00    -0.351 N 
HETATM   13  H   UNL     1      28.539  45.220  54.200  1.00  0.00     0.162 HD
HETATM   14  H   UNL     1      29.190  41.641  52.495  1.00  0.00     0.168 HD
HETATM   15  H   UNL     1      23.949  42.138  50.430  1.00  0.00     0.173 HD
ENDROOT
BRANCH   5  16
HETATM   16  C   UNL     1      25.869  44.390  54.514  1.00  0.00     0.426 C 
HETATM   17  F   UNL     1      25.928  43.104  54.957  1.00  0.00    -0.168 F 
HETATM   18  F   UNL     1      26.417  45.148  55.492  1.00  0.00    -0.168 F 
HETATM   19  F   UNL     1      24.575  44.712  54.403  1.00  0.00    -0.168 F 
ENDBRANCH   5  16
BRANCH   5  20
HETATM   20  C   UNL     1      26.429  45.920  52.686  1.00  0.00     0.426 C 
HETATM   21  F   UNL     1      26.763  45.983  51.373  1.00  0.00    -0.168 F 
HETATM   22  F   UNL     1      25.188  46.394  52.836  1.00  0.00    -0.168 F 
HETATM   23  F   UNL     1      27.265  46.787  53.324  1.00  0.00    -0.168 F 
ENDBRANCH   5  20
BRANCH   1  24
HETATM   24  C   UNL     1      30.352  43.425  53.885  1.00  0.00     0.114 C 
BRANCH  24  25
HETATM   25  C   UNL     1      30.496  43.898  55.313  1.00  0.00    -0.051 A 
HETATM   26  C   UNL     1      31.260  43.132  56.209  1.00  0.00     0.007 A 
HETATM   27  C   UNL     1      31.477  43.571  57.517  1.00  0.00     0.001 A 
HETATM   28  C   UNL     1      30.941  44.783  57.944  1.00  0.00     0.000 A 
HETATM   29  C   UNL     1      30.192  45.557  57.064  1.00  0.00     0.001 A 
HETATM   30  C   UNL     1      29.975  45.123  55.754  1.00  0.00     0.007 A 
ENDBRANCH  24  25
ENDBRANCH   1  24
BRANCH   6  31
HETATM   31  C   UNL     1      28.009  40.361  50.723  1.00  0.00     0.200 C 
BRANCH  31  32
HETATM   32  C   UNL     1      28.062  40.267  49.242  1.00  0.00     0.070 A 
HETATM   33  O   UNL     1      28.101  41.454  48.562  1.00  0.00    -0.325 OA
HETATM   34  C   UNL     1      28.155  41.145  47.239  1.00  0.00     0.142 A 
HETATM   35  C   UNL     1      28.157  39.781  47.063  1.00  0.00     0.027 A 
HETATM   36  C   UNL     1      28.097  39.211  48.357  1.00  0.00     0.036 A 
ENDBRANCH  31  32
ENDBRANCH   6  31
TORSDOF 6
ENDMDL
MODEL 4
REMARK VINA RESULT:      -8.4     12.465     14.789
REMARK  6 active torsions:
REMARK  status: ('A' for Active; 'I' for Inactive)
REMARK    1  A    between atoms: C_4  and  C_5 
REMARK    2  A    between atoms: C_5  and  C_6 
REMARK    3  A    between atoms: C_10  and  C_11 
REMARK    4  A    between atoms: C_10  and  C_15 
REMARK    5  A    between atoms: N_19  and  C_20 
REMARK    6  A    between atoms: C_20  and  C_21 
ROOT
HETATM    1  C   UNL     1      28.223  40.437  51.597  1.00  0.00     0.084 C 
HETATM    2  N   UNL     1      27.209  41.204  51.260  1.00  0.00    -0.331 N 
HETATM    3  C   UNL     1      26.368  40.918  50.209  1.00  0.00     0.128 C 
HETATM    4  C   UNL     1      26.650  39.874  49.416  1.00  0.00     0.100 C 
HETATM    5  C   UNL     1      27.856  38.981  49.581  1.00  0.00     0.264 C 
HETATM    6  N   UNL     1      25.250  41.711  49.997  1.00  0.00    -0.278 N 
HETATM    7  C   UNL     1      24.414  41.519  48.907  1.00  0.00     0.331 C 
HETATM    8  O   UNL     1      23.417  42.191  48.671  1.00  0.00    -0.246 OA
HETATM    9  N   UNL     1      24.749  40.490  48.079  1.00  0.00    -0.275 N 
HETATM   10  C   UNL     1      25.742  39.598  48.298  1.00  0.00     0.262 C 
HETATM   11  O   UNL     1      25.902  38.599  47.617  1.00  0.00    -0.267 OA
HETATM   12  N   UNL     1      28.541  39.364  50.906  1.00  0.00    -0.351 N 
HETATM   13  H   UNL     1      29.326  38.786  51.220  1.00  0.00     0.162 HD
HETATM   14  H   UNL     1      27.078  42.065  51.795  1.00  0.00     0.168 HD
HETATM   15  H   UNL     1      24.112  40.309  47.311  1.00  0.00     0.173 HD
ENDROOT
BRANCH   5  16
HETATM   16  C   UNL     1      28.889  39.182  48.468  1.00  0.00     0.426 C 
HETATM   17  F   UNL     1      29.049  40.515  48.250  1.00  0.00    -0.168 F 
HETATM   18  F   UNL     1      30.100  38.719  48.861  1.00  0.00    -0.168 F 
HETATM   19  F   UNL     1      28.583  38.621  47.293  1.00  0.00    -0.168 F 
ENDBRANCH   5  16
BRANCH   5  20
HETATM   20  C   UNL     1      27.586  37.473  49.643  1.00  0.00     0.426 C 
HETATM   21  F   UNL     1      26.375  37.243  50.207  1.00  0.00    -0.168 F 
HETATM   22  F   UNL     1      27.652  36.811  48.484  1.00  0.00    -0.168 F 
HETATM   23  F   UNL     1      28.500  36.904  50.479  1.00  0.00    -0.168 F 
ENDBRANCH   5  20
BRANCH   1  24
HETATM   24  C   UNL     1      29.026  40.784  52.809  1.00  0.00     0.114 C 
BRANCH  24  25
HETATM   25  C   UNL     1      28.708  42.124  53.430  1.00  0.00    -0.051 A 
HETATM   26  C   UNL     1      27.386  42.396  53.822  1.00  0.00     0.007 A 
HETATM   27  C   UNL     1      27.064  43.593  54.464  1.00  0.00     0.001 A 
HETATM   28  C   UNL     1      28.058  44.530  54.730  1.00  0.00     0.000 A 
HETATM   29  C   UNL     1      29.373  44.270  54.358  1.00  0.00     0.001 A 
HETATM   30  C   UNL     1      29.700  43.073  53.718  1.00  0.00     0.007 A 
ENDBRANCH  24  25
ENDBRANCH   1  24
BRANCH   6  31
HETATM   31  C   UNL     1      24.868  42.787  50.918  1.00  0.00     0.200 C 
BRANCH  31  32
HETATM   32  C   UNL     1      25.465  44.069  50.467  1.00  0.00     0.070 A 
HETATM   33  O   UNL     1      24.583  45.062  50.131  1.00  0.00    -0.325 OA
HETATM   34  C   UNL     1      25.329  46.137  49.759  1.00  0.00     0.142 A 
HETATM   35  C   UNL     1      26.670  45.850  49.856  1.00  0.00     0.027 A 
HETATM   36  C   UNL     1      26.761  44.514  50.314  1.00  0.00     0.036 A 
ENDBRANCH  31  32
ENDBRANCH   6  31
TORSDOF 6
ENDMDL
MODEL 5
REMARK VINA RESULT:      -8.4     11.639     13.825
REMARK  6 active torsions:
REMARK  status: ('A' for Active; 'I' for Inactive)
REMARK    1  A    between atoms: C_4  and  C_5 
REMARK    2  A    between atoms: C_5  and  C_6 
REMARK    3  A    between atoms: C_10  and  C_11 
REMARK    4  A    between atoms: C_10  and  C_15 
REMARK    5  A    between atoms: N_19  and  C_20 
REMARK    6  A    between atoms: C_20  and  C_21 
ROOT
HETATM    1  C   UNL     1      22.251  49.705  47.978  1.00  0.00     0.084 C 
HETATM    2  N   UNL     1      22.022  48.410  47.939  1.00  0.00    -0.331 N 
HETATM    3  C   UNL     1      20.783  47.859  48.174  1.00  0.00     0.128 C 
HETATM    4  C   UNL     1      19.782  48.657  48.572  1.00  0.00     0.100 C 
HETATM    5  C   UNL     1      19.918  50.142  48.805  1.00  0.00     0.264 C 
HETATM    6  N   UNL     1      20.599  46.497  47.991  1.00  0.00    -0.278 N 
HETATM    7  C   UNL     1      19.395  45.876  48.292  1.00  0.00     0.331 C 
HETATM    8  O   UNL     1      19.180  44.678  48.153  1.00  0.00    -0.246 OA
HETATM    9  N   UNL     1      18.407  46.693  48.751  1.00  0.00    -0.275 N 
HETATM   10  C   UNL     1      18.475  48.042  48.826  1.00  0.00     0.262 C 
HETATM   11  O   UNL     1      17.513  48.744  49.087  1.00  0.00    -0.267 OA
HETATM   12  N   UNL     1      21.313  50.565  48.309  1.00  0.00    -0.351 N 
HETATM   13  H   UNL     1      21.533  51.565  48.305  1.00  0.00     0.162 HD
HETATM   14  H   UNL     1      22.822  47.800  47.757  1.00  0.00     0.168 HD
HETATM   15  H   UNL     1      17.508  46.255  48.921  1.00  0.00     0.173 HD
ENDROOT
BRANCH   5  16
HETATM   16  C   UNL     1      19.840  50.512  50.290  1.00  0.00     0.426 C 
HETATM   17  F   UNL     1      21.063  50.945  50.702  1.00  0.00    -0.168 F 
HETATM   18  F   UNL     1      18.994  51.552  50.472  1.00  0.00    -0.168 F 
HETATM   19  F   UNL     1      19.474  49.520  51.110  1.00  0.00    -0.168 F 
ENDBRANCH   5  16
BRANCH   5  20
HETATM   20  C   UNL     1      18.903  51.042  48.090  1.00  0.00     0.426 C 
HETATM   21  F   UNL     1      18.719  50.610  46.818  1.00  0.00    -0.168 F 
HETATM   22  F   UNL     1      17.709  51.172  48.676  1.00  0.00    -0.168 F 
HETATM   23  F   UNL     1      19.433  52.293  47.985  1.00  0.00    -0.168 F 
ENDBRANCH   5  20
BRANCH   1  24
HETATM   24  C   UNL     1      23.610  50.214  47.620  1.00  0.00     0.114 C 
BRANCH  24  25
HETATM   25  C   UNL     1      24.760  49.529  48.321  1.00  0.00    -0.051 A 
HETATM   26  C   UNL     1      26.070  49.968  48.068  1.00  0.00     0.007 A 
HETATM   27  C   UNL     1      27.154  49.410  48.749  1.00  0.00     0.001 A 
HETATM   28  C   UNL     1      26.943  48.412  49.696  1.00  0.00     0.000 A 
HETATM   29  C   UNL     1      25.650  47.974  49.965  1.00  0.00     0.001 A 
HETATM   30  C   UNL     1      24.563  48.532  49.288  1.00  0.00     0.007 A 
ENDBRANCH  24  25
ENDBRANCH   1  24
BRANCH   6  31
HETATM   31  C   UNL     1      21.652  45.630  47.451  1.00  0.00     0.200 C 
BRANCH  31  32
HETATM   32  C   UNL     1      22.341  44.925  48.563  1.00  0.00     0.070 A 
HETATM   33  O   UNL     1      22.055  43.594  48.705  1.00  0.00    -0.325 OA
HETATM   34  C   UNL     1      22.787  43.148  49.760  1.00  0.00     0.142 A 
HETATM   35  C   UNL     1      23.538  44.169  50.291  1.00  0.00     0.027 A 
HETATM   36  C   UNL     1      23.252  45.319  49.519  1.00  0.00     0.036 A 
ENDBRANCH  31  32
ENDBRANCH   6  31
TORSDOF 6
ENDMDL
MODEL 6
REMARK VINA RESULT:      -8.3     11.998     13.503
REMARK  6 active torsions:
REMARK  status: ('A' for Active; 'I' for Inactive)
REMARK    1  A    between atoms: C_4  and  C_5 
REMARK    2  A    between atoms: C_5  and  C_6 
REMARK    3  A    between atoms: C_10  and  C_11 
REMARK    4  A    between atoms: C_10  and  C_15 
REMARK    5  A    between atoms: N_19  and  C_20 
REMARK    6  A    between atoms: C_20  and  C_21 
ROOT
HETATM    1  C   UNL     1      27.143  42.787  50.634  1.00  0.00     0.084 C 
HETATM    2  N   UNL     1      26.456  43.883  50.876  1.00  0.00    -0.331 N 
HETATM    3  C   UNL     1      26.682  44.686  51.970  1.00  0.00     0.128 C 
HETATM    4  C   UNL     1      27.563  44.286  52.899  1.00  0.00     0.100 C 
HETATM    5  C   UNL     1      28.327  42.985  52.844  1.00  0.00     0.264 C 
HETATM    6  N   UNL     1      26.000  45.887  52.084  1.00  0.00    -0.278 N 
HETATM    7  C   UNL     1      26.128  46.696  53.205  1.00  0.00     0.331 C 
HETATM    8  O   UNL     1      25.547  47.764  53.358  1.00  0.00    -0.246 OA
HETATM    9  N   UNL     1      26.982  46.245  54.165  1.00  0.00    -0.275 N 
HETATM   10  C   UNL     1      27.777  45.156  54.060  1.00  0.00     0.262 C 
HETATM   11  O   UNL     1      28.643  44.883  54.874  1.00  0.00    -0.267 OA
HETATM   12  N   UNL     1      28.062  42.348  51.467  1.00  0.00    -0.351 N 
HETATM   13  H   UNL     1      28.587  41.502  51.226  1.00  0.00     0.162 HD
HETATM   14  H   UNL     1      25.702  44.112  50.225  1.00  0.00     0.168 HD
HETATM   15  H   UNL     1      27.122  46.857  54.961  1.00  0.00     0.173 HD
ENDROOT
BRANCH   5  16
HETATM   16  C   UNL     1      27.852  41.982  53.899  1.00  0.00     0.426 C 
HETATM   17  F   UNL     1      27.567  40.799  53.289  1.00  0.00    -0.168 F 
HETATM   18  F   UNL     1      28.846  41.719  54.779  1.00  0.00    -0.168 F 
HETATM   19  F   UNL     1      26.763  42.345  54.587  1.00  0.00    -0.168 F 
ENDBRANCH   5  16
BRANCH   5  20
HETATM   20  C   UNL     1      29.849  43.079  53.002  1.00  0.00     0.426 C 
HETATM   21  F   UNL     1      30.362  43.904  52.056  1.00  0.00    -0.168 F 
HETATM   22  F   UNL     1      30.297  43.469  54.199  1.00  0.00    -0.168 F 
HETATM   23  F   UNL     1      30.386  41.851  52.757  1.00  0.00    -0.168 F 
ENDBRANCH   5  20
BRANCH   1  24
HETATM   24  C   UNL     1      26.885  42.030  49.373  1.00  0.00     0.114 C 
BRANCH  24  25
HETATM   25  C   UNL     1      27.396  40.608  49.359  1.00  0.00    -0.051 A 
HETATM   26  C   UNL     1      26.551  39.578  49.805  1.00  0.00     0.007 A 
HETATM   27  C   UNL     1      26.958  38.243  49.743  1.00  0.00     0.001 A 
HETATM   28  C   UNL     1      28.210  37.921  49.226  1.00  0.00     0.000 A 
HETATM   29  C   UNL     1      29.053  38.929  48.771  1.00  0.00     0.001 A 
HETATM   30  C   UNL     1      28.648  40.265  48.829  1.00  0.00     0.007 A 
ENDBRANCH  24  25
ENDBRANCH   1  24
BRANCH   6  31
HETATM   31  C   UNL     1      25.118  46.391  51.025  1.00  0.00     0.200 C 
BRANCH  31  32
HETATM   32  C   UNL     1      25.858  47.358  50.175  1.00  0.00     0.070 A 
HETATM   33  O   UNL     1      25.162  48.466  49.773  1.00  0.00    -0.325 OA
HETATM   34  C   UNL     1      26.016  49.213  49.022  1.00  0.00     0.142 A 
HETATM   35  C   UNL     1      27.246  48.603  48.943  1.00  0.00     0.027 A 
HETATM   36  C   UNL     1      27.147  47.404  49.687  1.00  0.00     0.036 A 
ENDBRANCH  31  32
ENDBRANCH   6  31
TORSDOF 6
ENDMDL
MODEL 7
REMARK VINA RESULT:      -8.3      2.861      5.974
REMARK  6 active torsions:
REMARK  status: ('A' for Active; 'I' for Inactive)
REMARK    1  A    between atoms: C_4  and  C_5 
REMARK    2  A    between atoms: C_5  and  C_6 
REMARK    3  A    between atoms: C_10  and  C_11 
REMARK    4  A    between atoms: C_10  and  C_15 
REMARK    5  A    between atoms: N_19  and  C_20 
REMARK    6  A    between atoms: C_20  and  C_21 
ROOT
HETATM    1  C   UNL     1      30.107  48.926  41.618  1.00  0.00     0.084 C 
HETATM    2  N   UNL     1      30.068  50.075  40.978  1.00  0.00    -0.331 N 
HETATM    3  C   UNL     1      29.153  50.353  39.989  1.00  0.00     0.128 C 
HETATM    4  C   UNL     1      28.331  49.380  39.571  1.00  0.00     0.100 C 
HETATM    5  C   UNL     1      28.346  47.966  40.102  1.00  0.00     0.264 C 
HETATM    6  N   UNL     1      29.101  51.630  39.452  1.00  0.00    -0.278 N 
HETATM    7  C   UNL     1      28.255  51.945  38.398  1.00  0.00     0.331 C 
HETATM    8  O   UNL     1      28.171  53.054  37.884  1.00  0.00    -0.246 OA
HETATM    9  N   UNL     1      27.469  50.928  37.947  1.00  0.00    -0.275 N 
HETATM   10  C   UNL     1      27.373  49.702  38.509  1.00  0.00     0.262 C 
HETATM   11  O   UNL     1      26.538  48.879  38.173  1.00  0.00    -0.267 OA
HETATM   12  N   UNL     1      29.302  47.933  41.308  1.00  0.00    -0.351 N 
HETATM   13  H   UNL     1      29.354  47.064  41.849  1.00  0.00     0.162 HD
HETATM   14  H   UNL     1      30.781  50.766  41.220  1.00  0.00     0.168 HD
HETATM   15  H   UNL     1      26.810  51.165  37.213  1.00  0.00     0.173 HD
ENDROOT
BRANCH   5  16
HETATM   16  C   UNL     1      28.883  46.963  39.077  1.00  0.00     0.426 C 
HETATM   17  F   UNL     1      29.899  47.543  38.381  1.00  0.00    -0.168 F 
HETATM   18  F   UNL     1      29.424  45.892  39.705  1.00  0.00    -0.168 F 
HETATM   19  F   UNL     1      27.991  46.522  38.182  1.00  0.00    -0.168 F 
ENDBRANCH   5  16
BRANCH   5  20
HETATM   20  C   UNL     1      27.004  47.403  40.584  1.00  0.00     0.426 C 
HETATM   21  F   UNL     1      26.246  48.399  41.106  1.00  0.00    -0.168 F 
HETATM   22  F   UNL     1      26.279  46.742  39.678  1.00  0.00    -0.168 F 
HETATM   23  F   UNL     1      27.242  46.540  41.611  1.00  0.00    -0.168 F 
ENDBRANCH   5  20
BRANCH   1  24
HETATM   24  C   UNL     1      31.079  48.750  42.739  1.00  0.00     0.114 C 
BRANCH  24  25
HETATM   25  C   UNL     1      32.242  49.715  42.741  1.00  0.00    -0.051 A 
HETATM   26  C   UNL     1      32.224  50.799  43.633  1.00  0.00     0.007 A 
HETATM   27  C   UNL     1      33.310  51.673  43.715  1.00  0.00     0.001 A 
HETATM   28  C   UNL     1      34.431  51.469  42.915  1.00  0.00     0.000 A 
HETATM   29  C   UNL     1      34.467  50.393  42.035  1.00  0.00     0.001 A 
HETATM   30  C   UNL     1      33.384  49.515  41.951  1.00  0.00     0.007 A 
ENDBRANCH  24  25
ENDBRANCH   1  24
BRANCH   6  31
HETATM   31  C   UNL     1      29.915  52.734  39.974  1.00  0.00     0.200 C 
BRANCH  31  32
HETATM   32  C   UNL     1      31.343  52.505  39.637  1.00  0.00     0.070 A 
HETATM   33  O   UNL     1      31.591  51.616  38.626  1.00  0.00    -0.325 OA
HETATM   34  C   UNL     1      32.941  51.562  38.476  1.00  0.00     0.142 A 
HETATM   35  C   UNL     1      33.559  52.404  39.369  1.00  0.00     0.027 A 
HETATM   36  C   UNL     1      32.528  53.016  40.121  1.00  0.00     0.036 A 
ENDBRANCH  31  32
ENDBRANCH   6  31
TORSDOF 6
ENDMDL
MODEL 8
REMARK VINA RESULT:      -8.0     11.071     13.381
REMARK  6 active torsions:
REMARK  status: ('A' for Active; 'I' for Inactive)
REMARK    1  A    between atoms: C_4  and  C_5 
REMARK    2  A    between atoms: C_5  and  C_6 
REMARK    3  A    between atoms: C_10  and  C_11 
REMARK    4  A    between atoms: C_10  and  C_15 
REMARK    5  A    between atoms: N_19  and  C_20 
REMARK    6  A    between atoms: C_20  and  C_21 
ROOT
HETATM    1  C   UNL     1      21.935  48.559  48.135  1.00  0.00     0.084 C 
HETATM    2  N   UNL     1      22.742  48.080  49.057  1.00  0.00    -0.331 N 
HETATM    3  C   UNL     1      23.016  46.738  49.192  1.00  0.00     0.128 C 
HETATM    4  C   UNL     1      22.351  45.859  48.428  1.00  0.00     0.100 C 
HETATM    5  C   UNL     1      21.288  46.237  47.424  1.00  0.00     0.264 C 
HETATM    6  N   UNL     1      23.973  46.328  50.107  1.00  0.00    -0.278 N 
HETATM    7  C   UNL     1      24.230  44.985  50.343  1.00  0.00     0.331 C 
HETATM    8  O   UNL     1      25.061  44.568  51.141  1.00  0.00    -0.246 OA
HETATM    9  N   UNL     1      23.502  44.104  49.600  1.00  0.00    -0.275 N 
HETATM   10  C   UNL     1      22.655  44.435  48.600  1.00  0.00     0.262 C 
HETATM   11  O   UNL     1      22.151  43.611  47.854  1.00  0.00    -0.267 OA
HETATM   12  N   UNL     1      21.281  47.772  47.310  1.00  0.00    -0.351 N 
HETATM   13  H   UNL     1      20.680  48.192  46.594  1.00  0.00     0.162 HD
HETATM   14  H   UNL     1      23.148  48.749  49.714  1.00  0.00     0.168 HD
HETATM   15  H   UNL     1      23.724  43.123  49.727  1.00  0.00     0.173 HD
ENDROOT
BRANCH   5  16
HETATM   16  C   UNL     1      19.885  45.814  47.871  1.00  0.00     0.426 C 
HETATM   17  F   UNL     1      19.742  46.089  49.196  1.00  0.00    -0.168 F 
HETATM   18  F   UNL     1      18.946  46.552  47.233  1.00  0.00    -0.168 F 
HETATM   19  F   UNL     1      19.593  44.520  47.701  1.00  0.00    -0.168 F 
ENDBRANCH   5  16
BRANCH   5  20
HETATM   20  C   UNL     1      21.464  45.687  46.004  1.00  0.00     0.426 C 
HETATM   21  F   UNL     1      22.782  45.512  45.737  1.00  0.00    -0.168 F 
HETATM   22  F   UNL     1      20.815  44.555  45.720  1.00  0.00    -0.168 F 
HETATM   23  F   UNL     1      21.028  46.628  45.119  1.00  0.00    -0.168 F 
ENDBRANCH   5  20
BRANCH   1  24
HETATM   24  C   UNL     1      21.771  50.039  48.011  1.00  0.00     0.114 C 
BRANCH  24  25
HETATM   25  C   UNL     1      20.499  50.598  48.604  1.00  0.00    -0.051 A 
HETATM   26  C   UNL     1      19.835  49.865  49.602  1.00  0.00     0.007 A 
HETATM   27  C   UNL     1      18.696  50.379  50.226  1.00  0.00     0.001 A 
HETATM   28  C   UNL     1      18.211  51.633  49.868  1.00  0.00     0.000 A 
HETATM   29  C   UNL     1      18.864  52.375  48.889  1.00  0.00     0.001 A 
HETATM   30  C   UNL     1      20.006  51.866  48.264  1.00  0.00     0.007 A 
ENDBRANCH  24  25
ENDBRANCH   1  24
BRANCH   6  31
HETATM   31  C   UNL     1      24.787  47.281  50.870  1.00  0.00     0.200 C 
BRANCH  31  32
HETATM   32  C   UNL     1      25.864  47.824  50.004  1.00  0.00     0.070 A 
HETATM   33  O   UNL     1      25.606  49.023  49.397  1.00  0.00    -0.325 OA
HETATM   34  C   UNL     1      26.710  49.339  48.668  1.00  0.00     0.142 A 
HETATM   35  C   UNL     1      27.671  48.364  48.804  1.00  0.00     0.027 A 
HETATM   36  C   UNL     1      27.127  47.384  49.668  1.00  0.00     0.036 A 
ENDBRANCH  31  32
ENDBRANCH   6  31
TORSDOF 6
ENDMDL
MODEL 9
REMARK VINA RESULT:      -8.0     11.419     13.578
REMARK  6 active torsions:
REMARK  status: ('A' for Active; 'I' for Inactive)
REMARK    1  A    between atoms: C_4  and  C_5 
REMARK    2  A    between atoms: C_5  and  C_6 
REMARK    3  A    between atoms: C_10  and  C_11 
REMARK    4  A    between atoms: C_10  and  C_15 
REMARK    5  A    between atoms: N_19  and  C_20 
REMARK    6  A    between atoms: C_20  and  C_21 
ROOT
HETATM    1  C   UNL     1      22.049  49.689  48.028  1.00  0.00     0.084 C 
HETATM    2  N   UNL     1      21.860  48.387  48.066  1.00  0.00    -0.331 N 
HETATM    3  C   UNL     1      20.629  47.812  48.281  1.00  0.00     0.128 C 
HETATM    4  C   UNL     1      19.586  48.601  48.577  1.00  0.00     0.100 C 
HETATM    5  C   UNL     1      19.666  50.102  48.716  1.00  0.00     0.264 C 
HETATM    6  N   UNL     1      20.495  46.436  48.182  1.00  0.00    -0.278 N 
HETATM    7  C   UNL     1      19.298  45.796  48.469  1.00  0.00     0.331 C 
HETATM    8  O   UNL     1      19.126  44.585  48.400  1.00  0.00    -0.246 OA
HETATM    9  N   UNL     1      18.264  46.609  48.825  1.00  0.00    -0.275 N 
HETATM   10  C   UNL     1      18.288  47.961  48.812  1.00  0.00     0.262 C 
HETATM   11  O   UNL     1      17.293  48.646  48.980  1.00  0.00    -0.267 OA
HETATM   12  N   UNL     1      21.070  50.537  48.257  1.00  0.00    -0.351 N 
HETATM   13  H   UNL     1      21.259  51.542  48.195  1.00  0.00     0.162 HD
HETATM   14  H   UNL     1      22.686  47.794  47.962  1.00  0.00     0.168 HD
HETATM   15  H   UNL     1      17.372  46.153  48.983  1.00  0.00     0.173 HD
ENDROOT
BRANCH   5  16
HETATM   16  C   UNL     1      19.505  50.566  50.167  1.00  0.00     0.426 C 
HETATM   17  F   UNL     1      20.562  51.358  50.497  1.00  0.00    -0.168 F 
HETATM   18  F   UNL     1      18.403  51.341  50.294  1.00  0.00    -0.168 F 
HETATM   19  F   UNL     1      19.443  49.589  51.078  1.00  0.00    -0.168 F 
ENDBRANCH   5  16
BRANCH   5  20
HETATM   20  C   UNL     1      18.660  50.918  47.896  1.00  0.00     0.426 C 
HETATM   21  F   UNL     1      18.561  50.406  46.644  1.00  0.00    -0.168 F 
HETATM   22  F   UNL     1      17.432  51.035  48.409  1.00  0.00    -0.168 F 
HETATM   23  F   UNL     1      19.149  52.181  47.744  1.00  0.00    -0.168 F 
ENDBRANCH   5  20
BRANCH   1  24
HETATM   24  C   UNL     1      23.407  50.218  47.699  1.00  0.00     0.114 C 
BRANCH  24  25
HETATM   25  C   UNL     1      24.551  49.551  48.426  1.00  0.00    -0.051 A 
HETATM   26  C   UNL     1      24.270  48.515  49.331  1.00  0.00     0.007 A 
HETATM   27  C   UNL     1      25.303  47.825  49.969  1.00  0.00     0.001 A 
HETATM   28  C   UNL     1      26.628  48.154  49.704  1.00  0.00     0.000 A 
HETATM   29  C   UNL     1      26.923  49.171  48.802  1.00  0.00     0.001 A 
HETATM   30  C   UNL     1      25.893  49.862  48.159  1.00  0.00     0.007 A 
ENDBRANCH  24  25
ENDBRANCH   1  24
BRANCH   6  31
HETATM   31  C   UNL     1      21.598  45.570  47.751  1.00  0.00     0.200 C 
BRANCH  31  32
HETATM   32  C   UNL     1      21.448  45.247  46.309  1.00  0.00     0.070 A 
HETATM   33  O   UNL     1      21.606  46.290  45.436  1.00  0.00    -0.325 OA
HETATM   34  C   UNL     1      21.438  45.782  44.186  1.00  0.00     0.142 A 
HETATM   35  C   UNL     1      21.180  44.433  44.245  1.00  0.00     0.027 A 
HETATM   36  C   UNL     1      21.187  44.084  45.617  1.00  0.00     0.036 A 
ENDBRANCH  31  32
ENDBRANCH   6  31
TORSDOF 6
ENDMDL
MODEL 10
REMARK VINA RESULT:      -7.8     11.631     13.639
REMARK  6 active torsions:
REMARK  status: ('A' for Active; 'I' for Inactive)
REMARK    1  A    between atoms: C_4  and  C_5 
REMARK    2  A    between atoms: C_5  and  C_6 
REMARK    3  A    between atoms: C_10  and  C_11 
REMARK    4  A    between atoms: C_10  and  C_15 
REMARK    5  A    between atoms: N_19  and  C_20 
REMARK    6  A    between atoms: C_20  and  C_21 
ROOT
HETATM    1  C   UNL     1      21.368  48.224  48.751  1.00  0.00     0.084 C 
HETATM    2  N   UNL     1      20.744  47.893  47.642  1.00  0.00    -0.331 N 
HETATM    3  C   UNL     1      19.647  48.573  47.165  1.00  0.00     0.128 C 
HETATM    4  C   UNL     1      19.113  49.550  47.912  1.00  0.00     0.100 C 
HETATM    5  C   UNL     1      19.622  49.955  49.275  1.00  0.00     0.264 C 
HETATM    6  N   UNL     1      19.125  48.237  45.925  1.00  0.00    -0.278 N 
HETATM    7  C   UNL     1      17.973  48.834  45.432  1.00  0.00     0.331 C 
HETATM    8  O   UNL     1      17.468  48.572  44.347  1.00  0.00    -0.246 OA
HETATM    9  N   UNL     1      17.410  49.782  46.231  1.00  0.00    -0.275 N 
HETATM   10  C   UNL     1      17.938  50.251  47.384  1.00  0.00     0.262 C 
HETATM   11  O   UNL     1      17.485  51.213  47.982  1.00  0.00    -0.267 OA
HETATM   12  N   UNL     1      20.942  49.202  49.520  1.00  0.00    -0.351 N 
HETATM   13  H   UNL     1      21.474  49.438  50.364  1.00  0.00     0.162 HD
HETATM   14  H   UNL     1      21.086  47.068  47.144  1.00  0.00     0.168 HD
HETATM   15  H   UNL     1      16.599  50.260  45.854  1.00  0.00     0.173 HD
ENDROOT
BRANCH   5  16
HETATM   16  C   UNL     1      18.663  49.555  50.400  1.00  0.00     0.426 C 
HETATM   17  F   UNL     1      18.202  48.296  50.162  1.00  0.00    -0.168 F 
HETATM   18  F   UNL     1      19.322  49.494  51.581  1.00  0.00    -0.168 F 
HETATM   19  F   UNL     1      17.594  50.345  50.553  1.00  0.00    -0.168 F 
ENDBRANCH   5  16
BRANCH   5  20
HETATM   20  C   UNL     1      19.917  51.445  49.478  1.00  0.00     0.426 C 
HETATM   21  F   UNL     1      20.351  51.993  48.316  1.00  0.00    -0.168 F 
HETATM   22  F   UNL     1      18.914  52.189  49.955  1.00  0.00    -0.168 F 
HETATM   23  F   UNL     1      20.953  51.565  50.356  1.00  0.00    -0.168 F 
ENDBRANCH   5  20
BRANCH   1  24
HETATM   24  C   UNL     1      22.604  47.480  49.141  1.00  0.00     0.114 C 
BRANCH  24  25
HETATM   25  C   UNL     1      23.894  48.255  49.000  1.00  0.00    -0.051 A 
HETATM   26  C   UNL     1      25.049  47.774  49.638  1.00  0.00     0.007 A 
HETATM   27  C   UNL     1      26.276  48.422  49.475  1.00  0.00     0.001 A 
HETATM   28  C   UNL     1      26.366  49.551  48.667  1.00  0.00     0.000 A 
HETATM   29  C   UNL     1      25.232  50.033  48.021  1.00  0.00     0.001 A 
HETATM   30  C   UNL     1      24.004  49.387  48.178  1.00  0.00     0.007 A 
ENDBRANCH  24  25
ENDBRANCH   1  24
BRANCH   6  31
HETATM   31  C   UNL     1      19.763  47.250  45.048  1.00  0.00     0.200 C 
BRANCH  31  32
HETATM   32  C   UNL     1      19.183  45.906  45.299  1.00  0.00     0.070 A 
HETATM   33  O   UNL     1      19.621  45.259  46.423  1.00  0.00    -0.325 OA
HETATM   34  C   UNL     1      18.967  44.068  46.468  1.00  0.00     0.142 A 
HETATM   35  C   UNL     1      18.114  43.946  45.396  1.00  0.00     0.027 A 
HETATM   36  C   UNL     1      18.251  45.134  44.639  1.00  0.00     0.036 A 
ENDBRANCH  31  32
ENDBRANCH   6  31
TORSDOF 6
ENDMDL
