MODEL 1
REMARK VINA RESULT:      -9.2      0.000      0.000
REMARK  4 active torsions:
REMARK  status: ('A' for Active; 'I' for Inactive)
REMARK    1  A    between atoms: C_8  and  C_9 
REMARK       I    between atoms: C_9  and  N_10 
REMARK    2  A    between atoms: N_10  and  C_11 
REMARK    3  A    between atoms: C_13  and  C_14 
REMARK       I    between atoms: C_14  and  N_15 
REMARK    4  A    between atoms: N_15  and  C_16 
ROOT
HETATM    1  C   UNL     1      28.764  43.826  53.399  1.00  0.00     0.277 C 
HETATM    2  N   UNL     1      27.407  43.614  53.227  1.00  0.00    -0.322 N 
HETATM    3  O   UNL     1      29.658  43.401  52.673  1.00  0.00    -0.266 OA
HETATM    4  H   UNL     1      26.842  44.010  53.976  1.00  0.00     0.169 HD
ENDROOT
BRANCH   2   5
HETATM    5  C   UNL     1      26.753  42.930  52.189  1.00  0.00     0.036 A 
HETATM    6  C   UNL     1      27.224  41.736  51.636  1.00  0.00     0.046 A 
HETATM    7  C   UNL     1      26.514  41.104  50.604  1.00  0.00     0.034 A 
HETATM    8  C   UNL     1      25.346  41.689  50.104  1.00  0.00     0.017 A 
HETATM    9  C   UNL     1      24.878  42.884  50.645  1.00  0.00     0.003 A 
HETATM   10  C   UNL     1      25.579  43.500  51.684  1.00  0.00     0.029 A 
BRANCH   7  11
HETATM   11  C   UNL     1      26.992  39.834  49.984  1.00  0.00     0.252 C 
HETATM   12  N   UNL     1      28.146  39.290  50.515  1.00  0.00    -0.352 N 
HETATM   13  H   UNL     1      28.562  39.701  51.342  1.00  0.00     0.163 HD
HETATM   14  O   UNL     1      26.349  39.321  49.075  1.00  0.00    -0.268 OA
BRANCH  12  15
HETATM   15  C   UNL     1      28.743  38.102  49.992  1.00  0.00     0.084 A 
HETATM   16  C   UNL     1      30.139  38.143  49.436  1.00  0.00     0.027 A 
HETATM   17  C   UNL     1      29.869  37.423  50.723  1.00  0.00     0.027 A 
ENDBRANCH  12  15
ENDBRANCH   7  11
ENDBRANCH   2   5
BRANCH   1  18
HETATM   18  C   UNL     1      29.043  44.634  54.601  1.00  0.00     0.157 A 
HETATM   19  C   UNL     1      29.961  44.338  55.650  1.00  0.00     0.028 A 
HETATM   20  C   UNL     1      30.860  43.296  55.951  1.00  0.00     0.016 A 
HETATM   21  C   UNL     1      29.861  45.410  56.530  1.00  0.00     0.063 A 
HETATM   22  C   UNL     1      31.622  43.373  57.123  1.00  0.00     0.001 A 
HETATM   23  C   UNL     1      31.500  44.462  57.983  1.00  0.00     0.002 A 
HETATM   24  C   UNL     1      30.614  45.508  57.705  1.00  0.00     0.032 A 
HETATM   25  N   UNL     1      28.927  46.242  55.980  1.00  0.00    -0.277 N 
HETATM   26  H   UNL     1      28.601  47.128  56.353  1.00  0.00     0.189 HD
HETATM   27  N   UNL     1      28.405  45.807  54.818  1.00  0.00    -0.168 NA
ENDBRANCH   1  18
TORSDOF 4
ENDMDL
MODEL 2
REMARK VINA RESULT:      -9.2      4.156      6.432
REMARK  4 active torsions:
REMARK  status: ('A' for Active; 'I' for Inactive)
REMARK    1  A    between atoms: C_8  and  C_9 
REMARK       I    between atoms: C_9  and  N_10 
REMARK    2  A    between atoms: N_10  and  C_11 
REMARK    3  A    between atoms: C_13  and  C_14 
REMARK       I    between atoms: C_14  and  N_15 
REMARK    4  A    between atoms: N_15  and  C_16 
ROOT
HETATM    1  C   UNL     1      27.959  45.143  54.000  1.00  0.00     0.277 C 
HETATM    2  N   UNL     1      26.883  45.975  53.743  1.00  0.00    -0.322 N 
HETATM    3  O   UNL     1      28.382  44.261  53.259  1.00  0.00    -0.266 OA
HETATM    4  H   UNL     1      26.668  46.601  54.517  1.00  0.00     0.169 HD
ENDROOT
BRANCH   2   5
HETATM    5  C   UNL     1      26.082  46.039  52.591  1.00  0.00     0.036 A 
HETATM    6  C   UNL     1      26.103  47.112  51.695  1.00  0.00     0.046 A 
HETATM    7  C   UNL     1      25.279  47.105  50.561  1.00  0.00     0.034 A 
HETATM    8  C   UNL     1      24.407  46.033  50.341  1.00  0.00     0.017 A 
HETATM    9  C   UNL     1      24.375  44.966  51.236  1.00  0.00     0.003 A 
HETATM   10  C   UNL     1      25.210  44.970  52.355  1.00  0.00     0.029 A 
BRANCH   7  11
HETATM   11  C   UNL     1      25.270  48.236  49.589  1.00  0.00     0.252 C 
HETATM   12  N   UNL     1      24.027  48.683  49.180  1.00  0.00    -0.352 N 
HETATM   13  H   UNL     1      23.192  48.308  49.613  1.00  0.00     0.163 HD
HETATM   14  O   UNL     1      26.330  48.730  49.220  1.00  0.00    -0.268 OA
BRANCH  12  15
HETATM   15  C   UNL     1      23.867  49.728  48.219  1.00  0.00     0.084 A 
HETATM   16  C   UNL     1      22.502  50.052  47.680  1.00  0.00     0.027 A 
HETATM   17  C   UNL     1      23.193  51.019  48.594  1.00  0.00     0.027 A 
ENDBRANCH  12  15
ENDBRANCH   7  11
ENDBRANCH   2   5
BRANCH   1  18
HETATM   18  C   UNL     1      28.562  45.421  55.317  1.00  0.00     0.157 A 
HETATM   19  C   UNL     1      29.658  44.745  55.929  1.00  0.00     0.028 A 
HETATM   20  C   UNL     1      30.506  43.672  55.593  1.00  0.00     0.016 A 
HETATM   21  C   UNL     1      29.846  45.391  57.146  1.00  0.00     0.063 A 
HETATM   22  C   UNL     1      31.509  43.291  56.491  1.00  0.00     0.001 A 
HETATM   23  C   UNL     1      31.673  43.960  57.703  1.00  0.00     0.002 A 
HETATM   24  C   UNL     1      30.843  45.028  58.058  1.00  0.00     0.032 A 
HETATM   25  N   UNL     1      28.890  46.367  57.188  1.00  0.00    -0.277 N 
HETATM   26  H   UNL     1      28.733  47.037  57.933  1.00  0.00     0.189 HD
HETATM   27  N   UNL     1      28.092  46.415  56.105  1.00  0.00    -0.168 NA
ENDBRANCH   1  18
TORSDOF 4
ENDMDL
MODEL 3
REMARK VINA RESULT:      -9.0      4.744      7.214
REMARK  4 active torsions:
REMARK  status: ('A' for Active; 'I' for Inactive)
REMARK    1  A    between atoms: C_8  and  C_9 
REMARK       I    between atoms: C_9  and  N_10 
REMARK    2  A    between atoms: N_10  and  C_11 
REMARK    3  A    between atoms: C_13  and  C_14 
REMARK       I    between atoms: C_14  and  N_15 
REMARK    4  A    between atoms: N_15  and  C_16 
ROOT
HETATM    1  C   UNL     1      26.176  45.819  53.972  1.00  0.00     0.277 C 
HETATM    2  N   UNL     1      26.434  46.150  52.653  1.00  0.00    -0.322 N 
HETATM    3  O   UNL     1      25.071  45.599  54.458  1.00  0.00    -0.266 OA
HETATM    4  H   UNL     1      27.418  46.345  52.475  1.00  0.00     0.169 HD
ENDROOT
BRANCH   2   5
HETATM    5  C   UNL     1      25.529  46.258  51.585  1.00  0.00     0.036 A 
HETATM    6  C   UNL     1      25.192  47.471  50.979  1.00  0.00     0.046 A 
HETATM    7  C   UNL     1      24.283  47.503  49.911  1.00  0.00     0.034 A 
HETATM    8  C   UNL     1      23.686  46.317  49.471  1.00  0.00     0.017 A 
HETATM    9  C   UNL     1      24.011  45.105  50.079  1.00  0.00     0.003 A 
HETATM   10  C   UNL     1      24.929  45.078  51.130  1.00  0.00     0.029 A 
BRANCH   7  11
HETATM   11  C   UNL     1      23.895  48.780  49.247  1.00  0.00     0.252 C 
HETATM   12  N   UNL     1      22.724  49.369  49.687  1.00  0.00    -0.352 N 
HETATM   13  H   UNL     1      22.237  48.981  50.486  1.00  0.00     0.163 HD
HETATM   14  O   UNL     1      24.618  49.260  48.381  1.00  0.00    -0.268 OA
BRANCH  12  15
HETATM   15  C   UNL     1      22.207  50.570  49.111  1.00  0.00     0.084 A 
HETATM   16  C   UNL     1      21.194  50.497  48.002  1.00  0.00     0.027 A 
HETATM   17  C   UNL     1      20.784  50.988  49.358  1.00  0.00     0.027 A 
ENDBRANCH  12  15
ENDBRANCH   7  11
ENDBRANCH   2   5
BRANCH   1  18
HETATM   18  C   UNL     1      27.412  45.771  54.775  1.00  0.00     0.157 A 
HETATM   19  C   UNL     1      28.428  44.772  54.745  1.00  0.00     0.028 A 
HETATM   20  C   UNL     1      28.652  43.571  54.043  1.00  0.00     0.016 A 
HETATM   21  C   UNL     1      29.377  45.193  55.669  1.00  0.00     0.063 A 
HETATM   22  C   UNL     1      29.819  42.842  54.298  1.00  0.00     0.001 A 
HETATM   23  C   UNL     1      30.752  43.292  55.230  1.00  0.00     0.002 A 
HETATM   24  C   UNL     1      30.551  44.481  55.939  1.00  0.00     0.032 A 
HETATM   25  N   UNL     1      28.890  46.364  56.178  1.00  0.00    -0.277 N 
HETATM   26  H   UNL     1      29.325  46.954  56.880  1.00  0.00     0.189 HD
HETATM   27  N   UNL     1      27.704  46.745  55.669  1.00  0.00    -0.168 NA
ENDBRANCH   1  18
TORSDOF 4
ENDMDL
MODEL 4
REMARK VINA RESULT:      -9.0      4.549      7.251
REMARK  4 active torsions:
REMARK  status: ('A' for Active; 'I' for Inactive)
REMARK    1  A    between atoms: C_8  and  C_9 
REMARK       I    between atoms: C_9  and  N_10 
REMARK    2  A    between atoms: N_10  and  C_11 
REMARK    3  A    between atoms: C_13  and  C_14 
REMARK       I    between atoms: C_14  and  N_15 
REMARK    4  A    between atoms: N_15  and  C_16 
ROOT
HETATM    1  C   UNL     1      26.014  44.111  52.885  1.00  0.00     0.277 C 
HETATM    2  N   UNL     1      26.159  44.593  51.595  1.00  0.00    -0.322 N 
HETATM    3  O   UNL     1      24.992  44.163  53.563  1.00  0.00    -0.266 OA
HETATM    4  H   UNL     1      27.108  44.496  51.237  1.00  0.00     0.169 HD
ENDROOT
BRANCH   2   5
HETATM    5  C   UNL     1      25.192  45.188  50.769  1.00  0.00     0.036 A 
HETATM    6  C   UNL     1      25.070  46.569  50.595  1.00  0.00     0.046 A 
HETATM    7  C   UNL     1      24.083  47.094  49.748  1.00  0.00     0.034 A 
HETATM    8  C   UNL     1      23.193  46.230  49.099  1.00  0.00     0.017 A 
HETATM    9  C   UNL     1      23.304  44.853  49.277  1.00  0.00     0.003 A 
HETATM   10  C   UNL     1      24.300  44.336  50.107  1.00  0.00     0.029 A 
BRANCH   7  11
HETATM   11  C   UNL     1      23.919  48.562  49.546  1.00  0.00     0.252 C 
HETATM   12  N   UNL     1      22.649  49.071  49.745  1.00  0.00    -0.352 N 
HETATM   13  H   UNL     1      21.918  48.469  50.105  1.00  0.00     0.163 HD
HETATM   14  O   UNL     1      24.891  49.247  49.247  1.00  0.00    -0.268 OA
BRANCH  12  15
HETATM   15  C   UNL     1      22.336  50.450  49.543  1.00  0.00     0.084 A 
HETATM   16  C   UNL     1      21.659  50.890  48.275  1.00  0.00     0.027 A 
HETATM   17  C   UNL     1      20.910  50.925  49.574  1.00  0.00     0.027 A 
ENDBRANCH  12  15
ENDBRANCH   7  11
ENDBRANCH   2   5
BRANCH   1  18
HETATM   18  C   UNL     1      27.266  43.518  53.391  1.00  0.00     0.157 A 
HETATM   19  C   UNL     1      28.220  44.120  54.261  1.00  0.00     0.028 A 
HETATM   20  C   UNL     1      28.363  45.362  54.911  1.00  0.00     0.016 A 
HETATM   21  C   UNL     1      29.202  43.153  54.446  1.00  0.00     0.063 A 
HETATM   22  C   UNL     1      29.484  45.582  55.719  1.00  0.00     0.001 A 
HETATM   23  C   UNL     1      30.449  44.591  55.885  1.00  0.00     0.002 A 
HETATM   24  C   UNL     1      30.329  43.350  55.250  1.00  0.00     0.032 A 
HETATM   25  N   UNL     1      28.795  42.080  53.703  1.00  0.00    -0.277 N 
HETATM   26  H   UNL     1      29.270  41.189  53.604  1.00  0.00     0.189 HD
HETATM   27  N   UNL     1      27.634  42.262  53.047  1.00  0.00    -0.168 NA
ENDBRANCH   1  18
TORSDOF 4
ENDMDL
MODEL 5
REMARK VINA RESULT:      -9.0      5.657      8.292
REMARK  4 active torsions:
REMARK  status: ('A' for Active; 'I' for Inactive)
REMARK    1  A    between atoms: C_8  and  C_9 
REMARK       I    between atoms: C_9  and  N_10 
REMARK    2  A    between atoms: N_10  and  C_11 
REMARK    3  A    between atoms: C_13  and  C_14 
REMARK       I    between atoms: C_14  and  N_15 
REMARK    4  A    between atoms: N_15  and  C_16 
ROOT
HETATM    1  C   UNL     1      26.030  45.809  51.954  1.00  0.00     0.277 C 
HETATM    2  N   UNL     1      26.239  46.139  50.626  1.00  0.00    -0.322 N 
HETATM    3  O   UNL     1      25.478  46.512  52.794  1.00  0.00    -0.266 OA
HETATM    4  H   UNL     1      26.766  45.433  50.116  1.00  0.00     0.169 HD
ENDROOT
BRANCH   2   5
HETATM    5  C   UNL     1      25.836  47.295  49.938  1.00  0.00     0.036 A 
HETATM    6  C   UNL     1      24.510  47.559  49.582  1.00  0.00     0.046 A 
HETATM    7  C   UNL     1      24.179  48.739  48.901  1.00  0.00     0.034 A 
HETATM    8  C   UNL     1      25.186  49.643  48.547  1.00  0.00     0.017 A 
HETATM    9  C   UNL     1      26.511  49.381  48.891  1.00  0.00     0.003 A 
HETATM   10  C   UNL     1      26.832  48.213  49.585  1.00  0.00     0.029 A 
BRANCH   7  11
HETATM   11  C   UNL     1      22.777  49.048  48.498  1.00  0.00     0.252 C 
HETATM   12  N   UNL     1      22.086  49.930  49.309  1.00  0.00    -0.352 N 
HETATM   13  H   UNL     1      22.569  50.398  50.066  1.00  0.00     0.163 HD
HETATM   14  O   UNL     1      22.311  48.545  47.481  1.00  0.00    -0.268 OA
BRANCH  12  15
HETATM   15  C   UNL     1      20.722  50.281  49.070  1.00  0.00     0.084 A 
HETATM   16  C   UNL     1      20.021  51.241  49.990  1.00  0.00     0.027 A 
HETATM   17  C   UNL     1      20.358  51.659  48.590  1.00  0.00     0.027 A 
ENDBRANCH  12  15
ENDBRANCH   7  11
ENDBRANCH   2   5
BRANCH   1  18
HETATM   18  C   UNL     1      26.576  44.477  52.277  1.00  0.00     0.157 A 
HETATM   19  C   UNL     1      27.631  44.169  53.184  1.00  0.00     0.028 A 
HETATM   20  C   UNL     1      28.488  44.898  54.032  1.00  0.00     0.016 A 
HETATM   21  C   UNL     1      27.752  42.784  53.141  1.00  0.00     0.063 A 
HETATM   22  C   UNL     1      29.431  44.208  54.802  1.00  0.00     0.001 A 
HETATM   23  C   UNL     1      29.526  42.819  54.737  1.00  0.00     0.002 A 
HETATM   24  C   UNL     1      28.685  42.074  53.903  1.00  0.00     0.032 A 
HETATM   25  N   UNL     1      26.807  42.367  52.246  1.00  0.00    -0.277 N 
HETATM   26  H   UNL     1      26.608  41.413  51.967  1.00  0.00     0.189 HD
HETATM   27  N   UNL     1      26.079  43.359  51.699  1.00  0.00    -0.168 NA
ENDBRANCH   1  18
TORSDOF 4
ENDMDL
MODEL 6
REMARK VINA RESULT:      -8.6      7.277     10.331
REMARK  4 active torsions:
REMARK  status: ('A' for Active; 'I' for Inactive)
REMARK    1  A    between atoms: C_8  and  C_9 
REMARK       I    between atoms: C_9  and  N_10 
REMARK    2  A    between atoms: N_10  and  C_11 
REMARK    3  A    between atoms: C_13  and  C_14 
REMARK       I    between atoms: C_14  and  N_15 
REMARK    4  A    between atoms: N_15  and  C_16 
ROOT
HETATM    1  C   UNL     1      21.798  48.282  48.585  1.00  0.00     0.277 C 
HETATM    2  N   UNL     1      22.688  48.286  49.645  1.00  0.00    -0.322 N 
HETATM    3  O   UNL     1      22.062  47.991  47.423  1.00  0.00    -0.266 OA
HETATM    4  H   UNL     1      22.272  48.613  50.516  1.00  0.00     0.169 HD
ENDROOT
BRANCH   2   5
HETATM    5  C   UNL     1      24.044  47.922  49.650  1.00  0.00     0.036 A 
HETATM    6  C   UNL     1      24.507  46.675  50.079  1.00  0.00     0.046 A 
HETATM    7  C   UNL     1      25.877  46.378  50.050  1.00  0.00     0.034 A 
HETATM    8  C   UNL     1      26.790  47.347  49.620  1.00  0.00     0.017 A 
HETATM    9  C   UNL     1      26.335  48.595  49.200  1.00  0.00     0.003 A 
HETATM   10  C   UNL     1      24.968  48.879  49.215  1.00  0.00     0.029 A 
BRANCH   7  11
HETATM   11  C   UNL     1      26.406  45.061  50.509  1.00  0.00     0.252 C 
HETATM   12  N   UNL     1      26.747  44.968  51.845  1.00  0.00    -0.352 N 
HETATM   13  H   UNL     1      26.541  45.738  52.470  1.00  0.00     0.163 HD
HETATM   14  O   UNL     1      26.491  44.130  49.715  1.00  0.00    -0.268 OA
BRANCH  12  15
HETATM   15  C   UNL     1      27.308  43.783  52.412  1.00  0.00     0.084 A 
HETATM   16  C   UNL     1      28.797  43.578  52.406  1.00  0.00     0.027 A 
HETATM   17  C   UNL     1      28.084  43.841  53.699  1.00  0.00     0.027 A 
ENDBRANCH  12  15
ENDBRANCH   7  11
ENDBRANCH   2   5
BRANCH   1  18
HETATM   18  C   UNL     1      20.446  48.695  49.006  1.00  0.00     0.157 A 
HETATM   19  C   UNL     1      19.870  49.996  48.920  1.00  0.00     0.028 A 
HETATM   20  C   UNL     1      20.287  51.264  48.469  1.00  0.00     0.016 A 
HETATM   21  C   UNL     1      18.584  49.856  49.430  1.00  0.00     0.063 A 
HETATM   22  C   UNL     1      19.395  52.340  48.548  1.00  0.00     0.001 A 
HETATM   23  C   UNL     1      18.112  52.167  49.063  1.00  0.00     0.002 A 
HETATM   24  C   UNL     1      17.676  50.917  49.516  1.00  0.00     0.032 A 
HETATM   25  N   UNL     1      18.475  48.540  49.779  1.00  0.00    -0.277 N 
HETATM   26  H   UNL     1      17.667  48.079  50.184  1.00  0.00     0.189 HD
HETATM   27  N   UNL     1      19.579  47.806  49.544  1.00  0.00    -0.168 NA
ENDBRANCH   1  18
TORSDOF 4
ENDMDL
MODEL 7
REMARK VINA RESULT:      -8.3      6.172      8.935
REMARK  4 active torsions:
REMARK  status: ('A' for Active; 'I' for Inactive)
REMARK    1  A    between atoms: C_8  and  C_9 
REMARK       I    between atoms: C_9  and  N_10 
REMARK    2  A    between atoms: N_10  and  C_11 
REMARK    3  A    between atoms: C_13  and  C_14 
REMARK       I    between atoms: C_14  and  N_15 
REMARK    4  A    between atoms: N_15  and  C_16 
ROOT
HETATM    1  C   UNL     1      25.463  45.870  49.824  1.00  0.00     0.277 C 
HETATM    2  N   UNL     1      25.540  47.228  50.077  1.00  0.00    -0.322 N 
HETATM    3  O   UNL     1      24.756  45.334  48.976  1.00  0.00    -0.266 OA
HETATM    4  H   UNL     1      26.149  47.455  50.862  1.00  0.00     0.169 HD
ENDROOT
BRANCH   2   5
HETATM    5  C   UNL     1      24.889  48.281  49.414  1.00  0.00     0.036 A 
HETATM    6  C   UNL     1      23.522  48.544  49.541  1.00  0.00     0.046 A 
HETATM    7  C   UNL     1      22.939  49.618  48.851  1.00  0.00     0.034 A 
HETATM    8  C   UNL     1      23.724  50.410  48.007  1.00  0.00     0.017 A 
HETATM    9  C   UNL     1      25.085  50.146  47.869  1.00  0.00     0.003 A 
HETATM   10  C   UNL     1      25.663  49.086  48.571  1.00  0.00     0.029 A 
BRANCH   7  11
HETATM   11  C   UNL     1      21.483  49.923  48.957  1.00  0.00     0.252 C 
HETATM   12  N   UNL     1      20.792  49.272  49.963  1.00  0.00    -0.352 N 
HETATM   13  H   UNL     1      21.297  48.706  50.634  1.00  0.00     0.163 HD
HETATM   14  O   UNL     1      20.974  50.733  48.191  1.00  0.00    -0.268 OA
BRANCH  12  15
HETATM   15  C   UNL     1      19.385  49.433  50.153  1.00  0.00     0.084 A 
HETATM   16  C   UNL     1      18.433  48.385  49.648  1.00  0.00     0.027 A 
HETATM   17  C   UNL     1      18.638  48.561  51.123  1.00  0.00     0.027 A 
ENDBRANCH  12  15
ENDBRANCH   7  11
ENDBRANCH   2   5
BRANCH   1  18
HETATM   18  C   UNL     1      26.340  45.096  50.722  1.00  0.00     0.157 A 
HETATM   19  C   UNL     1      26.114  44.779  52.093  1.00  0.00     0.028 A 
HETATM   20  C   UNL     1      25.107  45.038  53.044  1.00  0.00     0.016 A 
HETATM   21  C   UNL     1      27.219  44.027  52.477  1.00  0.00     0.063 A 
HETATM   22  C   UNL     1      25.250  44.531  54.341  1.00  0.00     0.001 A 
HETATM   23  C   UNL     1      26.370  43.779  54.693  1.00  0.00     0.002 A 
HETATM   24  C   UNL     1      27.382  43.510  53.766  1.00  0.00     0.032 A 
HETATM   25  N   UNL     1      28.006  43.948  51.363  1.00  0.00    -0.277 N 
HETATM   26  H   UNL     1      28.896  43.470  51.275  1.00  0.00     0.189 HD
HETATM   27  N   UNL     1      27.514  44.584  50.283  1.00  0.00    -0.168 NA
ENDBRANCH   1  18
TORSDOF 4
ENDMDL
MODEL 8
REMARK VINA RESULT:      -8.0      4.310      6.801
REMARK  4 active torsions:
REMARK  status: ('A' for Active; 'I' for Inactive)
REMARK    1  A    between atoms: C_8  and  C_9 
REMARK       I    between atoms: C_9  and  N_10 
REMARK    2  A    between atoms: N_10  and  C_11 
REMARK    3  A    between atoms: C_13  and  C_14 
REMARK       I    between atoms: C_14  and  N_15 
REMARK    4  A    between atoms: N_15  and  C_16 
ROOT
HETATM    1  C   UNL     1      25.803  46.427  50.800  1.00  0.00     0.277 C 
HETATM    2  N   UNL     1      26.829  45.570  50.442  1.00  0.00    -0.322 N 
HETATM    3  O   UNL     1      24.989  46.242  51.700  1.00  0.00    -0.266 OA
HETATM    4  H   UNL     1      27.354  45.892  49.630  1.00  0.00     0.169 HD
ENDROOT
BRANCH   2   5
HETATM    5  C   UNL     1      27.199  44.353  51.037  1.00  0.00     0.036 A 
HETATM    6  C   UNL     1      27.275  43.145  50.338  1.00  0.00     0.046 A 
HETATM    7  C   UNL     1      27.659  41.967  50.997  1.00  0.00     0.034 A 
HETATM    8  C   UNL     1      27.937  41.996  52.367  1.00  0.00     0.017 A 
HETATM    9  C   UNL     1      27.854  43.196  53.070  1.00  0.00     0.003 A 
HETATM   10  C   UNL     1      27.488  44.369  52.406  1.00  0.00     0.029 A 
BRANCH   7  11
HETATM   11  C   UNL     1      27.742  40.659  50.284  1.00  0.00     0.252 C 
HETATM   12  N   UNL     1      28.619  39.729  50.811  1.00  0.00    -0.352 N 
HETATM   13  H   UNL     1      29.086  39.921  51.689  1.00  0.00     0.163 HD
HETATM   14  O   UNL     1      27.033  40.454  49.305  1.00  0.00    -0.268 OA
BRANCH  12  15
HETATM   15  C   UNL     1      28.834  38.452  50.208  1.00  0.00     0.084 A 
HETATM   16  C   UNL     1      29.963  38.262  49.234  1.00  0.00     0.027 A 
HETATM   17  C   UNL     1      30.026  37.617  50.586  1.00  0.00     0.027 A 
ENDBRANCH  12  15
ENDBRANCH   7  11
ENDBRANCH   2   5
BRANCH   1  18
HETATM   18  C   UNL     1      25.772  47.629  49.946  1.00  0.00     0.157 A 
HETATM   19  C   UNL     1      24.632  48.232  49.337  1.00  0.00     0.028 A 
HETATM   20  C   UNL     1      23.249  47.972  49.290  1.00  0.00     0.016 A 
HETATM   21  C   UNL     1      25.129  49.337  48.655  1.00  0.00     0.063 A 
HETATM   22  C   UNL     1      22.420  48.832  48.560  1.00  0.00     0.001 A 
HETATM   23  C   UNL     1      22.949  49.932  47.888  1.00  0.00     0.002 A 
HETATM   24  C   UNL     1      24.320  50.210  47.921  1.00  0.00     0.032 A 
HETATM   25  N   UNL     1      26.477  49.325  48.882  1.00  0.00    -0.277 N 
HETATM   26  H   UNL     1      27.161  49.990  48.537  1.00  0.00     0.189 HD
HETATM   27  N   UNL     1      26.906  48.308  49.653  1.00  0.00    -0.168 NA
ENDBRANCH   1  18
TORSDOF 4
ENDMDL
MODEL 9
REMARK VINA RESULT:      -7.9      3.929      6.126
REMARK  4 active torsions:
REMARK  status: ('A' for Active; 'I' for Inactive)
REMARK    1  A    between atoms: C_8  and  C_9 
REMARK       I    between atoms: C_9  and  N_10 
REMARK    2  A    between atoms: N_10  and  C_11 
REMARK    3  A    between atoms: C_13  and  C_14 
REMARK       I    between atoms: C_14  and  N_15 
REMARK    4  A    between atoms: N_15  and  C_16 
ROOT
HETATM    1  C   UNL     1      26.079  44.131  52.962  1.00  0.00     0.277 C 
HETATM    2  N   UNL     1      26.258  44.718  51.722  1.00  0.00    -0.322 N 
HETATM    3  O   UNL     1      25.038  44.120  53.612  1.00  0.00    -0.266 OA
HETATM    4  H   UNL     1      27.218  44.658  51.385  1.00  0.00     0.169 HD
ENDROOT
BRANCH   2   5
HETATM    5  C   UNL     1      25.310  45.373  50.919  1.00  0.00     0.036 A 
HETATM    6  C   UNL     1      24.348  44.702  50.159  1.00  0.00     0.046 A 
HETATM    7  C   UNL     1      23.427  45.422  49.384  1.00  0.00     0.034 A 
HETATM    8  C   UNL     1      23.492  46.819  49.345  1.00  0.00     0.017 A 
HETATM    9  C   UNL     1      24.456  47.492  50.093  1.00  0.00     0.003 A 
HETATM   10  C   UNL     1      25.359  46.771  50.877  1.00  0.00     0.029 A 
BRANCH   7  11
HETATM   11  C   UNL     1      22.392  44.738  48.555  1.00  0.00     0.252 C 
HETATM   12  N   UNL     1      21.975  45.408  47.420  1.00  0.00    -0.352 N 
HETATM   13  H   UNL     1      22.439  46.265  47.144  1.00  0.00     0.163 HD
HETATM   14  O   UNL     1      21.983  43.631  48.885  1.00  0.00    -0.268 OA
BRANCH  12  15
HETATM   15  C   UNL     1      20.958  44.895  46.558  1.00  0.00     0.084 A 
HETATM   16  C   UNL     1      19.509  45.143  46.872  1.00  0.00     0.027 A 
HETATM   17  C   UNL     1      20.145  45.819  45.695  1.00  0.00     0.027 A 
ENDBRANCH  12  15
ENDBRANCH   7  11
ENDBRANCH   2   5
BRANCH   1  18
HETATM   18  C   UNL     1      27.322  43.507  53.455  1.00  0.00     0.157 A 
HETATM   19  C   UNL     1      28.294  44.080  54.326  1.00  0.00     0.028 A 
HETATM   20  C   UNL     1      28.466  45.312  54.986  1.00  0.00     0.016 A 
HETATM   21  C   UNL     1      29.256  43.090  54.495  1.00  0.00     0.063 A 
HETATM   22  C   UNL     1      29.596  45.501  55.790  1.00  0.00     0.001 A 
HETATM   23  C   UNL     1      30.541  44.488  55.941  1.00  0.00     0.002 A 
HETATM   24  C   UNL     1      30.391  43.256  55.294  1.00  0.00     0.032 A 
HETATM   25  N   UNL     1      28.822  42.034  53.744  1.00  0.00    -0.277 N 
HETATM   26  H   UNL     1      29.277  41.134  53.634  1.00  0.00     0.189 HD
HETATM   27  N   UNL     1      27.661  42.247  53.097  1.00  0.00    -0.168 NA
ENDBRANCH   1  18
TORSDOF 4
ENDMDL
MODEL 10
REMARK VINA RESULT:      -7.8      1.793      2.382
REMARK  4 active torsions:
REMARK  status: ('A' for Active; 'I' for Inactive)
REMARK    1  A    between atoms: C_8  and  C_9 
REMARK       I    between atoms: C_9  and  N_10 
REMARK    2  A    between atoms: N_10  and  C_11 
REMARK    3  A    between atoms: C_13  and  C_14 
REMARK       I    between atoms: C_14  and  N_15 
REMARK    4  A    between atoms: N_15  and  C_16 
ROOT
HETATM    1  C   UNL     1      26.560  44.798  51.611  1.00  0.00     0.277 C 
HETATM    2  N   UNL     1      25.955  43.567  51.793  1.00  0.00    -0.322 N 
HETATM    3  O   UNL     1      26.978  45.246  50.548  1.00  0.00    -0.266 OA
HETATM    4  H   UNL     1      25.734  43.370  52.768  1.00  0.00     0.169 HD
ENDROOT
BRANCH   2   5
HETATM    5  C   UNL     1      25.641  42.595  50.829  1.00  0.00     0.036 A 
HETATM    6  C   UNL     1      26.431  41.468  50.583  1.00  0.00     0.046 A 
HETATM    7  C   UNL     1      26.053  40.535  49.607  1.00  0.00     0.034 A 
HETATM    8  C   UNL     1      24.894  40.749  48.853  1.00  0.00     0.017 A 
HETATM    9  C   UNL     1      24.108  41.876  49.087  1.00  0.00     0.003 A 
HETATM   10  C   UNL     1      24.481  42.793  50.072  1.00  0.00     0.029 A 
BRANCH   7  11
HETATM   11  C   UNL     1      26.876  39.327  49.313  1.00  0.00     0.252 C 
HETATM   12  N   UNL     1      27.884  39.038  50.214  1.00  0.00    -0.352 N 
HETATM   13  H   UNL     1      27.966  39.579  51.066  1.00  0.00     0.163 HD
HETATM   14  O   UNL     1      26.620  38.641  48.330  1.00  0.00    -0.268 OA
BRANCH  12  15
HETATM   15  C   UNL     1      28.779  37.939  50.035  1.00  0.00     0.084 A 
HETATM   16  C   UNL     1      30.060  38.128  49.272  1.00  0.00     0.027 A 
HETATM   17  C   UNL     1      30.099  37.899  50.754  1.00  0.00     0.027 A 
ENDBRANCH  12  15
ENDBRANCH   7  11
ENDBRANCH   2   5
BRANCH   1  18
HETATM   18  C   UNL     1      26.673  45.544  52.879  1.00  0.00     0.157 A 
HETATM   19  C   UNL     1      27.647  45.368  53.904  1.00  0.00     0.028 A 
HETATM   20  C   UNL     1      28.755  44.525  54.121  1.00  0.00     0.016 A 
HETATM   21  C   UNL     1      27.329  46.316  54.871  1.00  0.00     0.063 A 
HETATM   22  C   UNL     1      29.498  44.667  55.299  1.00  0.00     0.001 A 
HETATM   23  C   UNL     1      29.154  45.628  56.248  1.00  0.00     0.002 A 
HETATM   24  C   UNL     1      28.058  46.477  56.054  1.00  0.00     0.032 A 
HETATM   25  N   UNL     1      26.229  46.967  54.389  1.00  0.00    -0.277 N 
HETATM   26  H   UNL     1      25.724  47.727  54.833  1.00  0.00     0.189 HD
HETATM   27  N   UNL     1      25.799  46.528  53.191  1.00  0.00    -0.168 NA
ENDBRANCH   1  18
TORSDOF 4
ENDMDL
