MODEL 1
REMARK VINA RESULT:     -10.0      0.000      0.000
REMARK  5 active torsions:
REMARK  status: ('A' for Active; 'I' for Inactive)
REMARK    1  A    between atoms: C_3  and  N_4 
REMARK       I    between atoms: N_4  and  C_5 
REMARK    2  A    between atoms: C_5  and  C_6 
REMARK    3  A    between atoms: C_6  and  N_7 
REMARK       I    between atoms: N_7  and  C_8 
REMARK    4  A    between atoms: C_8  and  C_9 
REMARK    5  A    between atoms: C_10  and  C_11 
ROOT
HETATM    1  N   UNL     1      25.790  45.985  50.135  1.00  0.00    -0.348 N 
HETATM    2  C   UNL     1      25.683  47.287  50.564  1.00  0.00     0.255 C 
HETATM    3  O   UNL     1      25.299  47.573  51.695  1.00  0.00    -0.268 OA
HETATM    4  H   UNL     1      26.008  45.808  49.164  1.00  0.00     0.163 HD
ENDROOT
BRANCH   1   5
HETATM    5  C   UNL     1      25.691  44.845  51.029  1.00  0.00     0.226 C 
BRANCH   5   6
HETATM    6  C   UNL     1      27.005  44.404  51.688  1.00  0.00     0.239 C 
HETATM    7  N   UNL     1      26.953  44.419  53.073  1.00  0.00    -0.325 N 
HETATM    8  H   UNL     1      26.162  44.941  53.452  1.00  0.00     0.169 HD
HETATM    9  O   UNL     1      28.009  44.217  51.005  1.00  0.00    -0.271 OA
BRANCH   7  10
HETATM   10  C   UNL     1      28.073  44.269  53.925  1.00  0.00     0.046 A 
HETATM   11  C   UNL     1      28.456  45.389  54.703  1.00  0.00    -0.035 A 
HETATM   12  C   UNL     1      27.744  46.715  54.610  1.00  0.00     0.050 C 
HETATM   13  C   UNL     1      29.559  45.292  55.565  1.00  0.00     0.009 A 
HETATM   14  C   UNL     1      30.281  44.109  55.661  1.00  0.00     0.001 A 
HETATM   15  C   UNL     1      29.894  43.002  54.915  1.00  0.00     0.009 A 
HETATM   16  C   UNL     1      28.775  43.054  54.062  1.00  0.00    -0.035 A 
HETATM   17  C   UNL     1      28.386  41.772  53.376  1.00  0.00     0.050 C 
ENDBRANCH   7  10
ENDBRANCH   5   6
ENDBRANCH   1   5
BRANCH   2  18
HETATM   18  C   UNL     1      26.062  48.265  49.562  1.00  0.00     0.080 A 
HETATM   19  C   UNL     1      25.277  49.213  48.825  1.00  0.00     0.104 A 
HETATM   20  N   UNL     1      26.077  49.963  48.041  1.00  0.00    -0.174 NA
HETATM   21  N   UNL     1      27.315  49.521  48.268  1.00  0.00    -0.288 N 
HETATM   22  H   UNL     1      28.082  49.975  47.783  1.00  0.00     0.188 HD
HETATM   23  C   UNL     1      27.366  48.493  49.151  1.00  0.00     0.128 A 
BRANCH  19  24
HETATM   24  C   UNL     1      23.822  49.435  48.778  1.00  0.00    -0.004 A 
HETATM   25  C   UNL     1      22.899  48.380  48.786  1.00  0.00     0.017 A 
HETATM   26  C   UNL     1      21.525  48.632  48.691  1.00  0.00     0.043 A 
HETATM   27  C   UNL     1      21.067  49.939  48.573  1.00  0.00     0.116 A 
HETATM   28  F   UNL     1      19.753  50.174  48.467  1.00  0.00    -0.206 F 
HETATM   29  C   UNL     1      21.957  51.002  48.554  1.00  0.00     0.043 A 
HETATM   30  C   UNL     1      23.327  50.751  48.658  1.00  0.00     0.017 A 
ENDBRANCH  19  24
ENDBRANCH   2  18
TORSDOF 5
ENDMDL
MODEL 2
REMARK VINA RESULT:      -9.7      3.397      8.908
REMARK  5 active torsions:
REMARK  status: ('A' for Active; 'I' for Inactive)
REMARK    1  A    between atoms: C_3  and  N_4 
REMARK       I    between atoms: N_4  and  C_5 
REMARK    2  A    between atoms: C_5  and  C_6 
REMARK    3  A    between atoms: C_6  and  N_7 
REMARK       I    between atoms: N_7  and  C_8 
REMARK    4  A    between atoms: C_8  and  C_9 
REMARK    5  A    between atoms: C_10  and  C_11 
ROOT
HETATM    1  N   UNL     1      26.339  44.641  51.996  1.00  0.00    -0.348 N 
HETATM    2  C   UNL     1      26.719  43.906  53.093  1.00  0.00     0.255 C 
HETATM    3  O   UNL     1      26.036  43.852  54.112  1.00  0.00    -0.268 OA
HETATM    4  H   UNL     1      26.987  44.736  51.225  1.00  0.00     0.163 HD
ENDROOT
BRANCH   1   5
HETATM    5  C   UNL     1      25.014  45.217  51.847  1.00  0.00     0.226 C 
BRANCH   5   6
HETATM    6  C   UNL     1      24.977  46.685  51.400  1.00  0.00     0.239 C 
HETATM    7  N   UNL     1      24.794  46.834  50.033  1.00  0.00    -0.325 N 
HETATM    8  H   UNL     1      24.953  45.979  49.499  1.00  0.00     0.169 HD
HETATM    9  O   UNL     1      25.243  47.583  52.195  1.00  0.00    -0.271 OA
BRANCH   7  10
HETATM   10  C   UNL     1      24.934  48.052  49.327  1.00  0.00     0.046 A 
HETATM   11  C   UNL     1      26.248  48.479  49.019  1.00  0.00    -0.035 A 
HETATM   12  C   UNL     1      27.469  47.709  49.455  1.00  0.00     0.050 C 
HETATM   13  C   UNL     1      26.441  49.680  48.318  1.00  0.00     0.009 A 
HETATM   14  C   UNL     1      25.357  50.456  47.927  1.00  0.00     0.001 A 
HETATM   15  C   UNL     1      24.065  50.027  48.211  1.00  0.00     0.009 A 
HETATM   16  C   UNL     1      23.832  48.813  48.886  1.00  0.00    -0.035 A 
HETATM   17  C   UNL     1      22.395  48.397  49.054  1.00  0.00     0.050 C 
ENDBRANCH   7  10
ENDBRANCH   5   6
ENDBRANCH   1   5
BRANCH   2  18
HETATM   18  C   UNL     1      27.984  43.216  52.925  1.00  0.00     0.080 A 
HETATM   19  C   UNL     1      29.183  43.240  53.713  1.00  0.00     0.104 A 
HETATM   20  N   UNL     1      30.089  42.383  53.199  1.00  0.00    -0.174 NA
HETATM   21  N   UNL     1      29.498  41.833  52.138  1.00  0.00    -0.288 N 
HETATM   22  H   UNL     1      30.011  41.132  51.613  1.00  0.00     0.188 HD
HETATM   23  C   UNL     1      28.247  42.308  51.912  1.00  0.00     0.128 A 
BRANCH  19  24
HETATM   24  C   UNL     1      29.551  44.043  54.892  1.00  0.00    -0.004 A 
HETATM   25  C   UNL     1      28.928  45.261  55.196  1.00  0.00     0.017 A 
HETATM   26  C   UNL     1      29.341  46.018  56.300  1.00  0.00     0.043 A 
HETATM   27  C   UNL     1      30.385  45.568  57.096  1.00  0.00     0.116 A 
HETATM   28  F   UNL     1      30.786  46.302  58.142  1.00  0.00    -0.206 F 
HETATM   29  C   UNL     1      31.026  44.370  56.816  1.00  0.00     0.043 A 
HETATM   30  C   UNL     1      30.608  43.611  55.719  1.00  0.00     0.017 A 
ENDBRANCH  19  24
ENDBRANCH   2  18
TORSDOF 5
ENDMDL
MODEL 3
REMARK VINA RESULT:      -9.7      1.311      2.066
REMARK  5 active torsions:
REMARK  status: ('A' for Active; 'I' for Inactive)
REMARK    1  A    between atoms: C_3  and  N_4 
REMARK       I    between atoms: N_4  and  C_5 
REMARK    2  A    between atoms: C_5  and  C_6 
REMARK    3  A    between atoms: C_6  and  N_7 
REMARK       I    between atoms: N_7  and  C_8 
REMARK    4  A    between atoms: C_8  and  C_9 
REMARK    5  A    between atoms: C_10  and  C_11 
ROOT
HETATM    1  N   UNL     1      25.772  46.874  51.285  1.00  0.00    -0.348 N 
HETATM    2  C   UNL     1      26.130  46.787  49.960  1.00  0.00     0.255 C 
HETATM    3  O   UNL     1      26.130  45.720  49.352  1.00  0.00    -0.268 OA
HETATM    4  H   UNL     1      25.892  47.757  51.764  1.00  0.00     0.163 HD
ENDROOT
BRANCH   1   5
HETATM    5  C   UNL     1      25.147  45.783  52.011  1.00  0.00     0.226 C 
BRANCH   5   6
HETATM    6  C   UNL     1      25.982  45.182  53.150  1.00  0.00     0.239 C 
HETATM    7  N   UNL     1      27.347  45.358  52.977  1.00  0.00    -0.325 N 
HETATM    8  H   UNL     1      27.613  45.630  52.030  1.00  0.00     0.169 HD
HETATM    9  O   UNL     1      25.446  44.497  54.017  1.00  0.00    -0.271 OA
BRANCH   7  10
HETATM   10  C   UNL     1      28.347  44.725  53.752  1.00  0.00     0.046 A 
HETATM   11  C   UNL     1      28.878  43.506  53.265  1.00  0.00    -0.035 A 
HETATM   12  C   UNL     1      28.380  42.862  51.996  1.00  0.00     0.050 C 
HETATM   13  C   UNL     1      29.874  42.840  53.996  1.00  0.00     0.009 A 
HETATM   14  C   UNL     1      30.341  43.363  55.196  1.00  0.00     0.001 A 
HETATM   15  C   UNL     1      29.837  44.570  55.666  1.00  0.00     0.009 A 
HETATM   16  C   UNL     1      28.859  45.281  54.944  1.00  0.00    -0.035 A 
HETATM   17  C   UNL     1      28.454  46.623  55.492  1.00  0.00     0.050 C 
ENDBRANCH   7  10
ENDBRANCH   5   6
ENDBRANCH   1   5
BRANCH   2  18
HETATM   18  C   UNL     1      26.500  48.059  49.369  1.00  0.00     0.080 A 
HETATM   19  C   UNL     1      25.695  49.122  48.839  1.00  0.00     0.104 A 
HETATM   20  N   UNL     1      26.482  50.146  48.449  1.00  0.00    -0.174 NA
HETATM   21  N   UNL     1      27.729  49.760  48.722  1.00  0.00    -0.288 N 
HETATM   22  H   UNL     1      28.486  50.406  48.521  1.00  0.00     0.188 HD
HETATM   23  C   UNL     1      27.803  48.513  49.252  1.00  0.00     0.128 A 
BRANCH  19  24
HETATM   24  C   UNL     1      24.240  49.226  48.636  1.00  0.00    -0.004 A 
HETATM   25  C   UNL     1      23.355  48.200  48.997  1.00  0.00     0.017 A 
HETATM   26  C   UNL     1      21.983  48.318  48.742  1.00  0.00     0.043 A 
HETATM   27  C   UNL     1      21.491  49.455  48.115  1.00  0.00     0.116 A 
HETATM   28  F   UNL     1      20.180  49.557  47.860  1.00  0.00    -0.206 F 
HETATM   29  C   UNL     1      22.343  50.483  47.739  1.00  0.00     0.043 A 
HETATM   30  C   UNL     1      23.711  50.368  48.000  1.00  0.00     0.017 A 
ENDBRANCH  19  24
ENDBRANCH   2  18
TORSDOF 5
ENDMDL
MODEL 4
REMARK VINA RESULT:      -9.5     11.423     13.370
REMARK  5 active torsions:
REMARK  status: ('A' for Active; 'I' for Inactive)
REMARK    1  A    between atoms: C_3  and  N_4 
REMARK       I    between atoms: N_4  and  C_5 
REMARK    2  A    between atoms: C_5  and  C_6 
REMARK    3  A    between atoms: C_6  and  N_7 
REMARK       I    between atoms: N_7  and  C_8 
REMARK    4  A    between atoms: C_8  and  C_9 
REMARK    5  A    between atoms: C_10  and  C_11 
ROOT
HETATM    1  N   UNL     1      28.382  52.410  40.308  1.00  0.00    -0.348 N 
HETATM    2  C   UNL     1      28.053  51.548  39.289  1.00  0.00     0.255 C 
HETATM    3  O   UNL     1      28.259  51.821  38.110  1.00  0.00    -0.268 OA
HETATM    4  H   UNL     1      28.095  52.183  41.251  1.00  0.00     0.163 HD
ENDROOT
BRANCH   1   5
HETATM    5  C   UNL     1      29.202  53.593  40.113  1.00  0.00     0.226 C 
BRANCH   5   6
HETATM    6  C   UNL     1      30.685  53.438  40.476  1.00  0.00     0.239 C 
HETATM    7  N   UNL     1      31.086  52.115  40.575  1.00  0.00    -0.325 N 
HETATM    8  H   UNL     1      30.314  51.451  40.638  1.00  0.00     0.169 HD
HETATM    9  O   UNL     1      31.354  54.421  40.784  1.00  0.00    -0.271 OA
BRANCH   7  10
HETATM   10  C   UNL     1      32.328  51.685  41.101  1.00  0.00     0.046 A 
HETATM   11  C   UNL     1      33.346  51.346  40.176  1.00  0.00    -0.035 A 
HETATM   12  C   UNL     1      33.126  51.390  38.686  1.00  0.00     0.050 C 
HETATM   13  C   UNL     1      34.596  50.915  40.647  1.00  0.00     0.009 A 
HETATM   14  C   UNL     1      34.844  50.812  42.010  1.00  0.00     0.001 A 
HETATM   15  C   UNL     1      33.852  51.164  42.920  1.00  0.00     0.009 A 
HETATM   16  C   UNL     1      32.597  51.629  42.484  1.00  0.00    -0.035 A 
HETATM   17  C   UNL     1      31.633  52.075  43.551  1.00  0.00     0.050 C 
ENDBRANCH   7  10
ENDBRANCH   5   6
ENDBRANCH   1   5
BRANCH   2  18
HETATM   18  C   UNL     1      27.448  50.310  39.744  1.00  0.00     0.080 A 
HETATM   19  C   UNL     1      28.018  49.167  40.397  1.00  0.00     0.104 A 
HETATM   20  N   UNL     1      27.052  48.272  40.686  1.00  0.00    -0.174 NA
HETATM   21  N   UNL     1      25.918  48.818  40.245  1.00  0.00    -0.288 N 
HETATM   22  H   UNL     1      25.053  48.306  40.387  1.00  0.00     0.188 HD
HETATM   23  C   UNL     1      26.096  50.026  39.653  1.00  0.00     0.128 A 
BRANCH  19  24
HETATM   24  C   UNL     1      29.415  48.839  40.731  1.00  0.00    -0.004 A 
HETATM   25  C   UNL     1      30.345  48.435  39.764  1.00  0.00     0.017 A 
HETATM   26  C   UNL     1      31.651  48.086  40.130  1.00  0.00     0.043 A 
HETATM   27  C   UNL     1      32.029  48.126  41.466  1.00  0.00     0.116 A 
HETATM   28  F   UNL     1      33.274  47.777  41.814  1.00  0.00    -0.206 F 
HETATM   29  C   UNL     1      31.128  48.515  42.446  1.00  0.00     0.043 A 
HETATM   30  C   UNL     1      29.828  48.870  42.079  1.00  0.00     0.017 A 
ENDBRANCH  19  24
ENDBRANCH   2  18
TORSDOF 5
ENDMDL
MODEL 5
REMARK VINA RESULT:      -9.2     11.720     13.526
REMARK  5 active torsions:
REMARK  status: ('A' for Active; 'I' for Inactive)
REMARK    1  A    between atoms: C_3  and  N_4 
REMARK       I    between atoms: N_4  and  C_5 
REMARK    2  A    between atoms: C_5  and  C_6 
REMARK    3  A    between atoms: C_6  and  N_7 
REMARK       I    between atoms: N_7  and  C_8 
REMARK    4  A    between atoms: C_8  and  C_9 
REMARK    5  A    between atoms: C_10  and  C_11 
ROOT
HETATM    1  N   UNL     1      28.368  52.341  40.161  1.00  0.00    -0.348 N 
HETATM    2  C   UNL     1      28.316  51.919  38.853  1.00  0.00     0.255 C 
HETATM    3  O   UNL     1      28.727  52.611  37.927  1.00  0.00    -0.268 OA
HETATM    4  H   UNL     1      27.919  51.780  40.872  1.00  0.00     0.163 HD
ENDROOT
BRANCH   1   5
HETATM    5  C   UNL     1      29.112  53.513  40.586  1.00  0.00     0.226 C 
BRANCH   5   6
HETATM    6  C   UNL     1      30.638  53.354  40.616  1.00  0.00     0.239 C 
HETATM    7  N   UNL     1      31.045  52.046  40.832  1.00  0.00    -0.325 N 
HETATM    8  H   UNL     1      30.306  51.434  41.179  1.00  0.00     0.169 HD
HETATM    9  O   UNL     1      31.365  54.343  40.597  1.00  0.00    -0.271 OA
BRANCH   7  10
HETATM   10  C   UNL     1      32.373  51.650  41.118  1.00  0.00     0.046 A 
HETATM   11  C   UNL     1      32.740  51.530  42.480  1.00  0.00    -0.035 A 
HETATM   12  C   UNL     1      31.784  51.850  43.602  1.00  0.00     0.050 C 
HETATM   13  C   UNL     1      34.045  51.138  42.817  1.00  0.00     0.009 A 
HETATM   14  C   UNL     1      34.983  50.873  41.827  1.00  0.00     0.001 A 
HETATM   15  C   UNL     1      34.619  50.970  40.488  1.00  0.00     0.009 A 
HETATM   16  C   UNL     1      33.310  51.331  40.113  1.00  0.00    -0.035 A 
HETATM   17  C   UNL     1      32.998  51.310  38.641  1.00  0.00     0.050 C 
ENDBRANCH   7  10
ENDBRANCH   5   6
ENDBRANCH   1   5
BRANCH   2  18
HETATM   18  C   UNL     1      27.735  50.600  38.688  1.00  0.00     0.080 A 
HETATM   19  C   UNL     1      28.113  49.328  39.235  1.00  0.00     0.104 A 
HETATM   20  N   UNL     1      27.234  48.381  38.848  1.00  0.00    -0.174 NA
HETATM   21  N   UNL     1      26.335  49.016  38.095  1.00  0.00    -0.288 N 
HETATM   22  H   UNL     1      25.562  48.478  37.716  1.00  0.00     0.188 HD
HETATM   23  C   UNL     1      26.595  50.339  37.946  1.00  0.00     0.128 A 
BRANCH  19  24
HETATM   24  C   UNL     1      29.265  48.934  40.063  1.00  0.00    -0.004 A 
HETATM   25  C   UNL     1      29.258  49.037  41.461  1.00  0.00     0.017 A 
HETATM   26  C   UNL     1      30.392  48.697  42.208  1.00  0.00     0.043 A 
HETATM   27  C   UNL     1      31.544  48.267  41.562  1.00  0.00     0.116 A 
HETATM   28  F   UNL     1      32.631  47.958  42.279  1.00  0.00    -0.206 F 
HETATM   29  C   UNL     1      31.584  48.163  40.180  1.00  0.00     0.043 A 
HETATM   30  C   UNL     1      30.449  48.494  39.435  1.00  0.00     0.017 A 
ENDBRANCH  19  24
ENDBRANCH   2  18
TORSDOF 5
ENDMDL
MODEL 6
REMARK VINA RESULT:      -9.1      4.133      5.455
REMARK  5 active torsions:
REMARK  status: ('A' for Active; 'I' for Inactive)
REMARK    1  A    between atoms: C_3  and  N_4 
REMARK       I    between atoms: N_4  and  C_5 
REMARK    2  A    between atoms: C_5  and  C_6 
REMARK    3  A    between atoms: C_6  and  N_7 
REMARK       I    between atoms: N_7  and  C_8 
REMARK    4  A    between atoms: C_8  and  C_9 
REMARK    5  A    between atoms: C_10  and  C_11 
ROOT
HETATM    1  N   UNL     1      28.828  42.876  51.725  1.00  0.00    -0.348 N 
HETATM    2  C   UNL     1      27.996  41.908  51.215  1.00  0.00     0.255 C 
HETATM    3  O   UNL     1      28.100  40.725  51.528  1.00  0.00    -0.268 OA
HETATM    4  H   UNL     1      28.768  43.814  51.354  1.00  0.00     0.163 HD
ENDROOT
BRANCH   1   5
HETATM    5  C   UNL     1      29.733  42.639  52.835  1.00  0.00     0.226 C 
BRANCH   5   6
HETATM    6  C   UNL     1      29.341  43.303  54.162  1.00  0.00     0.239 C 
HETATM    7  N   UNL     1      30.344  44.103  54.688  1.00  0.00    -0.325 N 
HETATM    8  H   UNL     1      31.261  43.949  54.267  1.00  0.00     0.169 HD
HETATM    9  O   UNL     1      28.293  42.995  54.724  1.00  0.00    -0.271 OA
BRANCH   7  10
HETATM   10  C   UNL     1      30.337  44.657  55.990  1.00  0.00     0.046 A 
HETATM   11  C   UNL     1      29.503  45.778  56.218  1.00  0.00    -0.035 A 
HETATM   12  C   UNL     1      28.680  46.405  55.121  1.00  0.00     0.050 C 
HETATM   13  C   UNL     1      29.458  46.363  57.493  1.00  0.00     0.009 A 
HETATM   14  C   UNL     1      30.227  45.856  58.533  1.00  0.00     0.001 A 
HETATM   15  C   UNL     1      31.031  44.742  58.317  1.00  0.00     0.009 A 
HETATM   16  C   UNL     1      31.078  44.111  57.059  1.00  0.00    -0.035 A 
HETATM   17  C   UNL     1      31.904  42.857  56.962  1.00  0.00     0.050 C 
ENDBRANCH   7  10
ENDBRANCH   5   6
ENDBRANCH   1   5
BRANCH   2  18
HETATM   18  C   UNL     1      27.004  42.419  50.288  1.00  0.00     0.080 A 
HETATM   19  C   UNL     1      26.202  43.607  50.326  1.00  0.00     0.104 A 
HETATM   20  N   UNL     1      25.458  43.698  49.204  1.00  0.00    -0.174 NA
HETATM   21  N   UNL     1      25.773  42.623  48.481  1.00  0.00    -0.288 N 
HETATM   22  H   UNL     1      25.332  42.510  47.574  1.00  0.00     0.188 HD
HETATM   23  C   UNL     1      26.676  41.811  49.087  1.00  0.00     0.128 A 
BRANCH  19  24
HETATM   24  C   UNL     1      26.056  44.644  51.362  1.00  0.00    -0.004 A 
HETATM   25  C   UNL     1      25.688  44.342  52.681  1.00  0.00     0.017 A 
HETATM   26  C   UNL     1      25.512  45.361  53.625  1.00  0.00     0.043 A 
HETATM   27  C   UNL     1      25.690  46.687  53.252  1.00  0.00     0.116 A 
HETATM   28  F   UNL     1      25.507  47.660  54.154  1.00  0.00    -0.206 F 
HETATM   29  C   UNL     1      26.047  47.017  51.954  1.00  0.00     0.043 A 
HETATM   30  C   UNL     1      26.229  45.999  51.014  1.00  0.00     0.017 A 
ENDBRANCH  19  24
ENDBRANCH   2  18
TORSDOF 5
ENDMDL
MODEL 7
REMARK VINA RESULT:      -9.0      4.554      6.264
REMARK  5 active torsions:
REMARK  status: ('A' for Active; 'I' for Inactive)
REMARK    1  A    between atoms: C_3  and  N_4 
REMARK       I    between atoms: N_4  and  C_5 
REMARK    2  A    between atoms: C_5  and  C_6 
REMARK    3  A    between atoms: C_6  and  N_7 
REMARK       I    between atoms: N_7  and  C_8 
REMARK    4  A    between atoms: C_8  and  C_9 
REMARK    5  A    between atoms: C_10  and  C_11 
ROOT
HETATM    1  N   UNL     1      28.883  42.251  51.847  1.00  0.00    -0.348 N 
HETATM    2  C   UNL     1      28.405  40.976  51.657  1.00  0.00     0.255 C 
HETATM    3  O   UNL     1      28.933  39.996  52.175  1.00  0.00    -0.268 OA
HETATM    4  H   UNL     1      28.476  43.008  51.315  1.00  0.00     0.163 HD
ENDROOT
BRANCH   1   5
HETATM    5  C   UNL     1      29.887  42.581  52.843  1.00  0.00     0.226 C 
BRANCH   5   6
HETATM    6  C   UNL     1      29.362  43.262  54.114  1.00  0.00     0.239 C 
HETATM    7  N   UNL     1      30.280  44.129  54.686  1.00  0.00    -0.325 N 
HETATM    8  H   UNL     1      31.233  44.011  54.341  1.00  0.00     0.169 HD
HETATM    9  O   UNL     1      28.290  42.917  54.605  1.00  0.00    -0.271 OA
BRANCH   7  10
HETATM   10  C   UNL     1      30.144  44.720  55.965  1.00  0.00     0.046 A 
HETATM   11  C   UNL     1      31.000  44.254  56.993  1.00  0.00    -0.035 A 
HETATM   12  C   UNL     1      31.993  43.142  56.771  1.00  0.00     0.050 C 
HETATM   13  C   UNL     1      30.906  44.809  58.279  1.00  0.00     0.009 A 
HETATM   14  C   UNL     1      29.980  45.807  58.556  1.00  0.00     0.001 A 
HETATM   15  C   UNL     1      29.153  46.280  57.542  1.00  0.00     0.009 A 
HETATM   16  C   UNL     1      29.240  45.768  56.233  1.00  0.00    -0.035 A 
HETATM   17  C   UNL     1      28.368  46.419  55.193  1.00  0.00     0.050 C 
ENDBRANCH   7  10
ENDBRANCH   5   6
ENDBRANCH   1   5
BRANCH   2  18
HETATM   18  C   UNL     1      27.237  40.912  50.800  1.00  0.00     0.080 A 
HETATM   19  C   UNL     1      26.327  41.933  50.368  1.00  0.00     0.104 A 
HETATM   20  N   UNL     1      25.418  41.412  49.518  1.00  0.00    -0.174 NA
HETATM   21  N   UNL     1      25.734  40.122  49.407  1.00  0.00    -0.288 N 
HETATM   22  H   UNL     1      25.177  39.544  48.786  1.00  0.00     0.188 HD
HETATM   23  C   UNL     1      26.798  39.760  50.166  1.00  0.00     0.128 A 
BRANCH  19  24
HETATM   24  C   UNL     1      26.227  43.358  50.730  1.00  0.00    -0.004 A 
HETATM   25  C   UNL     1      26.660  44.383  49.878  1.00  0.00     0.017 A 
HETATM   26  C   UNL     1      26.593  45.723  50.281  1.00  0.00     0.043 A 
HETATM   27  C   UNL     1      26.106  46.043  51.541  1.00  0.00     0.116 A 
HETATM   28  F   UNL     1      26.057  47.324  51.928  1.00  0.00    -0.206 F 
HETATM   29  C   UNL     1      25.677  45.050  52.409  1.00  0.00     0.043 A 
HETATM   30  C   UNL     1      25.737  43.714  52.004  1.00  0.00     0.017 A 
ENDBRANCH  19  24
ENDBRANCH   2  18
TORSDOF 5
ENDMDL
MODEL 8
REMARK VINA RESULT:      -9.0      5.471      7.989
REMARK  5 active torsions:
REMARK  status: ('A' for Active; 'I' for Inactive)
REMARK    1  A    between atoms: C_3  and  N_4 
REMARK       I    between atoms: N_4  and  C_5 
REMARK    2  A    between atoms: C_5  and  C_6 
REMARK    3  A    between atoms: C_6  and  N_7 
REMARK       I    between atoms: N_7  and  C_8 
REMARK    4  A    between atoms: C_8  and  C_9 
REMARK    5  A    between atoms: C_10  and  C_11 
ROOT
HETATM    1  N   UNL     1      25.488  44.890  52.717  1.00  0.00    -0.348 N 
HETATM    2  C   UNL     1      26.061  44.817  53.965  1.00  0.00     0.255 C 
HETATM    3  O   UNL     1      26.053  43.785  54.629  1.00  0.00    -0.268 OA
HETATM    4  H   UNL     1      25.429  45.790  52.260  1.00  0.00     0.163 HD
ENDROOT
BRANCH   1   5
HETATM    5  C   UNL     1      25.041  43.721  51.982  1.00  0.00     0.226 C 
BRANCH   5   6
HETATM    6  C   UNL     1      26.123  42.994  51.171  1.00  0.00     0.239 C 
HETATM    7  N   UNL     1      26.093  41.617  51.333  1.00  0.00    -0.325 N 
HETATM    8  H   UNL     1      25.539  41.306  52.132  1.00  0.00     0.169 HD
HETATM    9  O   UNL     1      26.991  43.633  50.583  1.00  0.00    -0.271 OA
BRANCH   7  10
HETATM   10  C   UNL     1      27.097  40.729  50.881  1.00  0.00     0.046 A 
HETATM   11  C   UNL     1      28.166  40.448  51.765  1.00  0.00    -0.035 A 
HETATM   12  C   UNL     1      28.279  41.093  53.123  1.00  0.00     0.050 C 
HETATM   13  C   UNL     1      29.187  39.571  51.365  1.00  0.00     0.009 A 
HETATM   14  C   UNL     1      29.161  38.979  50.108  1.00  0.00     0.001 A 
HETATM   15  C   UNL     1      28.101  39.238  49.246  1.00  0.00     0.009 A 
HETATM   16  C   UNL     1      27.045  40.088  49.625  1.00  0.00    -0.035 A 
HETATM   17  C   UNL     1      25.901  40.221  48.656  1.00  0.00     0.050 C 
ENDBRANCH   7  10
ENDBRANCH   5   6
ENDBRANCH   1   5
BRANCH   2  18
HETATM   18  C   UNL     1      26.660  46.063  54.406  1.00  0.00     0.080 A 
HETATM   19  C   UNL     1      27.924  46.332  55.028  1.00  0.00     0.104 A 
HETATM   20  N   UNL     1      28.078  47.661  55.203  1.00  0.00    -0.174 NA
HETATM   21  N   UNL     1      26.970  48.215  54.711  1.00  0.00    -0.288 N 
HETATM   22  H   UNL     1      26.893  49.227  54.726  1.00  0.00     0.188 HD
HETATM   23  C   UNL     1      26.077  47.309  54.241  1.00  0.00     0.128 A 
BRANCH  19  24
HETATM   24  C   UNL     1      28.980  45.424  55.507  1.00  0.00    -0.004 A 
HETATM   25  C   UNL     1      29.672  45.642  56.707  1.00  0.00     0.017 A 
HETATM   26  C   UNL     1      30.703  44.781  57.103  1.00  0.00     0.043 A 
HETATM   27  C   UNL     1      31.056  43.707  56.297  1.00  0.00     0.116 A 
HETATM   28  F   UNL     1      32.053  42.895  56.672  1.00  0.00    -0.206 F 
HETATM   29  C   UNL     1      30.395  43.470  55.101  1.00  0.00     0.043 A 
HETATM   30  C   UNL     1      29.361  44.325  54.710  1.00  0.00     0.017 A 
ENDBRANCH  19  24
ENDBRANCH   2  18
TORSDOF 5
ENDMDL
MODEL 9
REMARK VINA RESULT:      -8.9     11.284     13.051
REMARK  5 active torsions:
REMARK  status: ('A' for Active; 'I' for Inactive)
REMARK    1  A    between atoms: C_3  and  N_4 
REMARK       I    between atoms: N_4  and  C_5 
REMARK    2  A    between atoms: C_5  and  C_6 
REMARK    3  A    between atoms: C_6  and  N_7 
REMARK       I    between atoms: N_7  and  C_8 
REMARK    4  A    between atoms: C_8  and  C_9 
REMARK    5  A    between atoms: C_10  and  C_11 
ROOT
HETATM    1  N   UNL     1      29.288  47.507  38.796  1.00  0.00    -0.348 N 
HETATM    2  C   UNL     1      28.072  47.765  39.384  1.00  0.00     0.255 C 
HETATM    3  O   UNL     1      27.726  47.226  40.431  1.00  0.00    -0.268 OA
HETATM    4  H   UNL     1      29.479  47.895  37.882  1.00  0.00     0.163 HD
ENDROOT
BRANCH   1   5
HETATM    5  C   UNL     1      30.351  46.776  39.462  1.00  0.00     0.226 C 
BRANCH   5   6
HETATM    6  C   UNL     1      31.382  47.638  40.206  1.00  0.00     0.239 C 
HETATM    7  N   UNL     1      31.081  48.991  40.181  1.00  0.00    -0.325 N 
HETATM    8  H   UNL     1      30.379  49.246  39.485  1.00  0.00     0.169 HD
HETATM    9  O   UNL     1      32.421  47.137  40.626  1.00  0.00    -0.271 OA
BRANCH   7  10
HETATM   10  C   UNL     1      31.957  50.021  40.595  1.00  0.00     0.046 A 
HETATM   11  C   UNL     1      32.471  50.882  39.596  1.00  0.00    -0.035 A 
HETATM   12  C   UNL     1      32.149  50.701  38.134  1.00  0.00     0.050 C 
HETATM   13  C   UNL     1      33.344  51.922  39.955  1.00  0.00     0.009 A 
HETATM   14  C   UNL     1      33.712  52.111  41.281  1.00  0.00     0.001 A 
HETATM   15  C   UNL     1      33.192  51.280  42.267  1.00  0.00     0.009 A 
HETATM   16  C   UNL     1      32.291  50.246  41.947  1.00  0.00    -0.035 A 
HETATM   17  C   UNL     1      31.714  49.470  43.100  1.00  0.00     0.050 C 
ENDBRANCH   7  10
ENDBRANCH   5   6
ENDBRANCH   1   5
BRANCH   2  18
HETATM   18  C   UNL     1      27.259  48.717  38.651  1.00  0.00     0.080 A 
HETATM   19  C   UNL     1      27.282  50.151  38.623  1.00  0.00     0.104 A 
HETATM   20  N   UNL     1      26.372  50.610  37.740  1.00  0.00    -0.174 NA
HETATM   21  N   UNL     1      25.797  49.522  37.224  1.00  0.00    -0.288 N 
HETATM   22  H   UNL     1      25.086  49.649  36.511  1.00  0.00     0.188 HD
HETATM   23  C   UNL     1      26.271  48.363  37.746  1.00  0.00     0.128 A 
BRANCH  19  24
HETATM   24  C   UNL     1      28.074  51.122  39.398  1.00  0.00    -0.004 A 
HETATM   25  C   UNL     1      28.787  52.166  38.792  1.00  0.00     0.017 A 
HETATM   26  C   UNL     1      29.566  53.039  39.561  1.00  0.00     0.043 A 
HETATM   27  C   UNL     1      29.648  52.865  40.937  1.00  0.00     0.116 A 
HETATM   28  F   UNL     1      30.407  53.692  41.667  1.00  0.00    -0.206 F 
HETATM   29  C   UNL     1      28.960  51.836  41.563  1.00  0.00     0.043 A 
HETATM   30  C   UNL     1      28.176  50.970  40.796  1.00  0.00     0.017 A 
ENDBRANCH  19  24
ENDBRANCH   2  18
TORSDOF 5
ENDMDL
MODEL 10
REMARK VINA RESULT:      -8.9      3.717      9.060
REMARK  5 active torsions:
REMARK  status: ('A' for Active; 'I' for Inactive)
REMARK    1  A    between atoms: C_3  and  N_4 
REMARK       I    between atoms: N_4  and  C_5 
REMARK    2  A    between atoms: C_5  and  C_6 
REMARK    3  A    between atoms: C_6  and  N_7 
REMARK       I    between atoms: N_7  and  C_8 
REMARK    4  A    between atoms: C_8  and  C_9 
REMARK    5  A    between atoms: C_10  and  C_11 
ROOT
HETATM    1  N   UNL     1      24.236  46.303  50.487  1.00  0.00    -0.348 N 
HETATM    2  C   UNL     1      24.608  45.364  51.419  1.00  0.00     0.255 C 
HETATM    3  O   UNL     1      24.187  44.211  51.389  1.00  0.00    -0.268 OA
HETATM    4  H   UNL     1      24.527  47.262  50.620  1.00  0.00     0.163 HD
ENDROOT
BRANCH   1   5
HETATM    5  C   UNL     1      23.518  45.971  49.270  1.00  0.00     0.226 C 
BRANCH   5   6
HETATM    6  C   UNL     1      22.771  47.135  48.603  1.00  0.00     0.239 C 
HETATM    7  N   UNL     1      22.362  48.107  49.503  1.00  0.00    -0.325 N 
HETATM    8  H   UNL     1      22.390  47.806  50.478  1.00  0.00     0.169 HD
HETATM    9  O   UNL     1      22.467  47.077  47.415  1.00  0.00    -0.271 OA
BRANCH   7  10
HETATM   10  C   UNL     1      21.477  49.168  49.199  1.00  0.00     0.046 A 
HETATM   11  C   UNL     1      22.049  50.393  48.777  1.00  0.00    -0.035 A 
HETATM   12  C   UNL     1      23.540  50.598  48.691  1.00  0.00     0.050 C 
HETATM   13  C   UNL     1      21.215  51.477  48.461  1.00  0.00     0.009 A 
HETATM   14  C   UNL     1      19.834  51.363  48.563  1.00  0.00     0.001 A 
HETATM   15  C   UNL     1      19.270  50.154  48.957  1.00  0.00     0.009 A 
HETATM   16  C   UNL     1      20.074  49.037  49.253  1.00  0.00    -0.035 A 
HETATM   17  C   UNL     1      19.358  47.753  49.574  1.00  0.00     0.050 C 
ENDBRANCH   7  10
ENDBRANCH   5   6
ENDBRANCH   1   5
BRANCH   2  18
HETATM   18  C   UNL     1      25.528  45.867  52.422  1.00  0.00     0.080 A 
HETATM   19  C   UNL     1      26.686  45.271  53.023  1.00  0.00     0.104 A 
HETATM   20  N   UNL     1      27.268  46.146  53.869  1.00  0.00    -0.174 NA
HETATM   21  N   UNL     1      26.523  47.250  53.807  1.00  0.00    -0.288 N 
HETATM   22  H   UNL     1      26.807  48.051  54.362  1.00  0.00     0.188 HD
HETATM   23  C   UNL     1      25.457  47.135  52.976  1.00  0.00     0.128 A 
BRANCH  19  24
HETATM   24  C   UNL     1      27.260  43.921  52.889  1.00  0.00    -0.004 A 
HETATM   25  C   UNL     1      27.493  43.089  53.993  1.00  0.00     0.017 A 
HETATM   26  C   UNL     1      28.085  41.831  53.827  1.00  0.00     0.043 A 
HETATM   27  C   UNL     1      28.459  41.404  52.560  1.00  0.00     0.116 A 
HETATM   28  F   UNL     1      29.039  40.207  52.407  1.00  0.00    -0.206 F 
HETATM   29  C   UNL     1      28.248  42.208  51.449  1.00  0.00     0.043 A 
HETATM   30  C   UNL     1      27.650  43.460  51.614  1.00  0.00     0.017 A 
ENDBRANCH  19  24
ENDBRANCH   2  18
TORSDOF 5
ENDMDL
