MODEL 1
REMARK VINA RESULT:      -9.9      0.000      0.000
REMARK  4 active torsions:
REMARK  status: ('A' for Active; 'I' for Inactive)
REMARK    1  A    between atoms: C_5  and  C_6 
REMARK    2  A    between atoms: C_6  and  N_7 
REMARK       I    between atoms: N_7  and  C_8 
REMARK    3  A    between atoms: C_8  and  C_10 
REMARK    4  A    between atoms: C_16  and  C_20 
ROOT
HETATM    1  C   UNL     1      27.113  43.738  52.001  1.00  0.00     0.059 A 
HETATM    2  C   UNL     1      27.831  42.683  51.463  1.00  0.00     0.106 A 
HETATM    3  N   UNL     1      28.907  42.427  52.262  1.00  0.00    -0.364 N 
HETATM    4  H   UNL     1      29.600  41.710  52.095  1.00  0.00     0.165 HD
HETATM    5  C   UNL     1      28.904  43.277  53.343  1.00  0.00     0.044 A 
HETATM    6  C   UNL     1      29.808  43.364  54.414  1.00  0.00     0.042 A 
HETATM    7  C   UNL     1      29.559  44.302  55.427  1.00  0.00    -0.021 A 
HETATM    8  C   UNL     1      28.421  45.111  55.348  1.00  0.00     0.013 A 
HETATM    9  C   UNL     1      27.527  45.013  54.269  1.00  0.00     0.016 A 
HETATM   10  C   UNL     1      27.776  44.094  53.228  1.00  0.00     0.008 A 
ENDROOT
BRANCH   1  11
HETATM   11  C   UNL     1      25.918  44.289  51.366  1.00  0.00     0.254 C 
HETATM   12  N   UNL     1      25.859  45.662  51.336  1.00  0.00    -0.353 N 
HETATM   13  H   UNL     1      26.657  46.190  51.655  1.00  0.00     0.163 HD
HETATM   14  O   UNL     1      25.064  43.574  50.849  1.00  0.00    -0.268 OA
BRANCH  12  15
HETATM   15  C   UNL     1      24.768  46.365  50.712  1.00  0.00     0.161 C 
BRANCH  15  16
HETATM   16  C   UNL     1      25.263  47.545  49.915  1.00  0.00    -0.037 A 
HETATM   17  C   UNL     1      24.349  48.393  49.266  1.00  0.00     0.012 A 
HETATM   18  C   UNL     1      24.797  49.497  48.534  1.00  0.00     0.046 A 
HETATM   19  C   UNL     1      26.160  49.761  48.459  1.00  0.00     0.154 A 
HETATM   20  F   UNL     1      26.587  50.819  47.756  1.00  0.00    -0.203 F 
HETATM   21  C   UNL     1      27.071  48.937  49.110  1.00  0.00     0.155 A 
HETATM   22  C   UNL     1      26.633  47.835  49.838  1.00  0.00     0.054 A 
HETATM   23  F   UNL     1      28.384  49.199  49.041  1.00  0.00    -0.203 F 
ENDBRANCH  15  16
ENDBRANCH  12  15
ENDBRANCH   1  11
BRANCH   7  24
HETATM   24  C   UNL     1      30.482  44.415  56.546  1.00  0.00     0.010 A 
HETATM   25  C   UNL     1      31.588  43.614  56.916  1.00  0.00     0.152 A 
HETATM   26  N   UNL     1      32.185  44.038  58.033  1.00  0.00    -0.187 NA
HETATM   27  N   UNL     1      31.462  45.111  58.387  1.00  0.00    -0.289 N 
HETATM   28  H   UNL     1      31.726  45.613  59.228  1.00  0.00     0.188 HD
HETATM   29  C   UNL     1      30.433  45.379  57.531  1.00  0.00     0.123 A 
ENDBRANCH   7  24
TORSDOF 4
ENDMDL
MODEL 2
REMARK VINA RESULT:      -9.5      2.427      3.291
REMARK  4 active torsions:
REMARK  status: ('A' for Active; 'I' for Inactive)
REMARK    1  A    between atoms: C_5  and  C_6 
REMARK    2  A    between atoms: C_6  and  N_7 
REMARK       I    between atoms: N_7  and  C_8 
REMARK    3  A    between atoms: C_8  and  C_10 
REMARK    4  A    between atoms: C_16  and  C_20 
ROOT
HETATM    1  C   UNL     1      26.069  46.540  53.370  1.00  0.00     0.059 A 
HETATM    2  C   UNL     1      25.764  47.707  54.049  1.00  0.00     0.106 A 
HETATM    3  N   UNL     1      26.576  47.809  55.141  1.00  0.00    -0.364 N 
HETATM    4  H   UNL     1      26.557  48.564  55.813  1.00  0.00     0.165 HD
HETATM    5  C   UNL     1      27.441  46.742  55.185  1.00  0.00     0.044 A 
HETATM    6  C   UNL     1      28.446  46.445  56.120  1.00  0.00     0.042 A 
HETATM    7  C   UNL     1      29.231  45.299  55.919  1.00  0.00    -0.021 A 
HETATM    8  C   UNL     1      28.999  44.497  54.798  1.00  0.00     0.013 A 
HETATM    9  C   UNL     1      27.989  44.806  53.873  1.00  0.00     0.016 A 
HETATM   10  C   UNL     1      27.173  45.940  54.073  1.00  0.00     0.008 A 
ENDROOT
BRANCH   1  11
HETATM   11  C   UNL     1      25.355  46.111  52.169  1.00  0.00     0.254 C 
HETATM   12  N   UNL     1      25.410  46.994  51.117  1.00  0.00    -0.353 N 
HETATM   13  H   UNL     1      25.995  47.810  51.198  1.00  0.00     0.163 HD
HETATM   14  O   UNL     1      24.801  45.018  52.093  1.00  0.00    -0.268 OA
BRANCH  12  15
HETATM   15  C   UNL     1      24.793  46.706  49.848  1.00  0.00     0.161 C 
BRANCH  15  16
HETATM   16  C   UNL     1      24.033  47.900  49.327  1.00  0.00    -0.037 A 
HETATM   17  C   UNL     1      24.722  49.068  48.955  1.00  0.00     0.012 A 
HETATM   18  C   UNL     1      24.029  50.177  48.460  1.00  0.00     0.046 A 
HETATM   19  C   UNL     1      22.646  50.116  48.326  1.00  0.00     0.154 A 
HETATM   20  F   UNL     1      21.984  51.180  47.853  1.00  0.00    -0.203 F 
HETATM   21  C   UNL     1      21.958  48.961  48.677  1.00  0.00     0.155 A 
HETATM   22  C   UNL     1      22.640  47.853  49.173  1.00  0.00     0.054 A 
HETATM   23  F   UNL     1      20.626  48.902  48.539  1.00  0.00    -0.203 F 
ENDBRANCH  15  16
ENDBRANCH  12  15
ENDBRANCH   1  11
BRANCH   7  24
HETATM   24  C   UNL     1      30.276  44.967  56.875  1.00  0.00     0.010 A 
HETATM   25  C   UNL     1      31.259  43.949  56.853  1.00  0.00     0.152 A 
HETATM   26  N   UNL     1      32.039  43.956  57.938  1.00  0.00    -0.187 NA
HETATM   27  N   UNL     1      31.557  44.977  58.663  1.00  0.00    -0.289 N 
HETATM   28  H   UNL     1      31.994  45.181  59.555  1.00  0.00     0.188 HD
HETATM   29  C   UNL     1      30.504  45.613  58.072  1.00  0.00     0.123 A 
ENDBRANCH   7  24
TORSDOF 4
ENDMDL
MODEL 3
REMARK VINA RESULT:      -9.5      4.225      6.080
REMARK  4 active torsions:
REMARK  status: ('A' for Active; 'I' for Inactive)
REMARK    1  A    between atoms: C_5  and  C_6 
REMARK    2  A    between atoms: C_6  and  N_7 
REMARK       I    between atoms: N_7  and  C_8 
REMARK    3  A    between atoms: C_8  and  C_10 
REMARK    4  A    between atoms: C_16  and  C_20 
ROOT
HETATM    1  C   UNL     1      27.088  44.149  51.867  1.00  0.00     0.059 A 
HETATM    2  C   UNL     1      26.305  45.224  52.253  1.00  0.00     0.106 A 
HETATM    3  N   UNL     1      26.753  45.687  53.456  1.00  0.00    -0.364 N 
HETATM    4  H   UNL     1      26.353  46.462  53.967  1.00  0.00     0.165 HD
HETATM    5  C   UNL     1      27.843  44.956  53.866  1.00  0.00     0.044 A 
HETATM    6  C   UNL     1      28.620  45.087  55.028  1.00  0.00     0.042 A 
HETATM    7  C   UNL     1      29.721  44.233  55.198  1.00  0.00    -0.021 A 
HETATM    8  C   UNL     1      30.014  43.288  54.210  1.00  0.00     0.013 A 
HETATM    9  C   UNL     1      29.226  43.168  53.055  1.00  0.00     0.016 A 
HETATM   10  C   UNL     1      28.100  44.002  52.879  1.00  0.00     0.008 A 
ENDROOT
BRANCH   1  11
HETATM   11  C   UNL     1      26.850  43.397  50.636  1.00  0.00     0.254 C 
HETATM   12  N   UNL     1      26.260  42.168  50.815  1.00  0.00    -0.353 N 
HETATM   13  H   UNL     1      25.951  41.907  51.738  1.00  0.00     0.163 HD
HETATM   14  O   UNL     1      27.106  43.858  49.528  1.00  0.00    -0.268 OA
BRANCH  12  15
HETATM   15  C   UNL     1      25.921  41.317  49.703  1.00  0.00     0.161 C 
BRANCH  15  16
HETATM   16  C   UNL     1      27.043  40.361  49.385  1.00  0.00    -0.037 A 
HETATM   17  C   UNL     1      27.291  39.981  48.054  1.00  0.00     0.012 A 
HETATM   18  C   UNL     1      28.336  39.106  47.746  1.00  0.00     0.046 A 
HETATM   19  C   UNL     1      29.142  38.616  48.767  1.00  0.00     0.154 A 
HETATM   20  F   UNL     1      30.142  37.775  48.470  1.00  0.00    -0.203 F 
HETATM   21  C   UNL     1      28.915  38.996  50.085  1.00  0.00     0.155 A 
HETATM   22  C   UNL     1      27.874  39.867  50.400  1.00  0.00     0.054 A 
HETATM   23  F   UNL     1      29.698  38.528  51.066  1.00  0.00    -0.203 F 
ENDBRANCH  15  16
ENDBRANCH  12  15
ENDBRANCH   1  11
BRANCH   7  24
HETATM   24  C   UNL     1      30.540  44.345  56.395  1.00  0.00     0.010 A 
HETATM   25  C   UNL     1      31.597  43.533  56.870  1.00  0.00     0.152 A 
HETATM   26  N   UNL     1      32.097  43.960  58.034  1.00  0.00    -0.187 NA
HETATM   27  N   UNL     1      31.360  45.046  58.311  1.00  0.00    -0.289 N 
HETATM   28  H   UNL     1      31.553  45.552  59.168  1.00  0.00     0.188 HD
HETATM   29  C   UNL     1      30.416  45.319  57.363  1.00  0.00     0.123 A 
ENDBRANCH   7  24
TORSDOF 4
ENDMDL
MODEL 4
REMARK VINA RESULT:      -9.3      3.752      8.617
REMARK  4 active torsions:
REMARK  status: ('A' for Active; 'I' for Inactive)
REMARK    1  A    between atoms: C_5  and  C_6 
REMARK    2  A    between atoms: C_6  and  N_7 
REMARK       I    between atoms: N_7  and  C_8 
REMARK    3  A    between atoms: C_8  and  C_10 
REMARK    4  A    between atoms: C_16  and  C_20 
ROOT
HETATM    1  C   UNL     1      26.099  44.217  51.298  1.00  0.00     0.059 A 
HETATM    2  C   UNL     1      24.832  43.701  51.513  1.00  0.00     0.106 A 
HETATM    3  N   UNL     1      23.907  44.607  51.083  1.00  0.00    -0.364 N 
HETATM    4  H   UNL     1      22.905  44.484  51.130  1.00  0.00     0.165 HD
HETATM    5  C   UNL     1      24.537  45.710  50.556  1.00  0.00     0.044 A 
HETATM    6  C   UNL     1      23.984  46.872  49.996  1.00  0.00     0.042 A 
HETATM    7  C   UNL     1      24.852  47.849  49.484  1.00  0.00    -0.021 A 
HETATM    8  C   UNL     1      26.233  47.634  49.538  1.00  0.00     0.013 A 
HETATM    9  C   UNL     1      26.771  46.468  50.104  1.00  0.00     0.016 A 
HETATM   10  C   UNL     1      25.913  45.486  50.647  1.00  0.00     0.008 A 
ENDROOT
BRANCH   1  11
HETATM   11  C   UNL     1      27.319  43.509  51.682  1.00  0.00     0.254 C 
HETATM   12  N   UNL     1      27.839  43.873  52.901  1.00  0.00    -0.353 N 
HETATM   13  H   UNL     1      27.318  44.513  53.480  1.00  0.00     0.163 HD
HETATM   14  O   UNL     1      27.802  42.617  50.991  1.00  0.00    -0.268 OA
BRANCH  12  15
HETATM   15  C   UNL     1      29.014  43.244  53.447  1.00  0.00     0.161 C 
BRANCH  15  16
HETATM   16  C   UNL     1      29.517  43.985  54.660  1.00  0.00    -0.037 A 
HETATM   17  C   UNL     1      28.877  45.163  55.084  1.00  0.00     0.012 A 
HETATM   18  C   UNL     1      29.327  45.852  56.214  1.00  0.00     0.046 A 
HETATM   19  C   UNL     1      30.412  45.358  56.929  1.00  0.00     0.154 A 
HETATM   20  F   UNL     1      30.842  46.020  58.011  1.00  0.00    -0.203 F 
HETATM   21  C   UNL     1      31.042  44.186  56.528  1.00  0.00     0.155 A 
HETATM   22  C   UNL     1      30.602  43.496  55.402  1.00  0.00     0.054 A 
HETATM   23  F   UNL     1      32.083  43.709  57.224  1.00  0.00    -0.203 F 
ENDBRANCH  15  16
ENDBRANCH  12  15
ENDBRANCH   1  11
BRANCH   7  24
HETATM   24  C   UNL     1      24.305  49.064  48.901  1.00  0.00     0.010 A 
HETATM   25  C   UNL     1      24.854  49.966  47.959  1.00  0.00     0.152 A 
HETATM   26  N   UNL     1      24.039  50.988  47.682  1.00  0.00    -0.187 NA
HETATM   27  N   UNL     1      22.965  50.748  48.450  1.00  0.00    -0.289 N 
HETATM   28  H   UNL     1      22.194  51.406  48.416  1.00  0.00     0.188 HD
HETATM   29  C   UNL     1      23.074  49.611  49.197  1.00  0.00     0.123 A 
ENDBRANCH   7  24
TORSDOF 4
ENDMDL
MODEL 5
REMARK VINA RESULT:      -9.3      3.248      8.036
REMARK  4 active torsions:
REMARK  status: ('A' for Active; 'I' for Inactive)
REMARK    1  A    between atoms: C_5  and  C_6 
REMARK    2  A    between atoms: C_6  and  N_7 
REMARK       I    between atoms: N_7  and  C_8 
REMARK    3  A    between atoms: C_8  and  C_10 
REMARK    4  A    between atoms: C_16  and  C_20 
ROOT
HETATM    1  C   UNL     1      27.286  42.984  51.073  1.00  0.00     0.059 A 
HETATM    2  C   UNL     1      27.023  42.339  49.876  1.00  0.00     0.106 A 
HETATM    3  N   UNL     1      26.315  43.180  49.067  1.00  0.00    -0.364 N 
HETATM    4  H   UNL     1      25.989  42.956  48.137  1.00  0.00     0.165 HD
HETATM    5  C   UNL     1      26.127  44.390  49.694  1.00  0.00     0.044 A 
HETATM    6  C   UNL     1      25.468  45.540  49.235  1.00  0.00     0.042 A 
HETATM    7  C   UNL     1      25.447  46.675  50.060  1.00  0.00    -0.021 A 
HETATM    8  C   UNL     1      26.087  46.631  51.302  1.00  0.00     0.013 A 
HETATM    9  C   UNL     1      26.740  45.472  51.748  1.00  0.00     0.016 A 
HETATM   10  C   UNL     1      26.749  44.313  50.943  1.00  0.00     0.008 A 
ENDROOT
BRANCH   1  11
HETATM   11  C   UNL     1      27.997  42.345  52.178  1.00  0.00     0.254 C 
HETATM   12  N   UNL     1      29.114  43.018  52.613  1.00  0.00    -0.353 N 
HETATM   13  H   UNL     1      29.317  43.925  52.224  1.00  0.00     0.163 HD
HETATM   14  O   UNL     1      27.589  41.317  52.711  1.00  0.00    -0.268 OA
BRANCH  12  15
HETATM   15  C   UNL     1      29.906  42.545  53.719  1.00  0.00     0.161 C 
BRANCH  15  16
HETATM   16  C   UNL     1      29.965  43.569  54.825  1.00  0.00    -0.037 A 
HETATM   17  C   UNL     1      30.922  43.449  55.848  1.00  0.00     0.012 A 
HETATM   18  C   UNL     1      30.993  44.399  56.871  1.00  0.00     0.046 A 
HETATM   19  C   UNL     1      30.114  45.475  56.868  1.00  0.00     0.154 A 
HETATM   20  F   UNL     1      30.183  46.384  57.851  1.00  0.00    -0.203 F 
HETATM   21  C   UNL     1      29.174  45.611  55.854  1.00  0.00     0.155 A 
HETATM   22  C   UNL     1      29.095  44.668  54.832  1.00  0.00     0.054 A 
HETATM   23  F   UNL     1      28.332  46.653  55.850  1.00  0.00    -0.203 F 
ENDBRANCH  15  16
ENDBRANCH  12  15
ENDBRANCH   1  11
BRANCH   7  24
HETATM   24  C   UNL     1      24.767  47.880  49.609  1.00  0.00     0.010 A 
HETATM   25  C   UNL     1      23.393  48.220  49.608  1.00  0.00     0.152 A 
HETATM   26  N   UNL     1      23.158  49.429  49.089  1.00  0.00    -0.187 NA
HETATM   27  N   UNL     1      24.380  49.868  48.752  1.00  0.00    -0.289 N 
HETATM   28  H   UNL     1      24.461  50.784  48.324  1.00  0.00     0.188 HD
HETATM   29  C   UNL     1      25.376  48.980  49.043  1.00  0.00     0.123 A 
ENDBRANCH   7  24
TORSDOF 4
ENDMDL
MODEL 6
REMARK VINA RESULT:      -9.2      1.936      2.322
REMARK  4 active torsions:
REMARK  status: ('A' for Active; 'I' for Inactive)
REMARK    1  A    between atoms: C_5  and  C_6 
REMARK    2  A    between atoms: C_6  and  N_7 
REMARK       I    between atoms: N_7  and  C_8 
REMARK    3  A    between atoms: C_8  and  C_10 
REMARK    4  A    between atoms: C_16  and  C_20 
ROOT
HETATM    1  C   UNL     1      27.729  42.272  51.310  1.00  0.00     0.059 A 
HETATM    2  C   UNL     1      28.395  41.059  51.243  1.00  0.00     0.106 A 
HETATM    3  N   UNL     1      29.290  40.989  52.271  1.00  0.00    -0.364 N 
HETATM    4  H   UNL     1      29.912  40.213  52.450  1.00  0.00     0.165 HD
HETATM    5  C   UNL     1      29.211  42.124  53.043  1.00  0.00     0.044 A 
HETATM    6  C   UNL     1      29.933  42.472  54.195  1.00  0.00     0.042 A 
HETATM    7  C   UNL     1      29.634  43.686  54.832  1.00  0.00    -0.021 A 
HETATM    8  C   UNL     1      28.627  44.505  54.311  1.00  0.00     0.013 A 
HETATM    9  C   UNL     1      27.916  44.143  53.156  1.00  0.00     0.016 A 
HETATM   10  C   UNL     1      28.220  42.938  52.488  1.00  0.00     0.008 A 
ENDROOT
BRANCH   1  11
HETATM   11  C   UNL     1      26.725  42.680  50.330  1.00  0.00     0.254 C 
HETATM   12  N   UNL     1      25.454  42.827  50.832  1.00  0.00    -0.353 N 
HETATM   13  H   UNL     1      25.310  42.741  51.826  1.00  0.00     0.163 HD
HETATM   14  O   UNL     1      27.013  42.928  49.164  1.00  0.00    -0.268 OA
BRANCH  12  15
HETATM   15  C   UNL     1      24.355  43.263  50.008  1.00  0.00     0.161 C 
BRANCH  15  16
HETATM   16  C   UNL     1      24.271  44.768  49.961  1.00  0.00    -0.037 A 
HETATM   17  C   UNL     1      23.403  45.399  49.053  1.00  0.00     0.012 A 
HETATM   18  C   UNL     1      23.309  46.793  49.009  1.00  0.00     0.046 A 
HETATM   19  C   UNL     1      24.076  47.558  49.880  1.00  0.00     0.154 A 
HETATM   20  F   UNL     1      23.985  48.894  49.835  1.00  0.00    -0.203 F 
HETATM   21  C   UNL     1      24.926  46.944  50.791  1.00  0.00     0.155 A 
HETATM   22  C   UNL     1      25.027  45.556  50.840  1.00  0.00     0.054 A 
HETATM   23  F   UNL     1      25.658  47.684  51.635  1.00  0.00    -0.203 F 
ENDBRANCH  15  16
ENDBRANCH  12  15
ENDBRANCH   1  11
BRANCH   7  24
HETATM   24  C   UNL     1      30.371  44.073  56.026  1.00  0.00     0.010 A 
HETATM   25  C   UNL     1      31.341  43.372  56.781  1.00  0.00     0.152 A 
HETATM   26  N   UNL     1      31.779  44.066  57.835  1.00  0.00    -0.187 NA
HETATM   27  N   UNL     1      31.089  45.215  57.763  1.00  0.00    -0.289 N 
HETATM   28  H   UNL     1      31.249  45.918  58.476  1.00  0.00     0.188 HD
HETATM   29  C   UNL     1      30.234  45.269  56.700  1.00  0.00     0.123 A 
ENDBRANCH   7  24
TORSDOF 4
ENDMDL
MODEL 7
REMARK VINA RESULT:      -8.9      2.765      3.529
REMARK  4 active torsions:
REMARK  status: ('A' for Active; 'I' for Inactive)
REMARK    1  A    between atoms: C_5  and  C_6 
REMARK    2  A    between atoms: C_6  and  N_7 
REMARK       I    between atoms: N_7  and  C_8 
REMARK    3  A    between atoms: C_8  and  C_10 
REMARK    4  A    between atoms: C_16  and  C_20 
ROOT
HETATM    1  C   UNL     1      26.050  45.902  52.986  1.00  0.00     0.059 A 
HETATM    2  C   UNL     1      25.907  47.187  53.481  1.00  0.00     0.106 A 
HETATM    3  N   UNL     1      26.804  47.374  54.492  1.00  0.00    -0.364 N 
HETATM    4  H   UNL     1      26.907  48.222  55.032  1.00  0.00     0.165 HD
HETATM    5  C   UNL     1      27.568  46.242  54.660  1.00  0.00     0.044 A 
HETATM    6  C   UNL     1      28.607  45.992  55.569  1.00  0.00     0.042 A 
HETATM    7  C   UNL     1      29.265  44.754  55.512  1.00  0.00    -0.021 A 
HETATM    8  C   UNL     1      28.875  43.815  54.553  1.00  0.00     0.013 A 
HETATM    9  C   UNL     1      27.832  44.078  53.651  1.00  0.00     0.016 A 
HETATM   10  C   UNL     1      27.142  45.309  53.711  1.00  0.00     0.008 A 
ENDROOT
BRANCH   1  11
HETATM   11  C   UNL     1      25.211  45.367  51.916  1.00  0.00     0.254 C 
HETATM   12  N   UNL     1      25.506  45.838  50.659  1.00  0.00    -0.353 N 
HETATM   13  H   UNL     1      26.313  46.430  50.538  1.00  0.00     0.163 HD
HETATM   14  O   UNL     1      24.350  44.517  52.123  1.00  0.00    -0.268 OA
BRANCH  12  15
HETATM   15  C   UNL     1      24.800  45.382  49.488  1.00  0.00     0.161 C 
BRANCH  15  16
HETATM   16  C   UNL     1      23.628  46.278  49.174  1.00  0.00    -0.037 A 
HETATM   17  C   UNL     1      23.692  47.652  49.462  1.00  0.00     0.012 A 
HETATM   18  C   UNL     1      22.616  48.493  49.164  1.00  0.00     0.046 A 
HETATM   19  C   UNL     1      21.478  47.962  48.567  1.00  0.00     0.154 A 
HETATM   20  F   UNL     1      20.447  48.770  48.283  1.00  0.00    -0.203 F 
HETATM   21  C   UNL     1      21.410  46.608  48.265  1.00  0.00     0.155 A 
HETATM   22  C   UNL     1      22.477  45.763  48.561  1.00  0.00     0.054 A 
HETATM   23  F   UNL     1      20.315  46.101  47.683  1.00  0.00    -0.203 F 
ENDBRANCH  15  16
ENDBRANCH  12  15
ENDBRANCH   1  11
BRANCH   7  24
HETATM   24  C   UNL     1      30.343  44.468  56.446  1.00  0.00     0.010 A 
HETATM   25  C   UNL     1      31.316  43.440  56.448  1.00  0.00     0.152 A 
HETATM   26  N   UNL     1      32.137  43.505  57.500  1.00  0.00    -0.187 NA
HETATM   27  N   UNL     1      31.692  44.572  58.180  1.00  0.00    -0.289 N 
HETATM   28  H   UNL     1      32.164  44.825  59.041  1.00  0.00     0.188 HD
HETATM   29  C   UNL     1      30.622  45.183  57.592  1.00  0.00     0.123 A 
ENDBRANCH   7  24
TORSDOF 4
ENDMDL
MODEL 8
REMARK VINA RESULT:      -8.6      4.436      6.619
REMARK  4 active torsions:
REMARK  status: ('A' for Active; 'I' for Inactive)
REMARK    1  A    between atoms: C_5  and  C_6 
REMARK    2  A    between atoms: C_6  and  N_7 
REMARK       I    between atoms: N_7  and  C_8 
REMARK    3  A    between atoms: C_8  and  C_10 
REMARK    4  A    between atoms: C_16  and  C_20 
ROOT
HETATM    1  C   UNL     1      23.656  47.334  49.322  1.00  0.00     0.059 A 
HETATM    2  C   UNL     1      22.945  46.360  48.640  1.00  0.00     0.106 A 
HETATM    3  N   UNL     1      23.334  45.132  49.090  1.00  0.00    -0.364 N 
HETATM    4  H   UNL     1      22.977  44.249  48.754  1.00  0.00     0.165 HD
HETATM    5  C   UNL     1      24.273  45.270  50.085  1.00  0.00     0.044 A 
HETATM    6  C   UNL     1      24.936  44.283  50.830  1.00  0.00     0.042 A 
HETATM    7  C   UNL     1      25.833  44.687  51.831  1.00  0.00    -0.021 A 
HETATM    8  C   UNL     1      26.033  46.052  52.061  1.00  0.00     0.013 A 
HETATM    9  C   UNL     1      25.363  47.028  51.305  1.00  0.00     0.016 A 
HETATM   10  C   UNL     1      24.477  46.639  50.278  1.00  0.00     0.008 A 
ENDROOT
BRANCH   1  11
HETATM   11  C   UNL     1      23.504  48.762  49.052  1.00  0.00     0.254 C 
HETATM   12  N   UNL     1      22.287  49.124  48.526  1.00  0.00    -0.353 N 
HETATM   13  H   UNL     1      21.563  48.427  48.448  1.00  0.00     0.163 HD
HETATM   14  O   UNL     1      24.378  49.577  49.332  1.00  0.00    -0.268 OA
BRANCH  12  15
HETATM   15  C   UNL     1      21.959  50.498  48.239  1.00  0.00     0.161 C 
BRANCH  15  16
HETATM   16  C   UNL     1      20.607  50.864  48.798  1.00  0.00    -0.037 A 
HETATM   17  C   UNL     1      19.960  52.036  48.370  1.00  0.00     0.012 A 
HETATM   18  C   UNL     1      18.701  52.380  48.873  1.00  0.00     0.046 A 
HETATM   19  C   UNL     1      18.083  51.545  49.797  1.00  0.00     0.154 A 
HETATM   20  F   UNL     1      16.878  51.877  50.279  1.00  0.00    -0.203 F 
HETATM   21  C   UNL     1      18.708  50.377  50.216  1.00  0.00     0.155 A 
HETATM   22  C   UNL     1      19.962  50.029  49.722  1.00  0.00     0.054 A 
HETATM   23  F   UNL     1      18.106  49.571  51.102  1.00  0.00    -0.203 F 
ENDBRANCH  15  16
ENDBRANCH  12  15
ENDBRANCH   1  11
BRANCH   7  24
HETATM   24  C   UNL     1      26.536  43.684  52.615  1.00  0.00     0.010 A 
HETATM   25  C   UNL     1      26.950  43.692  53.969  1.00  0.00     0.152 A 
HETATM   26  N   UNL     1      27.593  42.576  54.322  1.00  0.00    -0.187 NA
HETATM   27  N   UNL     1      27.598  41.848  53.195  1.00  0.00    -0.289 N 
HETATM   28  H   UNL     1      28.045  40.938  53.212  1.00  0.00     0.188 HD
HETATM   29  C   UNL     1      26.979  42.465  52.146  1.00  0.00     0.123 A 
ENDBRANCH   7  24
TORSDOF 4
ENDMDL
MODEL 9
REMARK VINA RESULT:      -8.5      3.476      4.221
REMARK  4 active torsions:
REMARK  status: ('A' for Active; 'I' for Inactive)
REMARK    1  A    between atoms: C_5  and  C_6 
REMARK    2  A    between atoms: C_6  and  N_7 
REMARK       I    between atoms: N_7  and  C_8 
REMARK    3  A    between atoms: C_8  and  C_10 
REMARK    4  A    between atoms: C_16  and  C_20 
ROOT
HETATM    1  C   UNL     1      26.965  44.463  52.171  1.00  0.00     0.059 A 
HETATM    2  C   UNL     1      26.309  45.634  52.508  1.00  0.00     0.106 A 
HETATM    3  N   UNL     1      26.829  46.112  53.676  1.00  0.00    -0.364 N 
HETATM    4  H   UNL     1      26.525  46.952  54.149  1.00  0.00     0.165 HD
HETATM    5  C   UNL     1      27.845  45.293  54.109  1.00  0.00     0.044 A 
HETATM    6  C   UNL     1      28.657  45.403  55.249  1.00  0.00     0.042 A 
HETATM    7  C   UNL     1      29.664  44.448  55.450  1.00  0.00    -0.021 A 
HETATM    8  C   UNL     1      29.835  43.424  54.512  1.00  0.00     0.013 A 
HETATM    9  C   UNL     1      29.013  43.326  53.378  1.00  0.00     0.016 A 
HETATM   10  C   UNL     1      27.978  44.264  53.173  1.00  0.00     0.008 A 
ENDROOT
BRANCH   1  11
HETATM   11  C   UNL     1      26.622  43.674  50.989  1.00  0.00     0.254 C 
HETATM   12  N   UNL     1      25.575  42.801  51.161  1.00  0.00    -0.353 N 
HETATM   13  H   UNL     1      25.061  42.822  52.028  1.00  0.00     0.163 HD
HETATM   14  O   UNL     1      27.192  43.828  49.913  1.00  0.00    -0.268 OA
BRANCH  12  15
HETATM   15  C   UNL     1      25.084  41.978  50.085  1.00  0.00     0.161 C 
BRANCH  15  16
HETATM   16  C   UNL     1      24.010  42.689  49.300  1.00  0.00    -0.037 A 
HETATM   17  C   UNL     1      23.043  43.463  49.965  1.00  0.00     0.012 A 
HETATM   18  C   UNL     1      22.051  44.136  49.247  1.00  0.00     0.046 A 
HETATM   19  C   UNL     1      22.030  44.045  47.860  1.00  0.00     0.154 A 
HETATM   20  F   UNL     1      21.077  44.689  47.173  1.00  0.00    -0.203 F 
HETATM   21  C   UNL     1      22.990  43.295  47.191  1.00  0.00     0.155 A 
HETATM   22  C   UNL     1      23.980  42.620  47.900  1.00  0.00     0.054 A 
HETATM   23  F   UNL     1      22.971  43.215  45.853  1.00  0.00    -0.203 F 
ENDBRANCH  15  16
ENDBRANCH  12  15
ENDBRANCH   1  11
BRANCH   7  24
HETATM   24  C   UNL     1      30.518  44.537  56.625  1.00  0.00     0.010 A 
HETATM   25  C   UNL     1      31.615  43.742  57.033  1.00  0.00     0.152 A 
HETATM   26  N   UNL     1      32.137  44.136  58.198  1.00  0.00    -0.187 NA
HETATM   27  N   UNL     1      31.374  45.184  58.544  1.00  0.00    -0.289 N 
HETATM   28  H   UNL     1      31.577  45.659  59.416  1.00  0.00     0.188 HD
HETATM   29  C   UNL     1      30.392  45.464  57.637  1.00  0.00     0.123 A 
ENDBRANCH   7  24
TORSDOF 4
ENDMDL
MODEL 10
REMARK VINA RESULT:      -8.4      4.468      7.127
REMARK  4 active torsions:
REMARK  status: ('A' for Active; 'I' for Inactive)
REMARK    1  A    between atoms: C_5  and  C_6 
REMARK    2  A    between atoms: C_6  and  N_7 
REMARK       I    between atoms: N_7  and  C_8 
REMARK    3  A    between atoms: C_8  and  C_10 
REMARK    4  A    between atoms: C_16  and  C_20 
ROOT
HETATM    1  C   UNL     1      24.902  49.279  48.717  1.00  0.00     0.059 A 
HETATM    2  C   UNL     1      26.204  49.697  48.499  1.00  0.00     0.106 A 
HETATM    3  N   UNL     1      27.057  48.806  49.083  1.00  0.00    -0.364 N 
HETATM    4  H   UNL     1      28.065  48.877  49.080  1.00  0.00     0.165 HD
HETATM    5  C   UNL     1      26.346  47.782  49.662  1.00  0.00     0.044 A 
HETATM    6  C   UNL     1      26.809  46.655  50.360  1.00  0.00     0.042 A 
HETATM    7  C   UNL     1      25.870  45.722  50.826  1.00  0.00    -0.021 A 
HETATM    8  C   UNL     1      24.510  45.935  50.577  1.00  0.00     0.013 A 
HETATM    9  C   UNL     1      24.063  47.069  49.880  1.00  0.00     0.016 A 
HETATM   10  C   UNL     1      24.991  48.030  49.426  1.00  0.00     0.008 A 
ENDROOT
BRANCH   1  11
HETATM   11  C   UNL     1      23.740  50.033  48.251  1.00  0.00     0.254 C 
HETATM   12  N   UNL     1      22.851  50.392  49.237  1.00  0.00    -0.353 N 
HETATM   13  H   UNL     1      23.090  50.206  50.198  1.00  0.00     0.163 HD
HETATM   14  O   UNL     1      23.604  50.367  47.078  1.00  0.00    -0.268 OA
BRANCH  12  15
HETATM   15  C   UNL     1      21.674  51.173  48.954  1.00  0.00     0.161 C 
BRANCH  15  16
HETATM   16  C   UNL     1      20.426  50.330  49.044  1.00  0.00    -0.037 A 
HETATM   17  C   UNL     1      19.749  49.944  47.874  1.00  0.00     0.012 A 
HETATM   18  C   UNL     1      18.598  49.153  47.945  1.00  0.00     0.046 A 
HETATM   19  C   UNL     1      18.128  48.739  49.186  1.00  0.00     0.154 A 
HETATM   20  F   UNL     1      17.024  47.983  49.252  1.00  0.00    -0.203 F 
HETATM   21  C   UNL     1      18.798  49.103  50.348  1.00  0.00     0.155 A 
HETATM   22  C   UNL     1      19.944  49.893  50.286  1.00  0.00     0.054 A 
HETATM   23  F   UNL     1      18.347  48.696  51.542  1.00  0.00    -0.203 F 
ENDBRANCH  15  16
ENDBRANCH  12  15
ENDBRANCH   1  11
BRANCH   7  24
HETATM   24  C   UNL     1      26.323  44.548  51.554  1.00  0.00     0.010 A 
HETATM   25  C   UNL     1      27.118  44.433  52.720  1.00  0.00     0.152 A 
HETATM   26  N   UNL     1      27.334  43.164  53.078  1.00  0.00    -0.187 NA
HETATM   27  N   UNL     1      26.682  42.459  52.141  1.00  0.00    -0.289 N 
HETATM   28  H   UNL     1      26.706  41.447  52.197  1.00  0.00     0.188 HD
HETATM   29  C   UNL     1      26.061  43.239  51.208  1.00  0.00     0.123 A 
ENDBRANCH   7  24
TORSDOF 4
ENDMDL
