MODEL 1
REMARK VINA RESULT:     -10.8      0.000      0.000
REMARK  7 active torsions:
REMARK  status: ('A' for Active; 'I' for Inactive)
REMARK    1  A    between atoms: O_2  and  C_3 
REMARK    2  A    between atoms: C_6  and  C_11 
REMARK    3  A    between atoms: C_8  and  O_9 
REMARK       I    between atoms: C_11  and  N_13 
REMARK    4  A    between atoms: N_13  and  C_14 
REMARK    5  A    between atoms: C_14  and  C_16 
REMARK    6  A    between atoms: C_20  and  C_22 
REMARK       I    between atoms: C_22  and  N_24 
REMARK    7  A    between atoms: N_24  and  C_25 
ROOT
HETATM    1  C   UNL     1      25.318  47.150  50.648  1.00  0.00    -0.035 A 
HETATM    2  C   UNL     1      26.649  47.478  50.339  1.00  0.00     0.009 A 
HETATM    3  C   UNL     1      26.943  48.485  49.421  1.00  0.00     0.002 A 
HETATM    4  C   UNL     1      25.910  49.166  48.782  1.00  0.00     0.017 A 
HETATM    5  C   UNL     1      24.574  48.841  49.051  1.00  0.00     0.033 A 
HETATM    6  C   UNL     1      24.285  47.842  49.992  1.00  0.00     0.026 A 
ENDROOT
BRANCH   1   7
HETATM    7  C   UNL     1      25.037  46.031  51.636  1.00  0.00     0.114 C 
HETATM    8  C   UNL     1      24.355  44.793  51.048  1.00  0.00     0.037 C 
BRANCH   7   9
HETATM    9  N   UNL     1      26.223  45.737  52.432  1.00  0.00    -0.349 N 
HETATM   10  C   UNL     1      26.413  46.150  53.733  1.00  0.00     0.252 C 
HETATM   11  O   UNL     1      25.619  46.860  54.342  1.00  0.00    -0.268 OA
HETATM   12  H   UNL     1      26.781  44.971  52.088  1.00  0.00     0.163 HD
BRANCH  10  13
HETATM   13  C   UNL     1      27.648  45.667  54.428  1.00  0.00     0.034 A 
HETATM   14  C   UNL     1      28.156  46.438  55.478  1.00  0.00     0.020 A 
HETATM   15  C   UNL     1      29.308  46.042  56.166  1.00  0.00     0.040 A 
HETATM   16  C   UNL     1      29.975  44.857  55.830  1.00  0.00     0.101 A 
HETATM   17  C   UNL     1      29.467  44.074  54.777  1.00  0.00     0.102 A 
HETATM   18  C   UNL     1      28.328  44.497  54.072  1.00  0.00     0.056 A 
BRANCH  16  19
HETATM   19  O   UNL     1      31.123  44.440  56.447  1.00  0.00    -0.353 OA
HETATM   20  C   UNL     1      31.165  44.459  57.869  1.00  0.00     0.210 C 
ENDBRANCH  16  19
BRANCH  17  21
HETATM   21  O   UNL     1      29.975  42.897  54.287  1.00  0.00    -0.353 OA
HETATM   22  C   UNL     1      29.861  42.660  52.889  1.00  0.00     0.210 C 
ENDBRANCH  17  21
ENDBRANCH  10  13
ENDBRANCH   7   9
ENDBRANCH   1   7
BRANCH   5  23
HETATM   23  C   UNL     1      23.511  49.603  48.331  1.00  0.00     0.256 C 
HETATM   24  O   UNL     1      23.818  50.151  47.278  1.00  0.00    -0.267 OA
HETATM   25  N   UNL     1      22.254  49.587  48.914  1.00  0.00    -0.323 N 
HETATM   26  H   UNL     1      22.130  49.012  49.738  1.00  0.00     0.169 HD
BRANCH  25  27
HETATM   27  C   UNL     1      21.090  50.236  48.444  1.00  0.00     0.035 A 
HETATM   28  C   UNL     1      20.646  51.473  48.910  1.00  0.00     0.030 A 
HETATM   29  C   UNL     1      19.488  52.058  48.389  1.00  0.00     0.010 A 
HETATM   30  C   UNL     1      18.754  51.413  47.390  1.00  0.00    -0.048 A 
HETATM   31  C   UNL     1      17.487  52.033  46.859  1.00  0.00     0.069 C 
HETATM   32  C   UNL     1      19.169  50.153  46.930  1.00  0.00    -0.022 A 
HETATM   33  C   UNL     1      17.030  51.398  45.540  1.00  0.00     0.277 C 
HETATM   34  N   UNL     1      17.030  49.933  45.647  1.00  0.00     0.088 N 
HETATM   35  C   UNL     1      16.422  49.324  44.465  1.00  0.00     0.310 C 
HETATM   36  C   UNL     1      18.409  49.442  45.828  1.00  0.00     0.311 C 
HETATM   37  C   UNL     1      20.343  49.581  47.454  1.00  0.00     0.039 A 
ENDBRANCH  25  27
ENDBRANCH   5  23
TORSDOF 7
ENDMDL
MODEL 2
REMARK VINA RESULT:     -10.6      2.387     12.529
REMARK  7 active torsions:
REMARK  status: ('A' for Active; 'I' for Inactive)
REMARK    1  A    between atoms: O_2  and  C_3 
REMARK    2  A    between atoms: C_6  and  C_11 
REMARK    3  A    between atoms: C_8  and  O_9 
REMARK       I    between atoms: C_11  and  N_13 
REMARK    4  A    between atoms: N_13  and  C_14 
REMARK    5  A    between atoms: C_14  and  C_16 
REMARK    6  A    between atoms: C_20  and  C_22 
REMARK       I    between atoms: C_22  and  N_24 
REMARK    7  A    between atoms: N_24  and  C_25 
ROOT
HETATM    1  C   UNL     1      23.973  47.483  49.707  1.00  0.00    -0.035 A 
HETATM    2  C   UNL     1      23.188  46.625  48.918  1.00  0.00     0.009 A 
HETATM    3  C   UNL     1      23.137  45.258  49.182  1.00  0.00     0.002 A 
HETATM    4  C   UNL     1      23.884  44.723  50.228  1.00  0.00     0.017 A 
HETATM    5  C   UNL     1      24.696  45.551  51.014  1.00  0.00     0.033 A 
HETATM    6  C   UNL     1      24.727  46.930  50.757  1.00  0.00     0.026 A 
ENDROOT
BRANCH   1   7
HETATM    7  C   UNL     1      24.023  48.965  49.374  1.00  0.00     0.114 C 
HETATM    8  C   UNL     1      25.226  49.409  48.539  1.00  0.00     0.037 C 
BRANCH   7   9
HETATM    9  N   UNL     1      22.737  49.419  48.856  1.00  0.00    -0.349 N 
HETATM   10  C   UNL     1      21.966  50.405  49.434  1.00  0.00     0.252 C 
HETATM   11  O   UNL     1      22.260  50.968  50.485  1.00  0.00    -0.268 OA
HETATM   12  H   UNL     1      22.565  49.183  47.891  1.00  0.00     0.163 HD
BRANCH  10  13
HETATM   13  C   UNL     1      20.724  50.814  48.706  1.00  0.00     0.034 A 
HETATM   14  C   UNL     1      20.498  50.274  47.436  1.00  0.00     0.020 A 
HETATM   15  C   UNL     1      19.356  50.618  46.704  1.00  0.00     0.040 A 
HETATM   16  C   UNL     1      18.405  51.503  47.228  1.00  0.00     0.101 A 
HETATM   17  C   UNL     1      18.624  52.047  48.507  1.00  0.00     0.102 A 
HETATM   18  C   UNL     1      19.790  51.718  49.221  1.00  0.00     0.056 A 
BRANCH  16  19
HETATM   19  O   UNL     1      17.289  51.899  46.542  1.00  0.00    -0.353 OA
HETATM   20  C   UNL     1      17.375  52.002  45.126  1.00  0.00     0.210 C 
ENDBRANCH  16  19
BRANCH  17  21
HETATM   21  O   UNL     1      17.829  52.934  49.189  1.00  0.00    -0.353 OA
HETATM   22  C   UNL     1      16.734  52.406  49.928  1.00  0.00     0.210 C 
ENDBRANCH  17  21
ENDBRANCH  10  13
ENDBRANCH   7   9
ENDBRANCH   1   7
BRANCH   5  23
HETATM   23  C   UNL     1      25.478  44.919  52.118  1.00  0.00     0.256 C 
HETATM   24  O   UNL     1      24.849  44.385  53.026  1.00  0.00    -0.267 OA
HETATM   25  N   UNL     1      26.856  44.968  51.989  1.00  0.00    -0.323 N 
HETATM   26  H   UNL     1      27.231  45.361  51.135  1.00  0.00     0.169 HD
BRANCH  25  27
HETATM   27  C   UNL     1      27.814  44.460  52.896  1.00  0.00     0.035 A 
HETATM   28  C   UNL     1      28.445  43.224  52.751  1.00  0.00     0.030 A 
HETATM   29  C   UNL     1      29.392  42.793  53.685  1.00  0.00     0.010 A 
HETATM   30  C   UNL     1      29.725  43.594  54.780  1.00  0.00    -0.048 A 
HETATM   31  C   UNL     1      30.720  43.106  55.802  1.00  0.00     0.069 C 
HETATM   32  C   UNL     1      29.079  44.827  54.959  1.00  0.00    -0.022 A 
HETATM   33  C   UNL     1      31.238  44.234  56.704  1.00  0.00     0.277 C 
HETATM   34  N   UNL     1      30.119  45.029  57.227  1.00  0.00     0.088 N 
HETATM   35  C   UNL     1      30.584  45.985  58.230  1.00  0.00     0.310 C 
HETATM   36  C   UNL     1      29.439  45.730  56.123  1.00  0.00     0.311 C 
HETATM   37  C   UNL     1      28.137  45.255  54.005  1.00  0.00     0.039 A 
ENDBRANCH  25  27
ENDBRANCH   5  23
TORSDOF 7
ENDMDL
MODEL 3
REMARK VINA RESULT:     -10.1      3.028     11.846
REMARK  7 active torsions:
REMARK  status: ('A' for Active; 'I' for Inactive)
REMARK    1  A    between atoms: O_2  and  C_3 
REMARK    2  A    between atoms: C_6  and  C_11 
REMARK    3  A    between atoms: C_8  and  O_9 
REMARK       I    between atoms: C_11  and  N_13 
REMARK    4  A    between atoms: N_13  and  C_14 
REMARK    5  A    between atoms: C_14  and  C_16 
REMARK    6  A    between atoms: C_20  and  C_22 
REMARK       I    between atoms: C_22  and  N_24 
REMARK    7  A    between atoms: N_24  and  C_25 
ROOT
HETATM    1  C   UNL     1      22.966  45.288  48.585  1.00  0.00    -0.035 A 
HETATM    2  C   UNL     1      22.151  44.201  48.945  1.00  0.00     0.009 A 
HETATM    3  C   UNL     1      22.556  43.298  49.926  1.00  0.00     0.002 A 
HETATM    4  C   UNL     1      23.791  43.456  50.549  1.00  0.00     0.017 A 
HETATM    5  C   UNL     1      24.635  44.515  50.190  1.00  0.00     0.033 A 
HETATM    6  C   UNL     1      24.213  45.433  49.218  1.00  0.00     0.026 A 
ENDROOT
BRANCH   1   7
HETATM    7  C   UNL     1      22.501  46.238  47.494  1.00  0.00     0.114 C 
HETATM    8  C   UNL     1      21.895  45.570  46.257  1.00  0.00     0.037 C 
BRANCH   7   9
HETATM    9  N   UNL     1      21.681  47.305  48.056  1.00  0.00    -0.349 N 
HETATM   10  C   UNL     1      22.045  48.635  48.089  1.00  0.00     0.252 C 
HETATM   11  O   UNL     1      23.130  49.051  47.693  1.00  0.00    -0.268 OA
HETATM   12  H   UNL     1      20.706  47.075  48.165  1.00  0.00     0.163 HD
BRANCH  10  13
HETATM   13  C   UNL     1      21.033  49.606  48.611  1.00  0.00     0.034 A 
HETATM   14  C   UNL     1      21.054  50.911  48.110  1.00  0.00     0.020 A 
HETATM   15  C   UNL     1      20.135  51.866  48.560  1.00  0.00     0.040 A 
HETATM   16  C   UNL     1      19.164  51.537  49.514  1.00  0.00     0.101 A 
HETATM   17  C   UNL     1      19.135  50.225  50.020  1.00  0.00     0.102 A 
HETATM   18  C   UNL     1      20.082  49.282  49.585  1.00  0.00     0.056 A 
BRANCH  16  19
HETATM   19  O   UNL     1      18.265  52.440  50.013  1.00  0.00    -0.353 OA
HETATM   20  C   UNL     1      16.931  52.398  49.523  1.00  0.00     0.210 C 
ENDBRANCH  16  19
BRANCH  17  21
HETATM   21  O   UNL     1      18.281  49.707  50.962  1.00  0.00    -0.353 OA
HETATM   22  C   UNL     1      18.614  48.450  51.536  1.00  0.00     0.210 C 
ENDBRANCH  17  21
ENDBRANCH  10  13
ENDBRANCH   7   9
ENDBRANCH   1   7
BRANCH   5  23
HETATM   23  C   UNL     1      25.949  44.629  50.890  1.00  0.00     0.256 C 
HETATM   24  O   UNL     1      26.677  45.568  50.584  1.00  0.00    -0.267 OA
HETATM   25  N   UNL     1      26.207  43.671  51.857  1.00  0.00    -0.323 N 
HETATM   26  H   UNL     1      25.468  43.010  52.066  1.00  0.00     0.169 HD
BRANCH  25  27
HETATM   27  C   UNL     1      27.373  43.549  52.646  1.00  0.00     0.035 A 
HETATM   28  C   UNL     1      28.377  42.610  52.413  1.00  0.00     0.030 A 
HETATM   29  C   UNL     1      29.508  42.557  53.232  1.00  0.00     0.010 A 
HETATM   30  C   UNL     1      29.655  43.446  54.300  1.00  0.00    -0.048 A 
HETATM   31  C   UNL     1      30.860  43.359  55.200  1.00  0.00     0.069 C 
HETATM   32  C   UNL     1      28.641  44.379  54.568  1.00  0.00    -0.022 A 
HETATM   33  C   UNL     1      31.043  44.615  56.061  1.00  0.00     0.277 C 
HETATM   34  N   UNL     1      29.780  44.979  56.715  1.00  0.00     0.088 N 
HETATM   35  C   UNL     1      29.985  46.058  57.679  1.00  0.00     0.310 C 
HETATM   36  C   UNL     1      28.784  45.374  55.703  1.00  0.00     0.311 C 
HETATM   37  C   UNL     1      27.512  44.430  53.729  1.00  0.00     0.039 A 
ENDBRANCH  25  27
ENDBRANCH   5  23
TORSDOF 7
ENDMDL
MODEL 4
REMARK VINA RESULT:     -10.0      1.716      2.268
REMARK  7 active torsions:
REMARK  status: ('A' for Active; 'I' for Inactive)
REMARK    1  A    between atoms: O_2  and  C_3 
REMARK    2  A    between atoms: C_6  and  C_11 
REMARK    3  A    between atoms: C_8  and  O_9 
REMARK       I    between atoms: C_11  and  N_13 
REMARK    4  A    between atoms: N_13  and  C_14 
REMARK    5  A    between atoms: C_14  and  C_16 
REMARK    6  A    between atoms: C_20  and  C_22 
REMARK       I    between atoms: C_22  and  N_24 
REMARK    7  A    between atoms: N_24  and  C_25 
ROOT
HETATM    1  C   UNL     1      25.769  46.680  49.990  1.00  0.00    -0.035 A 
HETATM    2  C   UNL     1      26.956  47.397  49.758  1.00  0.00     0.009 A 
HETATM    3  C   UNL     1      26.922  48.683  49.222  1.00  0.00     0.002 A 
HETATM    4  C   UNL     1      25.701  49.266  48.893  1.00  0.00     0.017 A 
HETATM    5  C   UNL     1      24.504  48.565  49.090  1.00  0.00     0.033 A 
HETATM    6  C   UNL     1      24.544  47.279  49.649  1.00  0.00     0.026 A 
ENDROOT
BRANCH   1   7
HETATM    7  C   UNL     1      25.847  45.271  50.553  1.00  0.00     0.114 C 
HETATM    8  C   UNL     1      26.094  44.166  49.523  1.00  0.00     0.037 C 
BRANCH   7   9
HETATM    9  N   UNL     1      26.744  45.225  51.702  1.00  0.00    -0.349 N 
HETATM   10  C   UNL     1      26.978  44.101  52.466  1.00  0.00     0.252 C 
HETATM   11  O   UNL     1      26.408  43.029  52.287  1.00  0.00    -0.268 OA
HETATM   12  H   UNL     1      27.412  45.979  51.746  1.00  0.00     0.163 HD
BRANCH  10  13
HETATM   13  C   UNL     1      28.010  44.212  53.545  1.00  0.00     0.034 A 
HETATM   14  C   UNL     1      28.948  43.183  53.667  1.00  0.00     0.020 A 
HETATM   15  C   UNL     1      29.936  43.227  54.657  1.00  0.00     0.040 A 
HETATM   16  C   UNL     1      30.019  44.309  55.543  1.00  0.00     0.101 A 
HETATM   17  C   UNL     1      29.081  45.350  55.423  1.00  0.00     0.102 A 
HETATM   18  C   UNL     1      28.073  45.281  54.446  1.00  0.00     0.056 A 
BRANCH  16  19
HETATM   19  O   UNL     1      30.943  44.386  56.549  1.00  0.00    -0.353 OA
HETATM   20  C   UNL     1      31.651  43.204  56.901  1.00  0.00     0.210 C 
ENDBRANCH  16  19
BRANCH  17  21
HETATM   21  O   UNL     1      28.981  46.483  56.193  1.00  0.00    -0.353 OA
HETATM   22  C   UNL     1      28.567  46.328  57.545  1.00  0.00     0.210 C 
ENDBRANCH  17  21
ENDBRANCH  10  13
ENDBRANCH   7   9
ENDBRANCH   1   7
BRANCH   5  23
HETATM   23  C   UNL     1      23.227  49.241  48.713  1.00  0.00     0.256 C 
HETATM   24  O   UNL     1      23.155  49.737  47.593  1.00  0.00    -0.267 OA
HETATM   25  N   UNL     1      22.222  49.212  49.666  1.00  0.00    -0.323 N 
HETATM   26  H   UNL     1      22.397  48.683  50.511  1.00  0.00     0.169 HD
BRANCH  25  27
HETATM   27  C   UNL     1      20.935  49.786  49.563  1.00  0.00     0.035 A 
HETATM   28  C   UNL     1      20.588  51.024  50.106  1.00  0.00     0.030 A 
HETATM   29  C   UNL     1      19.295  51.532  49.954  1.00  0.00     0.010 A 
HETATM   30  C   UNL     1      18.326  50.810  49.254  1.00  0.00    -0.048 A 
HETATM   31  C   UNL     1      16.924  51.348  49.126  1.00  0.00     0.069 C 
HETATM   32  C   UNL     1      18.647  49.549  48.726  1.00  0.00    -0.022 A 
HETATM   33  C   UNL     1      16.116  50.633  48.035  1.00  0.00     0.277 C 
HETATM   34  N   UNL     1      16.232  49.176  48.181  1.00  0.00     0.088 N 
HETATM   35  C   UNL     1      15.324  48.487  47.267  1.00  0.00     0.310 C 
HETATM   36  C   UNL     1      17.625  48.755  47.938  1.00  0.00     0.311 C 
HETATM   37  C   UNL     1      19.956  49.055  48.875  1.00  0.00     0.039 A 
ENDBRANCH  25  27
ENDBRANCH   5  23
TORSDOF 7
ENDMDL
MODEL 5
REMARK VINA RESULT:      -9.7      2.496      4.170
REMARK  7 active torsions:
REMARK  status: ('A' for Active; 'I' for Inactive)
REMARK    1  A    between atoms: O_2  and  C_3 
REMARK    2  A    between atoms: C_6  and  C_11 
REMARK    3  A    between atoms: C_8  and  O_9 
REMARK       I    between atoms: C_11  and  N_13 
REMARK    4  A    between atoms: N_13  and  C_14 
REMARK    5  A    between atoms: C_14  and  C_16 
REMARK    6  A    between atoms: C_20  and  C_22 
REMARK       I    between atoms: C_22  and  N_24 
REMARK    7  A    between atoms: N_24  and  C_25 
ROOT
HETATM    1  C   UNL     1      25.718  42.390  50.335  1.00  0.00    -0.035 A 
HETATM    2  C   UNL     1      24.841  41.608  49.562  1.00  0.00     0.009 A 
HETATM    3  C   UNL     1      23.753  42.187  48.913  1.00  0.00     0.002 A 
HETATM    4  C   UNL     1      23.512  43.552  49.041  1.00  0.00     0.017 A 
HETATM    5  C   UNL     1      24.355  44.350  49.826  1.00  0.00     0.033 A 
HETATM    6  C   UNL     1      25.461  43.766  50.460  1.00  0.00     0.026 A 
ENDROOT
BRANCH   1   7
HETATM    7  C   UNL     1      26.881  41.720  51.048  1.00  0.00     0.114 C 
HETATM    8  C   UNL     1      27.936  41.092  50.134  1.00  0.00     0.037 C 
BRANCH   7   9
HETATM    9  N   UNL     1      27.430  42.597  52.076  1.00  0.00    -0.349 N 
HETATM   10  C   UNL     1      27.970  42.162  53.267  1.00  0.00     0.252 C 
HETATM   11  O   UNL     1      27.995  40.984  53.611  1.00  0.00    -0.268 OA
HETATM   12  H   UNL     1      27.661  43.525  51.758  1.00  0.00     0.163 HD
BRANCH  10  13
HETATM   13  C   UNL     1      28.580  43.199  54.158  1.00  0.00     0.034 A 
HETATM   14  C   UNL     1      29.871  42.971  54.644  1.00  0.00     0.020 A 
HETATM   15  C   UNL     1      30.495  43.901  55.482  1.00  0.00     0.040 A 
HETATM   16  C   UNL     1      29.849  45.089  55.848  1.00  0.00     0.101 A 
HETATM   17  C   UNL     1      28.551  45.326  55.360  1.00  0.00     0.102 A 
HETATM   18  C   UNL     1      27.921  44.371  54.543  1.00  0.00     0.056 A 
BRANCH  16  19
HETATM   19  O   UNL     1      30.399  46.015  56.691  1.00  0.00    -0.353 OA
HETATM   20  C   UNL     1      30.299  45.789  58.092  1.00  0.00     0.210 C 
ENDBRANCH  16  19
BRANCH  17  21
HETATM   21  O   UNL     1      27.746  46.411  55.607  1.00  0.00    -0.353 OA
HETATM   22  C   UNL     1      27.872  47.536  54.747  1.00  0.00     0.210 C 
ENDBRANCH  17  21
ENDBRANCH  10  13
ENDBRANCH   7   9
ENDBRANCH   1   7
BRANCH   5  23
HETATM   23  C   UNL     1      24.043  45.807  49.929  1.00  0.00     0.256 C 
HETATM   24  O   UNL     1      24.614  46.450  50.804  1.00  0.00    -0.267 OA
HETATM   25  N   UNL     1      23.153  46.303  48.990  1.00  0.00    -0.323 N 
HETATM   26  H   UNL     1      22.835  45.669  48.268  1.00  0.00     0.169 HD
BRANCH  25  27
HETATM   27  C   UNL     1      22.686  47.632  48.880  1.00  0.00     0.035 A 
HETATM   28  C   UNL     1      23.503  48.723  48.582  1.00  0.00     0.030 A 
HETATM   29  C   UNL     1      22.966  50.009  48.479  1.00  0.00     0.010 A 
HETATM   30  C   UNL     1      21.598  50.226  48.671  1.00  0.00    -0.048 A 
HETATM   31  C   UNL     1      21.033  51.621  48.594  1.00  0.00     0.069 C 
HETATM   32  C   UNL     1      20.766  49.145  49.001  1.00  0.00    -0.022 A 
HETATM   33  C   UNL     1      19.506  51.630  48.455  1.00  0.00     0.277 C 
HETATM   34  N   UNL     1      18.893  50.744  49.454  1.00  0.00     0.088 N 
HETATM   35  C   UNL     1      17.439  50.886  49.454  1.00  0.00     0.310 C 
HETATM   36  C   UNL     1      19.275  49.345  49.188  1.00  0.00     0.311 C 
HETATM   37  C   UNL     1      21.317  47.854  49.089  1.00  0.00     0.039 A 
ENDBRANCH  25  27
ENDBRANCH   5  23
TORSDOF 7
ENDMDL
MODEL 6
REMARK VINA RESULT:      -9.3      3.154     11.886
REMARK  7 active torsions:
REMARK  status: ('A' for Active; 'I' for Inactive)
REMARK    1  A    between atoms: O_2  and  C_3 
REMARK    2  A    between atoms: C_6  and  C_11 
REMARK    3  A    between atoms: C_8  and  O_9 
REMARK       I    between atoms: C_11  and  N_13 
REMARK    4  A    between atoms: N_13  and  C_14 
REMARK    5  A    between atoms: C_14  and  C_16 
REMARK    6  A    between atoms: C_20  and  C_22 
REMARK       I    between atoms: C_22  and  N_24 
REMARK    7  A    between atoms: N_24  and  C_25 
ROOT
HETATM    1  C   UNL     1      22.113  48.629  48.022  1.00  0.00    -0.035 A 
HETATM    2  C   UNL     1      22.350  49.950  47.605  1.00  0.00     0.009 A 
HETATM    3  C   UNL     1      23.550  50.592  47.909  1.00  0.00     0.002 A 
HETATM    4  C   UNL     1      24.524  49.929  48.651  1.00  0.00     0.017 A 
HETATM    5  C   UNL     1      24.302  48.621  49.103  1.00  0.00     0.033 A 
HETATM    6  C   UNL     1      23.102  47.974  48.775  1.00  0.00     0.026 A 
ENDROOT
BRANCH   1   7
HETATM    7  C   UNL     1      20.784  47.971  47.692  1.00  0.00     0.114 C 
HETATM    8  C   UNL     1      20.530  46.626  48.378  1.00  0.00     0.037 C 
BRANCH   7   9
HETATM    9  N   UNL     1      19.689  48.925  47.829  1.00  0.00    -0.349 N 
HETATM   10  C   UNL     1      19.190  49.374  49.033  1.00  0.00     0.252 C 
HETATM   11  O   UNL     1      19.584  48.970  50.124  1.00  0.00    -0.268 OA
HETATM   12  H   UNL     1      19.497  49.467  47.002  1.00  0.00     0.163 HD
BRANCH  10  13
HETATM   13  C   UNL     1      18.132  50.432  48.982  1.00  0.00     0.034 A 
HETATM   14  C   UNL     1      18.218  51.493  49.888  1.00  0.00     0.020 A 
HETATM   15  C   UNL     1      17.259  52.512  49.891  1.00  0.00     0.040 A 
HETATM   16  C   UNL     1      16.196  52.502  48.979  1.00  0.00     0.101 A 
HETATM   17  C   UNL     1      16.105  51.440  48.062  1.00  0.00     0.102 A 
HETATM   18  C   UNL     1      17.056  50.405  48.088  1.00  0.00     0.056 A 
BRANCH  16  19
HETATM   19  O   UNL     1      15.213  53.454  48.962  1.00  0.00    -0.353 OA
HETATM   20  C   UNL     1      14.232  53.425  49.991  1.00  0.00     0.210 C 
ENDBRANCH  16  19
BRANCH  17  21
HETATM   21  O   UNL     1      15.142  51.238  47.104  1.00  0.00    -0.353 OA
HETATM   22  C   UNL     1      15.257  50.080  46.286  1.00  0.00     0.210 C 
ENDBRANCH  17  21
ENDBRANCH  10  13
ENDBRANCH   7   9
ENDBRANCH   1   7
BRANCH   5  23
HETATM   23  C   UNL     1      25.382  47.964  49.899  1.00  0.00     0.256 C 
HETATM   24  O   UNL     1      26.539  48.108  49.515  1.00  0.00    -0.267 OA
HETATM   25  N   UNL     1      24.970  47.276  51.028  1.00  0.00    -0.323 N 
HETATM   26  H   UNL     1      23.987  47.323  51.270  1.00  0.00     0.169 HD
BRANCH  25  27
HETATM   27  C   UNL     1      25.785  46.562  51.935  1.00  0.00     0.035 A 
HETATM   28  C   UNL     1      26.198  47.062  53.170  1.00  0.00     0.030 A 
HETATM   29  C   UNL     1      26.997  46.291  54.020  1.00  0.00     0.010 A 
HETATM   30  C   UNL     1      27.394  45.004  53.647  1.00  0.00    -0.048 A 
HETATM   31  C   UNL     1      28.286  44.194  54.554  1.00  0.00     0.069 C 
HETATM   32  C   UNL     1      27.013  44.496  52.396  1.00  0.00    -0.022 A 
HETATM   33  C   UNL     1      28.311  42.707  54.177  1.00  0.00     0.277 C 
HETATM   34  N   UNL     1      28.545  42.545  52.736  1.00  0.00     0.088 N 
HETATM   35  C   UNL     1      28.756  41.139  52.397  1.00  0.00     0.310 C 
HETATM   36  C   UNL     1      27.407  43.093  51.976  1.00  0.00     0.311 C 
HETATM   37  C   UNL     1      26.199  45.277  51.555  1.00  0.00     0.039 A 
ENDBRANCH  25  27
ENDBRANCH   5  23
TORSDOF 7
ENDMDL
MODEL 7
REMARK VINA RESULT:      -9.3      3.614     12.700
REMARK  7 active torsions:
REMARK  status: ('A' for Active; 'I' for Inactive)
REMARK    1  A    between atoms: O_2  and  C_3 
REMARK    2  A    between atoms: C_6  and  C_11 
REMARK    3  A    between atoms: C_8  and  O_9 
REMARK       I    between atoms: C_11  and  N_13 
REMARK    4  A    between atoms: N_13  and  C_14 
REMARK    5  A    between atoms: C_14  and  C_16 
REMARK    6  A    between atoms: C_20  and  C_22 
REMARK       I    between atoms: C_22  and  N_24 
REMARK    7  A    between atoms: N_24  and  C_25 
ROOT
HETATM    1  C   UNL     1      20.968  49.445  48.611  1.00  0.00    -0.035 A 
HETATM    2  C   UNL     1      21.273  50.745  48.169  1.00  0.00     0.009 A 
HETATM    3  C   UNL     1      22.584  51.217  48.188  1.00  0.00     0.002 A 
HETATM    4  C   UNL     1      23.609  50.405  48.667  1.00  0.00     0.017 A 
HETATM    5  C   UNL     1      23.329  49.116  49.139  1.00  0.00     0.033 A 
HETATM    6  C   UNL     1      22.012  48.638  49.097  1.00  0.00     0.026 A 
ENDROOT
BRANCH   1   7
HETATM    7  C   UNL     1      19.524  48.973  48.597  1.00  0.00     0.114 C 
HETATM    8  C   UNL     1      19.208  47.804  49.533  1.00  0.00     0.037 C 
BRANCH   7   9
HETATM    9  N   UNL     1      18.612  50.104  48.727  1.00  0.00    -0.349 N 
HETATM   10  C   UNL     1      17.436  50.244  48.021  1.00  0.00     0.252 C 
HETATM   11  O   UNL     1      17.062  49.450  47.162  1.00  0.00    -0.268 OA
HETATM   12  H   UNL     1      18.730  50.646  49.568  1.00  0.00     0.163 HD
BRANCH  10  13
HETATM   13  C   UNL     1      16.574  51.419  48.359  1.00  0.00     0.034 A 
HETATM   14  C   UNL     1      16.712  51.994  49.626  1.00  0.00     0.020 A 
HETATM   15  C   UNL     1      15.933  53.094  50.002  1.00  0.00     0.040 A 
HETATM   16  C   UNL     1      15.004  53.655  49.117  1.00  0.00     0.101 A 
HETATM   17  C   UNL     1      14.862  53.084  47.839  1.00  0.00     0.102 A 
HETATM   18  C   UNL     1      15.627  51.960  47.482  1.00  0.00     0.056 A 
BRANCH  16  19
HETATM   19  O   UNL     1      14.193  54.708  49.445  1.00  0.00    -0.353 OA
HETATM   20  C   UNL     1      13.051  54.448  50.252  1.00  0.00     0.210 C 
ENDBRANCH  16  19
BRANCH  17  21
HETATM   21  O   UNL     1      14.007  53.471  46.837  1.00  0.00    -0.353 OA
HETATM   22  C   UNL     1      14.495  54.395  45.872  1.00  0.00     0.210 C 
ENDBRANCH  17  21
ENDBRANCH  10  13
ENDBRANCH   7   9
ENDBRANCH   1   7
BRANCH   5  23
HETATM   23  C   UNL     1      24.469  48.294  49.644  1.00  0.00     0.256 C 
HETATM   24  O   UNL     1      25.574  48.486  49.145  1.00  0.00    -0.267 OA
HETATM   25  N   UNL     1      24.171  47.408  50.667  1.00  0.00    -0.323 N 
HETATM   26  H   UNL     1      23.231  47.428  51.042  1.00  0.00     0.169 HD
BRANCH  25  27
HETATM   27  C   UNL     1      25.061  46.515  51.305  1.00  0.00     0.035 A 
HETATM   28  C   UNL     1      25.374  45.246  50.817  1.00  0.00     0.030 A 
HETATM   29  C   UNL     1      26.272  44.421  51.500  1.00  0.00     0.010 A 
HETATM   30  C   UNL     1      26.875  44.854  52.684  1.00  0.00    -0.048 A 
HETATM   31  C   UNL     1      27.814  43.944  53.433  1.00  0.00     0.069 C 
HETATM   32  C   UNL     1      26.549  46.115  53.207  1.00  0.00    -0.022 A 
HETATM   33  C   UNL     1      28.654  44.695  54.474  1.00  0.00     0.277 C 
HETATM   34  N   UNL     1      27.799  45.555  55.303  1.00  0.00     0.088 N 
HETATM   35  C   UNL     1      28.557  46.130  56.412  1.00  0.00     0.310 C 
HETATM   36  C   UNL     1      27.206  46.622  54.475  1.00  0.00     0.311 C 
HETATM   37  C   UNL     1      25.652  46.941  52.503  1.00  0.00     0.039 A 
ENDBRANCH  25  27
ENDBRANCH   5  23
TORSDOF 7
ENDMDL
MODEL 8
REMARK VINA RESULT:      -9.1      2.761      4.793
REMARK  7 active torsions:
REMARK  status: ('A' for Active; 'I' for Inactive)
REMARK    1  A    between atoms: O_2  and  C_3 
REMARK    2  A    between atoms: C_6  and  C_11 
REMARK    3  A    between atoms: C_8  and  O_9 
REMARK       I    between atoms: C_11  and  N_13 
REMARK    4  A    between atoms: N_13  and  C_14 
REMARK    5  A    between atoms: C_14  and  C_16 
REMARK    6  A    between atoms: C_20  and  C_22 
REMARK       I    between atoms: C_22  and  N_24 
REMARK    7  A    between atoms: N_24  and  C_25 
ROOT
HETATM    1  C   UNL     1      26.048  41.254  49.884  1.00  0.00    -0.035 A 
HETATM    2  C   UNL     1      25.597  40.408  48.856  1.00  0.00     0.009 A 
HETATM    3  C   UNL     1      24.498  40.757  48.073  1.00  0.00     0.002 A 
HETATM    4  C   UNL     1      23.820  41.948  48.319  1.00  0.00     0.017 A 
HETATM    5  C   UNL     1      24.232  42.797  49.355  1.00  0.00     0.033 A 
HETATM    6  C   UNL     1      25.352  42.451  50.125  1.00  0.00     0.026 A 
ENDROOT
BRANCH   1   7
HETATM    7  C   UNL     1      27.235  40.828  50.732  1.00  0.00     0.114 C 
HETATM    8  C   UNL     1      28.460  40.347  49.949  1.00  0.00     0.037 C 
BRANCH   7   9
HETATM    9  N   UNL     1      27.533  41.836  51.743  1.00  0.00    -0.349 N 
HETATM   10  C   UNL     1      28.282  41.605  52.878  1.00  0.00     0.252 C 
HETATM   11  O   UNL     1      28.732  40.504  53.182  1.00  0.00    -0.268 OA
HETATM   12  H   UNL     1      27.410  42.788  51.438  1.00  0.00     0.163 HD
BRANCH  10  13
HETATM   13  C   UNL     1      28.573  42.784  53.754  1.00  0.00     0.034 A 
HETATM   14  C   UNL     1      27.571  43.745  53.917  1.00  0.00     0.020 A 
HETATM   15  C   UNL     1      27.782  44.870  54.722  1.00  0.00     0.040 A 
HETATM   16  C   UNL     1      28.997  45.058  55.393  1.00  0.00     0.101 A 
HETATM   17  C   UNL     1      30.008  44.093  55.236  1.00  0.00     0.102 A 
HETATM   18  C   UNL     1      29.797  42.982  54.401  1.00  0.00     0.056 A 
BRANCH  16  19
HETATM   19  O   UNL     1      29.268  46.155  56.164  1.00  0.00    -0.353 OA
HETATM   20  C   UNL     1      28.772  46.178  57.497  1.00  0.00     0.210 C 
ENDBRANCH  16  19
BRANCH  17  21
HETATM   21  O   UNL     1      31.264  44.095  55.791  1.00  0.00    -0.353 OA
HETATM   22  C   UNL     1      31.433  43.447  57.045  1.00  0.00     0.210 C 
ENDBRANCH  17  21
ENDBRANCH  10  13
ENDBRANCH   7   9
ENDBRANCH   1   7
BRANCH   5  23
HETATM   23  C   UNL     1      23.463  44.059  49.572  1.00  0.00     0.256 C 
HETATM   24  O   UNL     1      22.520  44.022  50.357  1.00  0.00    -0.267 OA
HETATM   25  N   UNL     1      23.916  45.172  48.884  1.00  0.00    -0.323 N 
HETATM   26  H   UNL     1      24.766  45.070  48.343  1.00  0.00     0.169 HD
BRANCH  25  27
HETATM   27  C   UNL     1      23.361  46.471  48.905  1.00  0.00     0.035 A 
HETATM   28  C   UNL     1      23.904  47.539  49.620  1.00  0.00     0.030 A 
HETATM   29  C   UNL     1      23.303  48.800  49.584  1.00  0.00     0.010 A 
HETATM   30  C   UNL     1      22.147  49.015  48.829  1.00  0.00    -0.048 A 
HETATM   31  C   UNL     1      21.484  50.369  48.824  1.00  0.00     0.069 C 
HETATM   32  C   UNL     1      21.569  47.945  48.126  1.00  0.00    -0.022 A 
HETATM   33  C   UNL     1      20.478  50.527  47.677  1.00  0.00     0.277 C 
HETATM   34  N   UNL     1      19.573  49.371  47.623  1.00  0.00     0.088 N 
HETATM   35  C   UNL     1      18.499  49.595  46.659  1.00  0.00     0.310 C 
HETATM   36  C   UNL     1      20.331  48.154  47.277  1.00  0.00     0.311 C 
HETATM   37  C   UNL     1      22.191  46.684  48.161  1.00  0.00     0.039 A 
ENDBRANCH  25  27
ENDBRANCH   5  23
TORSDOF 7
ENDMDL
MODEL 9
REMARK VINA RESULT:      -9.0      3.424      5.398
REMARK  7 active torsions:
REMARK  status: ('A' for Active; 'I' for Inactive)
REMARK    1  A    between atoms: O_2  and  C_3 
REMARK    2  A    between atoms: C_6  and  C_11 
REMARK    3  A    between atoms: C_8  and  O_9 
REMARK       I    between atoms: C_11  and  N_13 
REMARK    4  A    between atoms: N_13  and  C_14 
REMARK    5  A    between atoms: C_14  and  C_16 
REMARK    6  A    between atoms: C_20  and  C_22 
REMARK       I    between atoms: C_22  and  N_24 
REMARK    7  A    between atoms: N_24  and  C_25 
ROOT
HETATM    1  C   UNL     1      25.898  47.724  50.051  1.00  0.00    -0.035 A 
HETATM    2  C   UNL     1      27.108  48.312  49.641  1.00  0.00     0.009 A 
HETATM    3  C   UNL     1      27.115  49.415  48.790  1.00  0.00     0.002 A 
HETATM    4  C   UNL     1      25.913  49.937  48.319  1.00  0.00     0.017 A 
HETATM    5  C   UNL     1      24.693  49.355  48.691  1.00  0.00     0.033 A 
HETATM    6  C   UNL     1      24.692  48.259  49.565  1.00  0.00     0.026 A 
ENDROOT
BRANCH   1   7
HETATM    7  C   UNL     1      25.931  46.508  50.961  1.00  0.00     0.114 C 
HETATM    8  C   UNL     1      25.388  46.732  52.375  1.00  0.00     0.037 C 
BRANCH   7   9
HETATM    9  N   UNL     1      25.370  45.344  50.285  1.00  0.00    -0.349 N 
HETATM   10  C   UNL     1      26.113  44.403  49.604  1.00  0.00     0.252 C 
HETATM   11  O   UNL     1      27.329  44.479  49.450  1.00  0.00    -0.268 OA
HETATM   12  H   UNL     1      24.439  45.095  50.577  1.00  0.00     0.163 HD
BRANCH  10  13
HETATM   13  C   UNL     1      25.378  43.218  49.059  1.00  0.00     0.034 A 
HETATM   14  C   UNL     1      24.095  43.420  48.542  1.00  0.00     0.020 A 
HETATM   15  C   UNL     1      23.356  42.353  48.020  1.00  0.00     0.040 A 
HETATM   16  C   UNL     1      23.886  41.057  47.990  1.00  0.00     0.101 A 
HETATM   17  C   UNL     1      25.178  40.847  48.505  1.00  0.00     0.102 A 
HETATM   18  C   UNL     1      25.900  41.920  49.056  1.00  0.00     0.056 A 
BRANCH  16  19
HETATM   19  O   UNL     1      23.195  39.973  47.523  1.00  0.00    -0.353 OA
HETATM   20  C   UNL     1      21.842  40.161  47.127  1.00  0.00     0.210 C 
ENDBRANCH  16  19
BRANCH  17  21
HETATM   21  O   UNL     1      25.869  39.662  48.582  1.00  0.00    -0.353 OA
HETATM   22  C   UNL     1      27.214  39.711  49.038  1.00  0.00     0.210 C 
ENDBRANCH  17  21
ENDBRANCH  10  13
ENDBRANCH   7   9
ENDBRANCH   1   7
BRANCH   5  23
HETATM   23  C   UNL     1      23.438  49.957  48.150  1.00  0.00     0.256 C 
HETATM   24  O   UNL     1      23.491  50.484  47.044  1.00  0.00    -0.267 OA
HETATM   25  N   UNL     1      22.313  49.829  48.948  1.00  0.00    -0.323 N 
HETATM   26  H   UNL     1      22.402  49.284  49.796  1.00  0.00     0.169 HD
BRANCH  25  27
HETATM   27  C   UNL     1      21.015  50.319  48.675  1.00  0.00     0.035 A 
HETATM   28  C   UNL     1      20.656  51.663  48.765  1.00  0.00     0.030 A 
HETATM   29  C   UNL     1      19.353  52.074  48.468  1.00  0.00     0.010 A 
HETATM   30  C   UNL     1      18.387  51.145  48.074  1.00  0.00    -0.048 A 
HETATM   31  C   UNL     1      16.975  51.591  47.791  1.00  0.00     0.069 C 
HETATM   32  C   UNL     1      18.722  49.783  48.007  1.00  0.00    -0.022 A 
HETATM   33  C   UNL     1      16.167  50.536  47.026  1.00  0.00     0.277 C 
HETATM   34  N   UNL     1      16.307  49.219  47.662  1.00  0.00     0.088 N 
HETATM   35  C   UNL     1      15.399  48.248  47.055  1.00  0.00     0.310 C 
HETATM   36  C   UNL     1      17.703  48.755  47.557  1.00  0.00     0.311 C 
HETATM   37  C   UNL     1      20.040  49.384  48.296  1.00  0.00     0.039 A 
ENDBRANCH  25  27
ENDBRANCH   5  23
TORSDOF 7
ENDMDL
MODEL 10
REMARK VINA RESULT:      -8.9      3.444     11.146
REMARK  7 active torsions:
REMARK  status: ('A' for Active; 'I' for Inactive)
REMARK    1  A    between atoms: O_2  and  C_3 
REMARK    2  A    between atoms: C_6  and  C_11 
REMARK    3  A    between atoms: C_8  and  O_9 
REMARK       I    between atoms: C_11  and  N_13 
REMARK    4  A    between atoms: N_13  and  C_14 
REMARK    5  A    between atoms: C_14  and  C_16 
REMARK    6  A    between atoms: C_20  and  C_22 
REMARK       I    between atoms: C_22  and  N_24 
REMARK    7  A    between atoms: N_24  and  C_25 
ROOT
HETATM    1  C   UNL     1      22.803  43.497  47.844  1.00  0.00    -0.035 A 
HETATM    2  C   UNL     1      22.971  42.103  47.765  1.00  0.00     0.009 A 
HETATM    3  C   UNL     1      23.994  41.465  48.464  1.00  0.00     0.002 A 
HETATM    4  C   UNL     1      24.879  42.213  49.236  1.00  0.00     0.017 A 
HETATM    5  C   UNL     1      24.752  43.606  49.310  1.00  0.00     0.033 A 
HETATM    6  C   UNL     1      23.707  44.240  48.623  1.00  0.00     0.026 A 
ENDROOT
BRANCH   1   7
HETATM    7  C   UNL     1      21.690  44.159  47.050  1.00  0.00     0.114 C 
HETATM    8  C   UNL     1      20.678  43.201  46.415  1.00  0.00     0.037 C 
BRANCH   7   9
HETATM    9  N   UNL     1      21.085  45.243  47.816  1.00  0.00    -0.349 N 
HETATM   10  C   UNL     1      21.425  46.572  47.690  1.00  0.00     0.252 C 
HETATM   11  O   UNL     1      22.318  46.978  46.951  1.00  0.00    -0.268 OA
HETATM   12  H   UNL     1      20.201  45.014  48.242  1.00  0.00     0.163 HD
BRANCH  10  13
HETATM   13  C   UNL     1      20.626  47.558  48.484  1.00  0.00     0.034 A 
HETATM   14  C   UNL     1      19.310  47.223  48.818  1.00  0.00     0.020 A 
HETATM   15  C   UNL     1      18.512  48.103  49.557  1.00  0.00     0.040 A 
HETATM   16  C   UNL     1      19.013  49.337  49.992  1.00  0.00     0.101 A 
HETATM   17  C   UNL     1      20.337  49.679  49.663  1.00  0.00     0.102 A 
HETATM   18  C   UNL     1      21.121  48.801  48.893  1.00  0.00     0.056 A 
BRANCH  16  19
HETATM   19  O   UNL     1      18.266  50.248  50.687  1.00  0.00    -0.353 OA
HETATM   20  C   UNL     1      17.560  51.238  49.950  1.00  0.00     0.210 C 
ENDBRANCH  16  19
BRANCH  17  21
HETATM   21  O   UNL     1      21.008  50.835  49.978  1.00  0.00    -0.353 OA
HETATM   22  C   UNL     1      22.342  50.973  49.506  1.00  0.00     0.210 C 
ENDBRANCH  17  21
ENDBRANCH  10  13
ENDBRANCH   7   9
ENDBRANCH   1   7
BRANCH   5  23
HETATM   23  C   UNL     1      25.734  44.354  50.151  1.00  0.00     0.256 C 
HETATM   24  O   UNL     1      26.659  44.920  49.577  1.00  0.00    -0.267 OA
HETATM   25  N   UNL     1      25.481  44.365  51.513  1.00  0.00    -0.323 N 
HETATM   26  H   UNL     1      24.624  43.931  51.831  1.00  0.00     0.169 HD
BRANCH  25  27
HETATM   27  C   UNL     1      26.258  44.984  52.518  1.00  0.00     0.035 A 
HETATM   28  C   UNL     1      26.087  46.304  52.933  1.00  0.00     0.030 A 
HETATM   29  C   UNL     1      26.889  46.844  53.943  1.00  0.00     0.010 A 
HETATM   30  C   UNL     1      27.876  46.069  54.557  1.00  0.00    -0.048 A 
HETATM   31  C   UNL     1      28.761  46.670  55.619  1.00  0.00     0.069 C 
HETATM   32  C   UNL     1      28.084  44.747  54.132  1.00  0.00    -0.022 A 
HETATM   33  C   UNL     1      29.511  45.606  56.430  1.00  0.00     0.277 C 
HETATM   34  N   UNL     1      30.154  44.635  55.535  1.00  0.00     0.088 N 
HETATM   35  C   UNL     1      31.022  43.729  56.285  1.00  0.00     0.310 C 
HETATM   36  C   UNL     1      29.129  43.874  54.797  1.00  0.00     0.311 C 
HETATM   37  C   UNL     1      27.262  44.212  53.123  1.00  0.00     0.039 A 
ENDBRANCH  25  27
ENDBRANCH   5  23
TORSDOF 7
ENDMDL
