MODEL 1
REMARK VINA RESULT:      -9.1      0.000      0.000
REMARK  5 active torsions:
REMARK  status: ('A' for Active; 'I' for Inactive)
REMARK    1  A    between atoms: O_2  and  C_3 
REMARK    2  A    between atoms: C_4  and  N_5 
REMARK       I    between atoms: N_5  and  C_6 
REMARK    3  A    between atoms: C_6  and  C_7 
REMARK    4  A    between atoms: C_7  and  N_8 
REMARK    5  A    between atoms: N_8  and  C_9 
ROOT
HETATM    1  C   UNL     1      27.607  47.246  54.196  1.00  0.00     0.195 C 
ENDROOT
BRANCH   1   2
HETATM    2  C   UNL     1      26.128  47.554  53.922  1.00  0.00     0.235 C 
HETATM    3  N   UNL     1      25.406  46.808  53.037  1.00  0.00    -0.324 N 
HETATM    4  H   UNL     1      24.417  46.775  53.265  1.00  0.00     0.169 HD
HETATM    5  O   UNL     1      25.520  48.350  54.650  1.00  0.00    -0.272 OA
BRANCH   3   6
HETATM    6  C   UNL     1      25.795  45.960  51.989  1.00  0.00     0.068 A 
HETATM    7  C   UNL     1      26.214  46.561  50.790  1.00  0.00     0.095 A 
HETATM    8  C   UNL     1      26.705  45.786  49.737  1.00  0.00     0.039 A 
HETATM    9  C   UNL     1      26.767  44.400  49.872  1.00  0.00     0.003 A 
HETATM   10  C   UNL     1      26.359  43.797  51.061  1.00  0.00     0.002 A 
HETATM   11  C   UNL     1      25.881  44.573  52.122  1.00  0.00     0.032 A 
BRANCH   7  12
HETATM   12  O   UNL     1      26.144  47.932  50.705  1.00  0.00    -0.354 OA
HETATM   13  C   UNL     1      26.764  48.425  49.515  1.00  0.00     0.210 C 
ENDBRANCH   7  12
ENDBRANCH   3   6
ENDBRANCH   1   2
BRANCH   1  14
HETATM   14  N   UNL     1      27.661  46.103  55.116  1.00  0.00    -0.283 NA
HETATM   15  H   UNL     1      27.559  46.412  56.084  1.00  0.00     0.128 HD
BRANCH  14  16
HETATM   16  C   UNL     1      28.660  45.119  55.033  1.00  0.00     0.019 A 
HETATM   17  C   UNL     1      29.599  44.988  56.105  1.00  0.00    -0.005 A 
HETATM   18  C   UNL     1      30.619  44.006  56.025  1.00  0.00    -0.024 A 
HETATM   19  C   UNL     1      29.562  45.789  57.272  1.00  0.00     0.014 A 
HETATM   20  C   UNL     1      31.559  43.879  57.062  1.00  0.00     0.012 A 
HETATM   21  C   UNL     1      30.678  43.155  54.914  1.00  0.00     0.012 A 
HETATM   22  C   UNL     1      31.501  44.694  58.191  1.00  0.00     0.001 A 
HETATM   23  C   UNL     1      30.498  45.646  58.299  1.00  0.00     0.001 A 
HETATM   24  C   UNL     1      29.731  43.248  53.900  1.00  0.00     0.003 A 
HETATM   25  C   UNL     1      28.725  44.210  53.967  1.00  0.00     0.024 A 
ENDBRANCH  14  16
ENDBRANCH   1  14
TORSDOF 5
ENDMDL
MODEL 2
REMARK VINA RESULT:      -8.8      1.394      2.247
REMARK  5 active torsions:
REMARK  status: ('A' for Active; 'I' for Inactive)
REMARK    1  A    between atoms: O_2  and  C_3 
REMARK    2  A    between atoms: C_4  and  N_5 
REMARK       I    between atoms: N_5  and  C_6 
REMARK    3  A    between atoms: C_6  and  C_7 
REMARK    4  A    between atoms: C_7  and  N_8 
REMARK    5  A    between atoms: N_8  and  C_9 
ROOT
HETATM    1  C   UNL     1      27.933  47.585  54.786  1.00  0.00     0.195 C 
ENDROOT
BRANCH   1   2
HETATM    2  C   UNL     1      26.457  48.006  54.748  1.00  0.00     0.235 C 
HETATM    3  N   UNL     1      25.549  47.322  53.995  1.00  0.00    -0.324 N 
HETATM    4  H   UNL     1      24.609  47.364  54.377  1.00  0.00     0.169 HD
HETATM    5  O   UNL     1      26.035  48.843  55.557  1.00  0.00    -0.272 OA
BRANCH   3   6
HETATM    6  C   UNL     1      25.701  46.451  52.905  1.00  0.00     0.068 A 
HETATM    7  C   UNL     1      25.267  45.124  53.070  1.00  0.00     0.095 A 
HETATM    8  C   UNL     1      25.298  44.225  52.002  1.00  0.00     0.039 A 
HETATM    9  C   UNL     1      25.776  44.646  50.762  1.00  0.00     0.003 A 
HETATM   10  C   UNL     1      26.202  45.962  50.589  1.00  0.00     0.002 A 
HETATM   11  C   UNL     1      26.157  46.867  51.654  1.00  0.00     0.032 A 
BRANCH   7  12
HETATM   12  O   UNL     1      24.794  44.757  54.309  1.00  0.00    -0.354 OA
HETATM   13  C   UNL     1      25.526  43.657  54.854  1.00  0.00     0.210 C 
ENDBRANCH   7  12
ENDBRANCH   3   6
ENDBRANCH   1   2
BRANCH   1  14
HETATM   14  N   UNL     1      28.031  46.379  55.618  1.00  0.00    -0.283 NA
HETATM   15  H   UNL     1      28.169  46.626  56.599  1.00  0.00     0.128 HD
BRANCH  14  16
HETATM   16  C   UNL     1      28.859  45.297  55.277  1.00  0.00     0.019 A 
HETATM   17  C   UNL     1      29.892  44.899  56.185  1.00  0.00    -0.005 A 
HETATM   18  C   UNL     1      30.742  43.816  55.845  1.00  0.00    -0.024 A 
HETATM   19  C   UNL     1      30.113  45.528  57.434  1.00  0.00     0.014 A 
HETATM   20  C   UNL     1      31.772  43.426  56.717  1.00  0.00     0.012 A 
HETATM   21  C   UNL     1      30.542  43.128  54.641  1.00  0.00     0.012 A 
HETATM   22  C   UNL     1      31.970  44.076  57.934  1.00  0.00     0.001 A 
HETATM   23  C   UNL     1      31.136  45.125  58.296  1.00  0.00     0.001 A 
HETATM   24  C   UNL     1      29.503  43.481  53.788  1.00  0.00     0.003 A 
HETATM   25  C   UNL     1      28.662  44.545  54.111  1.00  0.00     0.024 A 
ENDBRANCH  14  16
ENDBRANCH   1  14
TORSDOF 5
ENDMDL
MODEL 3
REMARK VINA RESULT:      -8.6      2.477      3.706
REMARK  5 active torsions:
REMARK  status: ('A' for Active; 'I' for Inactive)
REMARK    1  A    between atoms: O_2  and  C_3 
REMARK    2  A    between atoms: C_4  and  N_5 
REMARK       I    between atoms: N_5  and  C_6 
REMARK    3  A    between atoms: C_6  and  C_7 
REMARK    4  A    between atoms: C_7  and  N_8 
REMARK    5  A    between atoms: N_8  and  C_9 
ROOT
HETATM    1  C   UNL     1      29.117  42.785  52.372  1.00  0.00     0.195 C 
ENDROOT
BRANCH   1   2
HETATM    2  C   UNL     1      27.780  42.032  52.414  1.00  0.00     0.235 C 
HETATM    3  N   UNL     1      26.675  42.525  51.784  1.00  0.00    -0.324 N 
HETATM    4  H   UNL     1      26.036  41.795  51.482  1.00  0.00     0.169 HD
HETATM    5  O   UNL     1      27.740  40.873  52.847  1.00  0.00    -0.272 OA
BRANCH   3   6
HETATM    6  C   UNL     1      26.346  43.813  51.337  1.00  0.00     0.068 A 
HETATM    7  C   UNL     1      25.387  44.530  52.073  1.00  0.00     0.095 A 
HETATM    8  C   UNL     1      25.078  45.852  51.746  1.00  0.00     0.039 A 
HETATM    9  C   UNL     1      25.718  46.463  50.669  1.00  0.00     0.003 A 
HETATM   10  C   UNL     1      26.675  45.760  49.938  1.00  0.00     0.002 A 
HETATM   11  C   UNL     1      26.996  44.441  50.274  1.00  0.00     0.032 A 
BRANCH   7  12
HETATM   12  O   UNL     1      24.788  43.891  53.134  1.00  0.00    -0.354 OA
HETATM   13  C   UNL     1      24.995  44.590  54.363  1.00  0.00     0.210 C 
ENDBRANCH   7  12
ENDBRANCH   3   6
ENDBRANCH   1   2
BRANCH   1  14
HETATM   14  N   UNL     1      29.603  42.909  53.751  1.00  0.00    -0.283 NA
HETATM   15  H   UNL     1      29.394  42.064  54.286  1.00  0.00     0.128 HD
BRANCH  14  16
HETATM   16  C   UNL     1      29.350  44.046  54.537  1.00  0.00     0.019 A 
HETATM   17  C   UNL     1      30.090  44.233  55.748  1.00  0.00    -0.005 A 
HETATM   18  C   UNL     1      29.832  45.370  56.555  1.00  0.00    -0.024 A 
HETATM   19  C   UNL     1      31.093  43.338  56.192  1.00  0.00     0.014 A 
HETATM   20  C   UNL     1      30.538  45.557  57.757  1.00  0.00     0.012 A 
HETATM   21  C   UNL     1      28.882  46.313  56.144  1.00  0.00     0.012 A 
HETATM   22  C   UNL     1      31.510  44.648  58.170  1.00  0.00     0.001 A 
HETATM   23  C   UNL     1      31.792  43.540  57.384  1.00  0.00     0.001 A 
HETATM   24  C   UNL     1      28.205  46.157  54.940  1.00  0.00     0.003 A 
HETATM   25  C   UNL     1      28.448  45.043  54.139  1.00  0.00     0.024 A 
ENDBRANCH  14  16
ENDBRANCH   1  14
TORSDOF 5
ENDMDL
MODEL 4
REMARK VINA RESULT:      -8.6      1.745      2.353
REMARK  5 active torsions:
REMARK  status: ('A' for Active; 'I' for Inactive)
REMARK    1  A    between atoms: O_2  and  C_3 
REMARK    2  A    between atoms: C_4  and  N_5 
REMARK       I    between atoms: N_5  and  C_6 
REMARK    3  A    between atoms: C_6  and  C_7 
REMARK    4  A    between atoms: C_7  and  N_8 
REMARK    5  A    between atoms: N_8  and  C_9 
ROOT
HETATM    1  C   UNL     1      26.242  45.539  53.948  1.00  0.00     0.195 C 
ENDROOT
BRANCH   1   2
HETATM    2  C   UNL     1      25.969  46.285  52.633  1.00  0.00     0.235 C 
HETATM    3  N   UNL     1      25.688  45.605  51.484  1.00  0.00    -0.324 N 
HETATM    4  H   UNL     1      25.099  46.134  50.849  1.00  0.00     0.169 HD
HETATM    5  O   UNL     1      25.800  47.511  52.645  1.00  0.00    -0.272 OA
BRANCH   3   6
HETATM    6  C   UNL     1      25.920  44.276  51.100  1.00  0.00     0.068 A 
HETATM    7  C   UNL     1      24.799  43.451  50.908  1.00  0.00     0.095 A 
HETATM    8  C   UNL     1      24.945  42.146  50.435  1.00  0.00     0.039 A 
HETATM    9  C   UNL     1      26.220  41.651  50.162  1.00  0.00     0.003 A 
HETATM   10  C   UNL     1      27.337  42.465  50.344  1.00  0.00     0.002 A 
HETATM   11  C   UNL     1      27.190  43.778  50.804  1.00  0.00     0.032 A 
BRANCH   7  12
HETATM   12  O   UNL     1      23.560  43.985  51.180  1.00  0.00    -0.354 OA
HETATM   13  C   UNL     1      22.676  43.877  50.062  1.00  0.00     0.210 C 
ENDBRANCH   7  12
ENDBRANCH   3   6
ENDBRANCH   1   2
BRANCH   1  14
HETATM   14  N   UNL     1      27.575  45.936  54.416  1.00  0.00    -0.283 NA
HETATM   15  H   UNL     1      27.919  46.741  53.891  1.00  0.00     0.128 HD
BRANCH  14  16
HETATM   16  C   UNL     1      28.613  45.008  54.601  1.00  0.00     0.019 A 
HETATM   17  C   UNL     1      29.376  45.050  55.811  1.00  0.00    -0.005 A 
HETATM   18  C   UNL     1      30.435  44.126  56.002  1.00  0.00    -0.024 A 
HETATM   19  C   UNL     1      29.125  45.971  56.857  1.00  0.00     0.014 A 
HETATM   20  C   UNL     1      31.205  44.168  57.177  1.00  0.00     0.012 A 
HETATM   21  C   UNL     1      30.701  43.163  55.020  1.00  0.00     0.012 A 
HETATM   22  C   UNL     1      30.938  45.097  58.181  1.00  0.00     0.001 A 
HETATM   23  C   UNL     1      29.894  45.996  58.023  1.00  0.00     0.001 A 
HETATM   24  C   UNL     1      29.922  43.089  53.871  1.00  0.00     0.003 A 
HETATM   25  C   UNL     1      28.880  43.993  53.672  1.00  0.00     0.024 A 
ENDBRANCH  14  16
ENDBRANCH   1  14
TORSDOF 5
ENDMDL
MODEL 5
REMARK VINA RESULT:      -8.6      1.909      3.129
REMARK  5 active torsions:
REMARK  status: ('A' for Active; 'I' for Inactive)
REMARK    1  A    between atoms: O_2  and  C_3 
REMARK    2  A    between atoms: C_4  and  N_5 
REMARK       I    between atoms: N_5  and  C_6 
REMARK    3  A    between atoms: C_6  and  C_7 
REMARK    4  A    between atoms: C_7  and  N_8 
REMARK    5  A    between atoms: N_8  and  C_9 
ROOT
HETATM    1  C   UNL     1      26.194  46.256  52.572  1.00  0.00     0.195 C 
ENDROOT
BRANCH   1   2
HETATM    2  C   UNL     1      25.040  45.810  51.664  1.00  0.00     0.235 C 
HETATM    3  N   UNL     1      24.943  46.257  50.379  1.00  0.00    -0.324 N 
HETATM    4  H   UNL     1      24.477  45.595  49.766  1.00  0.00     0.169 HD
HETATM    5  O   UNL     1      24.299  44.884  52.019  1.00  0.00    -0.272 OA
BRANCH   3   6
HETATM    6  C   UNL     1      25.505  47.364  49.726  1.00  0.00     0.068 A 
HETATM    7  C   UNL     1      24.630  48.377  49.296  1.00  0.00     0.095 A 
HETATM    8  C   UNL     1      25.124  49.552  48.725  1.00  0.00     0.039 A 
HETATM    9  C   UNL     1      26.499  49.716  48.567  1.00  0.00     0.003 A 
HETATM   10  C   UNL     1      27.374  48.718  48.996  1.00  0.00     0.002 A 
HETATM   11  C   UNL     1      26.881  47.548  49.582  1.00  0.00     0.032 A 
BRANCH   7  12
HETATM   12  O   UNL     1      23.282  48.176  49.482  1.00  0.00    -0.354 OA
HETATM   13  C   UNL     1      22.534  49.381  49.302  1.00  0.00     0.210 C 
ENDBRANCH   7  12
ENDBRANCH   3   6
ENDBRANCH   1   2
BRANCH   1  14
HETATM   14  N   UNL     1      26.427  45.188  53.553  1.00  0.00    -0.283 NA
HETATM   15  H   UNL     1      26.329  45.543  54.506  1.00  0.00     0.128 HD
BRANCH  14  16
HETATM   16  C   UNL     1      27.535  44.327  53.477  1.00  0.00     0.019 A 
HETATM   17  C   UNL     1      28.582  44.454  54.444  1.00  0.00    -0.005 A 
HETATM   18  C   UNL     1      29.710  43.598  54.368  1.00  0.00    -0.024 A 
HETATM   19  C   UNL     1      28.553  45.395  55.502  1.00  0.00     0.014 A 
HETATM   20  C   UNL     1      30.756  43.724  55.299  1.00  0.00     0.012 A 
HETATM   21  C   UNL     1      29.773  42.618  53.369  1.00  0.00     0.012 A 
HETATM   22  C   UNL     1      30.700  44.671  56.321  1.00  0.00     0.001 A 
HETATM   23  C   UNL     1      29.596  45.504  56.425  1.00  0.00     0.001 A 
HETATM   24  C   UNL     1      28.728  42.461  52.465  1.00  0.00     0.003 A 
HETATM   25  C   UNL     1      27.615  43.297  52.529  1.00  0.00     0.024 A 
ENDBRANCH  14  16
ENDBRANCH   1  14
TORSDOF 5
ENDMDL
MODEL 6
REMARK VINA RESULT:      -8.6      2.440      7.880
REMARK  5 active torsions:
REMARK  status: ('A' for Active; 'I' for Inactive)
REMARK    1  A    between atoms: O_2  and  C_3 
REMARK    2  A    between atoms: C_4  and  N_5 
REMARK       I    between atoms: N_5  and  C_6 
REMARK    3  A    between atoms: C_6  and  C_7 
REMARK    4  A    between atoms: C_7  and  N_8 
REMARK    5  A    between atoms: N_8  and  C_9 
ROOT
HETATM    1  C   UNL     1      26.072  45.814  51.246  1.00  0.00     0.195 C 
ENDROOT
BRANCH   1   2
HETATM    2  C   UNL     1      25.261  45.051  52.304  1.00  0.00     0.235 C 
HETATM    3  N   UNL     1      25.665  45.013  53.607  1.00  0.00    -0.324 N 
HETATM    4  H   UNL     1      24.891  44.913  54.256  1.00  0.00     0.169 HD
HETATM    5  O   UNL     1      24.129  44.634  52.030  1.00  0.00    -0.272 OA
BRANCH   3   6
HETATM    6  C   UNL     1      26.910  45.250  54.210  1.00  0.00     0.068 A 
HETATM    7  C   UNL     1      27.068  46.452  54.921  1.00  0.00     0.095 A 
HETATM    8  C   UNL     1      28.243  46.714  55.627  1.00  0.00     0.039 A 
HETATM    9  C   UNL     1      29.277  45.779  55.616  1.00  0.00     0.003 A 
HETATM   10  C   UNL     1      29.125  44.582  54.918  1.00  0.00     0.002 A 
HETATM   11  C   UNL     1      27.942  44.311  54.223  1.00  0.00     0.032 A 
BRANCH   7  12
HETATM   12  O   UNL     1      26.017  47.341  54.913  1.00  0.00    -0.354 OA
HETATM   13  C   UNL     1      26.322  48.532  55.642  1.00  0.00     0.210 C 
ENDBRANCH   7  12
ENDBRANCH   3   6
ENDBRANCH   1   2
BRANCH   1  14
HETATM   14  N   UNL     1      25.129  46.615  50.456  1.00  0.00    -0.283 NA
HETATM   15  H   UNL     1      24.547  46.015  49.868  1.00  0.00     0.128 HD
BRANCH  14  16
HETATM   16  C   UNL     1      25.532  47.748  49.729  1.00  0.00     0.019 A 
HETATM   17  C   UNL     1      24.533  48.593  49.149  1.00  0.00    -0.005 A 
HETATM   18  C   UNL     1      24.930  49.732  48.403  1.00  0.00    -0.024 A 
HETATM   19  C   UNL     1      23.143  48.362  49.288  1.00  0.00     0.014 A 
HETATM   20  C   UNL     1      23.961  50.561  47.811  1.00  0.00     0.012 A 
HETATM   21  C   UNL     1      26.290  50.035  48.269  1.00  0.00     0.012 A 
HETATM   22  C   UNL     1      22.600  50.296  47.957  1.00  0.00     0.001 A 
HETATM   23  C   UNL     1      22.190  49.199  48.701  1.00  0.00     0.001 A 
HETATM   24  C   UNL     1      27.256  49.244  48.881  1.00  0.00     0.003 A 
HETATM   25  C   UNL     1      26.878  48.121  49.615  1.00  0.00     0.024 A 
ENDBRANCH  14  16
ENDBRANCH   1  14
TORSDOF 5
ENDMDL
MODEL 7
REMARK VINA RESULT:      -8.5      2.685      4.107
REMARK  5 active torsions:
REMARK  status: ('A' for Active; 'I' for Inactive)
REMARK    1  A    between atoms: O_2  and  C_3 
REMARK    2  A    between atoms: C_4  and  N_5 
REMARK       I    between atoms: N_5  and  C_6 
REMARK    3  A    between atoms: C_6  and  C_7 
REMARK    4  A    between atoms: C_7  and  N_8 
REMARK    5  A    between atoms: N_8  and  C_9 
ROOT
HETATM    1  C   UNL     1      27.670  42.219  51.932  1.00  0.00     0.195 C 
ENDROOT
BRANCH   1   2
HETATM    2  C   UNL     1      26.508  41.732  51.054  1.00  0.00     0.235 C 
HETATM    3  N   UNL     1      25.878  42.577  50.189  1.00  0.00    -0.324 N 
HETATM    4  H   UNL     1      25.492  42.097  49.381  1.00  0.00     0.169 HD
HETATM    5  O   UNL     1      26.263  40.521  50.974  1.00  0.00    -0.272 OA
BRANCH   3   6
HETATM    6  C   UNL     1      25.812  43.977  50.125  1.00  0.00     0.068 A 
HETATM    7  C   UNL     1      24.621  44.590  50.552  1.00  0.00     0.095 A 
HETATM    8  C   UNL     1      24.515  45.981  50.608  1.00  0.00     0.039 A 
HETATM    9  C   UNL     1      25.598  46.771  50.223  1.00  0.00     0.003 A 
HETATM   10  C   UNL     1      26.784  46.170  49.804  1.00  0.00     0.002 A 
HETATM   11  C   UNL     1      26.897  44.776  49.762  1.00  0.00     0.032 A 
BRANCH   7  12
HETATM   12  O   UNL     1      23.583  43.771  50.933  1.00  0.00    -0.354 OA
HETATM   13  C   UNL     1      22.546  43.735  49.949  1.00  0.00     0.210 C 
ENDBRANCH   7  12
ENDBRANCH   3   6
ENDBRANCH   1   2
BRANCH   1  14
HETATM   14  N   UNL     1      27.110  42.631  53.225  1.00  0.00    -0.283 NA
HETATM   15  H   UNL     1      26.104  42.456  53.256  1.00  0.00     0.128 HD
BRANCH  14  16
HETATM   16  C   UNL     1      27.394  43.879  53.803  1.00  0.00     0.019 A 
HETATM   17  C   UNL     1      28.598  44.035  54.562  1.00  0.00    -0.005 A 
HETATM   18  C   UNL     1      28.888  45.288  55.162  1.00  0.00    -0.024 A 
HETATM   19  C   UNL     1      29.542  42.996  54.746  1.00  0.00     0.014 A 
HETATM   20  C   UNL     1      30.056  45.450  55.926  1.00  0.00     0.012 A 
HETATM   21  C   UNL     1      28.012  46.365  54.978  1.00  0.00     0.012 A 
HETATM   22  C   UNL     1      30.958  44.401  56.097  1.00  0.00     0.001 A 
HETATM   23  C   UNL     1      30.703  43.174  55.501  1.00  0.00     0.001 A 
HETATM   24  C   UNL     1      26.872  46.225  54.194  1.00  0.00     0.003 A 
HETATM   25  C   UNL     1      26.576  44.999  53.601  1.00  0.00     0.024 A 
ENDBRANCH  14  16
ENDBRANCH   1  14
TORSDOF 5
ENDMDL
MODEL 8
REMARK VINA RESULT:      -8.4      2.691      8.047
REMARK  5 active torsions:
REMARK  status: ('A' for Active; 'I' for Inactive)
REMARK    1  A    between atoms: O_2  and  C_3 
REMARK    2  A    between atoms: C_4  and  N_5 
REMARK       I    between atoms: N_5  and  C_6 
REMARK    3  A    between atoms: C_6  and  C_7 
REMARK    4  A    between atoms: C_7  and  N_8 
REMARK    5  A    between atoms: N_8  and  C_9 
ROOT
HETATM    1  C   UNL     1      25.849  45.731  51.145  1.00  0.00     0.195 C 
ENDROOT
BRANCH   1   2
HETATM    2  C   UNL     1      25.045  44.997  52.228  1.00  0.00     0.235 C 
HETATM    3  N   UNL     1      25.320  45.177  53.552  1.00  0.00    -0.324 N 
HETATM    4  H   UNL     1      24.506  45.049  54.144  1.00  0.00     0.169 HD
HETATM    5  O   UNL     1      24.008  44.394  51.922  1.00  0.00    -0.272 OA
BRANCH   3   6
HETATM    6  C   UNL     1      26.459  45.659  54.216  1.00  0.00     0.068 A 
HETATM    7  C   UNL     1      27.365  44.710  54.721  1.00  0.00     0.095 A 
HETATM    8  C   UNL     1      28.565  45.113  55.310  1.00  0.00     0.039 A 
HETATM    9  C   UNL     1      28.862  46.472  55.409  1.00  0.00     0.003 A 
HETATM   10  C   UNL     1      27.970  47.418  54.905  1.00  0.00     0.002 A 
HETATM   11  C   UNL     1      26.775  47.015  54.302  1.00  0.00     0.032 A 
BRANCH   7  12
HETATM   12  O   UNL     1      27.035  43.381  54.592  1.00  0.00    -0.354 OA
HETATM   13  C   UNL     1      28.035  42.652  53.876  1.00  0.00     0.210 C 
ENDBRANCH   7  12
ENDBRANCH   3   6
ENDBRANCH   1   2
BRANCH   1  14
HETATM   14  N   UNL     1      24.932  46.642  50.450  1.00  0.00    -0.283 NA
HETATM   15  H   UNL     1      24.250  46.119  49.898  1.00  0.00     0.128 HD
BRANCH  14  16
HETATM   16  C   UNL     1      25.387  47.752  49.719  1.00  0.00     0.019 A 
HETATM   17  C   UNL     1      24.429  48.632  49.122  1.00  0.00    -0.005 A 
HETATM   18  C   UNL     1      24.878  49.748  48.371  1.00  0.00    -0.024 A 
HETATM   19  C   UNL     1      23.029  48.459  49.249  1.00  0.00     0.014 A 
HETATM   20  C   UNL     1      23.949  50.610  47.763  1.00  0.00     0.012 A 
HETATM   21  C   UNL     1      26.251  49.995  48.248  1.00  0.00     0.012 A 
HETATM   22  C   UNL     1      22.577  50.402  47.898  1.00  0.00     0.001 A 
HETATM   23  C   UNL     1      22.117  49.328  48.647  1.00  0.00     0.001 A 
HETATM   24  C   UNL     1      27.178  49.170  48.875  1.00  0.00     0.003 A 
HETATM   25  C   UNL     1      26.748  48.070  49.615  1.00  0.00     0.024 A 
ENDBRANCH  14  16
ENDBRANCH   1  14
TORSDOF 5
ENDMDL
MODEL 9
REMARK VINA RESULT:      -8.4      3.052      4.564
REMARK  5 active torsions:
REMARK  status: ('A' for Active; 'I' for Inactive)
REMARK    1  A    between atoms: O_2  and  C_3 
REMARK    2  A    between atoms: C_4  and  N_5 
REMARK       I    between atoms: N_5  and  C_6 
REMARK    3  A    between atoms: C_6  and  C_7 
REMARK    4  A    between atoms: C_7  and  N_8 
REMARK    5  A    between atoms: N_8  and  C_9 
ROOT
HETATM    1  C   UNL     1      26.548  44.348  51.553  1.00  0.00     0.195 C 
ENDROOT
BRANCH   1   2
HETATM    2  C   UNL     1      25.332  43.420  51.420  1.00  0.00     0.235 C 
HETATM    3  N   UNL     1      25.447  42.186  50.851  1.00  0.00    -0.324 N 
HETATM    4  H   UNL     1      24.772  41.521  51.214  1.00  0.00     0.169 HD
HETATM    5  O   UNL     1      24.279  43.697  52.009  1.00  0.00    -0.272 OA
BRANCH   3   6
HETATM    6  C   UNL     1      26.414  41.634  49.997  1.00  0.00     0.068 A 
HETATM    7  C   UNL     1      27.475  40.926  50.590  1.00  0.00     0.095 A 
HETATM    8  C   UNL     1      28.422  40.269  49.803  1.00  0.00     0.039 A 
HETATM    9  C   UNL     1      28.322  40.325  48.413  1.00  0.00     0.003 A 
HETATM   10  C   UNL     1      27.269  41.020  47.818  1.00  0.00     0.002 A 
HETATM   11  C   UNL     1      26.312  41.666  48.606  1.00  0.00     0.032 A 
BRANCH   7  12
HETATM   12  O   UNL     1      27.527  40.889  51.964  1.00  0.00    -0.354 OA
HETATM   13  C   UNL     1      28.858  40.678  52.441  1.00  0.00     0.210 C 
ENDBRANCH   7  12
ENDBRANCH   3   6
ENDBRANCH   1   2
BRANCH   1  14
HETATM   14  N   UNL     1      27.260  43.976  52.782  1.00  0.00    -0.283 NA
HETATM   15  H   UNL     1      26.831  43.155  53.215  1.00  0.00     0.128 HD
BRANCH  14  16
HETATM   16  C   UNL     1      27.595  44.916  53.770  1.00  0.00     0.019 A 
HETATM   17  C   UNL     1      28.737  44.677  54.599  1.00  0.00    -0.005 A 
HETATM   18  C   UNL     1      29.076  45.614  55.608  1.00  0.00    -0.024 A 
HETATM   19  C   UNL     1      29.574  43.543  54.461  1.00  0.00     0.014 A 
HETATM   20  C   UNL     1      30.184  45.382  56.443  1.00  0.00     0.012 A 
HETATM   21  C   UNL     1      28.311  46.776  55.762  1.00  0.00     0.012 A 
HETATM   22  C   UNL     1      30.978  44.248  56.287  1.00  0.00     0.001 A 
HETATM   23  C   UNL     1      30.676  43.330  55.292  1.00  0.00     0.001 A 
HETATM   24  C   UNL     1      27.235  47.032  54.919  1.00  0.00     0.003 A 
HETATM   25  C   UNL     1      26.892  46.119  53.925  1.00  0.00     0.024 A 
ENDBRANCH  14  16
ENDBRANCH   1  14
TORSDOF 5
ENDMDL
MODEL 10
REMARK VINA RESULT:      -8.2      2.684      4.484
REMARK  5 active torsions:
REMARK  status: ('A' for Active; 'I' for Inactive)
REMARK    1  A    between atoms: O_2  and  C_3 
REMARK    2  A    between atoms: C_4  and  N_5 
REMARK       I    between atoms: N_5  and  C_6 
REMARK    3  A    between atoms: C_6  and  C_7 
REMARK    4  A    between atoms: C_7  and  N_8 
REMARK    5  A    between atoms: N_8  and  C_9 
ROOT
HETATM    1  C   UNL     1      28.594  42.694  52.013  1.00  0.00     0.195 C 
ENDROOT
BRANCH   1   2
HETATM    2  C   UNL     1      27.499  41.897  51.289  1.00  0.00     0.235 C 
HETATM    3  N   UNL     1      26.607  42.517  50.465  1.00  0.00    -0.324 N 
HETATM    4  H   UNL     1      26.268  41.910  49.725  1.00  0.00     0.169 HD
HETATM    5  O   UNL     1      27.539  40.660  51.285  1.00  0.00    -0.272 OA
BRANCH   3   6
HETATM    6  C   UNL     1      26.207  43.857  50.353  1.00  0.00     0.068 A 
HETATM    7  C   UNL     1      24.888  44.174  50.720  1.00  0.00     0.095 A 
HETATM    8  C   UNL     1      24.447  45.498  50.726  1.00  0.00     0.039 A 
HETATM    9  C   UNL     1      25.321  46.517  50.351  1.00  0.00     0.003 A 
HETATM   10  C   UNL     1      26.634  46.212  49.992  1.00  0.00     0.002 A 
HETATM   11  C   UNL     1      27.081  44.887  50.000  1.00  0.00     0.032 A 
BRANCH   7  12
HETATM   12  O   UNL     1      24.063  43.137  51.092  1.00  0.00    -0.354 OA
HETATM   13  C   UNL     1      23.005  42.935  50.153  1.00  0.00     0.210 C 
ENDBRANCH   7  12
ENDBRANCH   3   6
ENDBRANCH   1   2
BRANCH   1  14
HETATM   14  N   UNL     1      28.193  42.825  53.419  1.00  0.00    -0.283 NA
HETATM   15  H   UNL     1      27.177  42.791  53.512  1.00  0.00     0.128 HD
BRANCH  14  16
HETATM   16  C   UNL     1      28.715  43.824  54.259  1.00  0.00     0.019 A 
HETATM   17  C   UNL     1      28.002  45.057  54.399  1.00  0.00    -0.005 A 
HETATM   18  C   UNL     1      28.526  46.076  55.234  1.00  0.00    -0.024 A 
HETATM   19  C   UNL     1      26.772  45.322  53.749  1.00  0.00     0.014 A 
HETATM   20  C   UNL     1      27.847  47.300  55.366  1.00  0.00     0.012 A 
HETATM   21  C   UNL     1      29.717  45.854  55.937  1.00  0.00     0.012 A 
HETATM   22  C   UNL     1      26.644  47.531  54.701  1.00  0.00     0.001 A 
HETATM   23  C   UNL     1      26.103  46.539  53.896  1.00  0.00     0.001 A 
HETATM   24  C   UNL     1      30.378  44.634  55.842  1.00  0.00     0.003 A 
HETATM   25  C   UNL     1      29.873  43.626  55.024  1.00  0.00     0.024 A 
ENDBRANCH  14  16
ENDBRANCH   1  14
TORSDOF 5
ENDMDL
