MODEL 1
REMARK VINA RESULT:     -10.1      0.000      0.000
REMARK  8 active torsions:
REMARK  status: ('A' for Active; 'I' for Inactive)
REMARK    1  A    between atoms: C_2  and  S_3 
REMARK    2  A    between atoms: S_3  and  C_4 
REMARK    3  A    between atoms: C_4  and  C_5 
REMARK    4  A    between atoms: C_8  and  C_9 
REMARK    5  A    between atoms: C_10  and  C_11 
REMARK    6  A    between atoms: C_23  and  N_24 
REMARK       I    between atoms: N_24  and  C_25 
REMARK    7  A    between atoms: C_25  and  C_26 
REMARK    8  A    between atoms: C_26  and  C_27 
ROOT
HETATM    1  C   UNL     1      21.254  49.974  48.367  1.00  0.00    -0.035 A 
HETATM    2  C   UNL     1      21.747  48.740  48.811  1.00  0.00     0.030 A 
HETATM    3  C   UNL     1      23.125  48.452  48.810  1.00  0.00     0.059 A 
HETATM    4  C   UNL     1      24.032  49.425  48.371  1.00  0.00     0.050 A 
HETATM    5  N   UNL     1      25.435  49.333  48.412  1.00  0.00    -0.324 N 
HETATM    6  C   UNL     1      26.216  48.673  49.326  1.00  0.00     0.245 C 
HETATM    7  O   UNL     1      27.419  48.942  49.348  1.00  0.00    -0.271 OA
HETATM    8  C   UNL     1      25.532  47.831  50.401  1.00  0.00     0.182 C 
HETATM    9  N   UNL     1      24.680  46.818  49.797  1.00  0.00    -0.332 N 
HETATM   10  C   UNL     1      23.486  47.056  49.167  1.00  0.00     0.256 C 
HETATM   11  O   UNL     1      22.694  46.155  48.902  1.00  0.00    -0.267 OA
HETATM   12  C   UNL     1      26.528  47.052  51.273  1.00  0.00     0.061 C 
HETATM   13  C   UNL     1      25.807  45.727  51.537  1.00  0.00     0.105 C 
HETATM   14  C   UNL     1      25.062  45.481  50.225  1.00  0.00     0.152 C 
HETATM   15  C   UNL     1      23.530  50.631  47.857  1.00  0.00     0.031 A 
HETATM   16  C   UNL     1      22.159  50.912  47.874  1.00  0.00     0.013 A 
HETATM   17  H   UNL     1      25.975  50.007  47.884  1.00  0.00     0.169 HD
ENDROOT
BRANCH   1  18
HETATM   18  C   UNL     1      19.837  50.331  48.511  1.00  0.00     0.012 C 
HETATM   19  C   UNL     1      19.415  51.566  48.825  1.00  0.00     0.012 C 
BRANCH  19  20
HETATM   20  C   UNL     1      18.006  51.984  48.815  1.00  0.00    -0.036 A 
HETATM   21  C   UNL     1      17.497  52.692  49.909  1.00  0.00     0.012 A 
HETATM   22  C   UNL     1      16.210  53.234  49.869  1.00  0.00     0.009 A 
HETATM   23  C   UNL     1      15.410  53.091  48.727  1.00  0.00    -0.049 A 
HETATM   24  C   UNL     1      15.913  52.369  47.637  1.00  0.00     0.009 A 
HETATM   25  C   UNL     1      17.199  51.822  47.681  1.00  0.00     0.012 A 
BRANCH  23  26
HETATM   26  C   UNL     1      14.068  53.773  48.645  1.00  0.00     0.112 C 
BRANCH  26  27
HETATM   27  S   UNL     1      13.702  54.661  50.195  1.00  0.00    -0.165 SA
BRANCH  27  28
HETATM   28  C   UNL     1      14.151  56.340  49.672  1.00  0.00     0.069 C 
HETATM   29  C   UNL     1      15.267  56.868  50.557  1.00  0.00     0.016 C 
ENDBRANCH  27  28
ENDBRANCH  26  27
ENDBRANCH  23  26
ENDBRANCH  19  20
ENDBRANCH   1  18
BRANCH  13  30
HETATM   30  N   UNL     1      26.644  44.642  52.015  1.00  0.00    -0.355 N 
HETATM   31  C   UNL     1      26.434  43.955  53.188  1.00  0.00     0.222 C 
HETATM   32  O   UNL     1      25.484  44.204  53.929  1.00  0.00    -0.273 OA
HETATM   33  H   UNL     1      27.506  44.469  51.508  1.00  0.00     0.162 HD
BRANCH  31  34
HETATM   34  C   UNL     1      27.444  42.883  53.583  1.00  0.00     0.148 C 
BRANCH  34  35
HETATM   35  C   UNL     1      28.619  43.385  54.369  1.00  0.00    -0.009 A 
HETATM   36  S   UNL     1      28.582  44.953  55.066  1.00  0.00    -0.106 SA
HETATM   37  C   UNL     1      30.141  44.761  55.738  1.00  0.00     0.050 A 
HETATM   38  C   UNL     1      30.681  43.530  55.445  1.00  0.00     0.008 A 
HETATM   39  C   UNL     1      29.803  42.734  54.654  1.00  0.00     0.015 A 
ENDBRANCH  34  35
ENDBRANCH  31  34
ENDBRANCH  13  30
TORSDOF 8
ENDMDL
MODEL 2
REMARK VINA RESULT:      -9.4      2.841     12.865
REMARK  8 active torsions:
REMARK  status: ('A' for Active; 'I' for Inactive)
REMARK    1  A    between atoms: C_2  and  S_3 
REMARK    2  A    between atoms: S_3  and  C_4 
REMARK    3  A    between atoms: C_4  and  C_5 
REMARK    4  A    between atoms: C_8  and  C_9 
REMARK    5  A    between atoms: C_10  and  C_11 
REMARK    6  A    between atoms: C_23  and  N_24 
REMARK       I    between atoms: N_24  and  C_25 
REMARK    7  A    between atoms: C_25  and  C_26 
REMARK    8  A    between atoms: C_26  and  C_27 
ROOT
HETATM    1  C   UNL     1      24.685  46.842  50.330  1.00  0.00    -0.035 A 
HETATM    2  C   UNL     1      23.847  47.932  50.064  1.00  0.00     0.030 A 
HETATM    3  C   UNL     1      22.784  47.840  49.146  1.00  0.00     0.059 A 
HETATM    4  C   UNL     1      22.543  46.626  48.490  1.00  0.00     0.050 A 
HETATM    5  N   UNL     1      21.463  46.343  47.636  1.00  0.00    -0.324 N 
HETATM    6  C   UNL     1      20.188  46.846  47.684  1.00  0.00     0.245 C 
HETATM    7  O   UNL     1      19.322  46.268  47.023  1.00  0.00    -0.271 OA
HETATM    8  C   UNL     1      19.866  47.930  48.710  1.00  0.00     0.182 C 
HETATM    9  N   UNL     1      20.744  49.078  48.539  1.00  0.00    -0.332 N 
HETATM   10  C   UNL     1      22.077  49.114  48.858  1.00  0.00     0.256 C 
HETATM   11  O   UNL     1      22.705  50.168  48.931  1.00  0.00    -0.267 OA
HETATM   12  C   UNL     1      18.443  48.487  48.566  1.00  0.00     0.061 C 
HETATM   13  C   UNL     1      18.608  49.974  48.890  1.00  0.00     0.105 C 
HETATM   14  C   UNL     1      19.983  50.295  48.305  1.00  0.00     0.152 C 
HETATM   15  C   UNL     1      23.430  45.559  48.703  1.00  0.00     0.031 A 
HETATM   16  C   UNL     1      24.477  45.657  49.627  1.00  0.00     0.013 A 
HETATM   17  H   UNL     1      21.508  45.506  47.068  1.00  0.00     0.169 HD
ENDROOT
BRANCH   1  18
HETATM   18  C   UNL     1      25.695  46.891  51.395  1.00  0.00     0.012 C 
HETATM   19  C   UNL     1      25.592  46.200  52.542  1.00  0.00     0.012 C 
BRANCH  19  20
HETATM   20  C   UNL     1      26.660  46.106  53.547  1.00  0.00    -0.036 A 
HETATM   21  C   UNL     1      27.380  44.912  53.666  1.00  0.00     0.012 A 
HETATM   22  C   UNL     1      28.496  44.835  54.503  1.00  0.00     0.009 A 
HETATM   23  C   UNL     1      28.924  45.956  55.227  1.00  0.00    -0.049 A 
HETATM   24  C   UNL     1      28.194  47.147  55.121  1.00  0.00     0.009 A 
HETATM   25  C   UNL     1      27.074  47.220  54.288  1.00  0.00     0.012 A 
BRANCH  23  26
HETATM   26  C   UNL     1      30.193  45.902  56.040  1.00  0.00     0.112 C 
BRANCH  26  27
HETATM   27  S   UNL     1      29.812  45.825  57.822  1.00  0.00    -0.165 SA
BRANCH  27  28
HETATM   28  C   UNL     1      31.132  44.695  58.346  1.00  0.00     0.069 C 
HETATM   29  C   UNL     1      31.584  43.856  57.162  1.00  0.00     0.016 C 
ENDBRANCH  27  28
ENDBRANCH  26  27
ENDBRANCH  23  26
ENDBRANCH  19  20
ENDBRANCH   1  18
BRANCH  13  30
HETATM   30  N   UNL     1      17.515  50.832  48.474  1.00  0.00    -0.355 N 
HETATM   31  C   UNL     1      17.000  51.859  49.231  1.00  0.00     0.222 C 
HETATM   32  O   UNL     1      17.453  52.146  50.338  1.00  0.00    -0.273 OA
HETATM   33  H   UNL     1      17.025  50.573  47.624  1.00  0.00     0.162 HD
BRANCH  31  34
HETATM   34  C   UNL     1      15.805  52.628  48.678  1.00  0.00     0.148 C 
BRANCH  34  35
HETATM   35  C   UNL     1      15.222  53.644  49.617  1.00  0.00    -0.009 A 
HETATM   36  S   UNL     1      13.968  53.196  50.700  1.00  0.00    -0.106 SA
HETATM   37  C   UNL     1      13.891  54.769  51.363  1.00  0.00     0.050 A 
HETATM   38  C   UNL     1      14.802  55.620  50.780  1.00  0.00     0.008 A 
HETATM   39  C   UNL     1      15.572  54.971  49.771  1.00  0.00     0.015 A 
ENDBRANCH  34  35
ENDBRANCH  31  34
ENDBRANCH  13  30
TORSDOF 8
ENDMDL
MODEL 3
REMARK VINA RESULT:      -9.3      1.684      1.977
REMARK  8 active torsions:
REMARK  status: ('A' for Active; 'I' for Inactive)
REMARK    1  A    between atoms: C_2  and  S_3 
REMARK    2  A    between atoms: S_3  and  C_4 
REMARK    3  A    between atoms: C_4  and  C_5 
REMARK    4  A    between atoms: C_8  and  C_9 
REMARK    5  A    between atoms: C_10  and  C_11 
REMARK    6  A    between atoms: C_23  and  N_24 
REMARK       I    between atoms: N_24  and  C_25 
REMARK    7  A    between atoms: C_25  and  C_26 
REMARK    8  A    between atoms: C_26  and  C_27 
ROOT
HETATM    1  C   UNL     1      20.649  50.233  48.452  1.00  0.00    -0.035 A 
HETATM    2  C   UNL     1      21.078  48.917  48.667  1.00  0.00     0.030 A 
HETATM    3  C   UNL     1      22.444  48.576  48.666  1.00  0.00     0.059 A 
HETATM    4  C   UNL     1      23.404  49.575  48.462  1.00  0.00     0.050 A 
HETATM    5  N   UNL     1      24.798  49.417  48.543  1.00  0.00    -0.324 N 
HETATM    6  C   UNL     1      25.511  48.560  49.342  1.00  0.00     0.245 C 
HETATM    7  O   UNL     1      26.721  48.768  49.465  1.00  0.00    -0.271 OA
HETATM    8  C   UNL     1      24.748  47.557  50.204  1.00  0.00     0.182 C 
HETATM    9  N   UNL     1      23.892  46.717  49.379  1.00  0.00    -0.332 N 
HETATM   10  C   UNL     1      22.739  47.123  48.760  1.00  0.00     0.256 C 
HETATM   11  O   UNL     1      21.930  46.325  48.291  1.00  0.00    -0.267 OA
HETATM   12  C   UNL     1      25.673  46.582  50.947  1.00  0.00     0.061 C 
HETATM   13  C   UNL     1      24.896  45.263  50.919  1.00  0.00     0.105 C 
HETATM   14  C   UNL     1      24.207  45.308  49.555  1.00  0.00     0.152 C 
HETATM   15  C   UNL     1      22.968  50.878  48.173  1.00  0.00     0.031 A 
HETATM   16  C   UNL     1      21.608  51.209  48.188  1.00  0.00     0.013 A 
HETATM   17  H   UNL     1      25.386  50.156  48.179  1.00  0.00     0.169 HD
ENDROOT
BRANCH   1  18
HETATM   18  C   UNL     1      19.240  50.616  48.604  1.00  0.00     0.012 C 
HETATM   19  C   UNL     1      18.845  51.821  49.047  1.00  0.00     0.012 C 
BRANCH  19  20
HETATM   20  C   UNL     1      17.450  52.282  49.053  1.00  0.00    -0.036 A 
HETATM   21  C   UNL     1      17.021  53.141  50.069  1.00  0.00     0.012 A 
HETATM   22  C   UNL     1      15.749  53.717  50.025  1.00  0.00     0.009 A 
HETATM   23  C   UNL     1      14.884  53.455  48.952  1.00  0.00    -0.049 A 
HETATM   24  C   UNL     1      15.307  52.582  47.942  1.00  0.00     0.009 A 
HETATM   25  C   UNL     1      16.578  52.002  47.993  1.00  0.00     0.012 A 
BRANCH  23  26
HETATM   26  C   UNL     1      13.558  54.165  48.850  1.00  0.00     0.112 C 
BRANCH  26  27
HETATM   27  S   UNL     1      13.783  55.858  48.209  1.00  0.00    -0.165 SA
BRANCH  27  28
HETATM   28  C   UNL     1      13.045  55.640  46.566  1.00  0.00     0.069 C 
HETATM   29  C   UNL     1      14.111  55.187  45.584  1.00  0.00     0.016 C 
ENDBRANCH  27  28
ENDBRANCH  26  27
ENDBRANCH  23  26
ENDBRANCH  19  20
ENDBRANCH   1  18
BRANCH  13  30
HETATM   30  N   UNL     1      25.671  44.072  51.210  1.00  0.00    -0.355 N 
HETATM   31  C   UNL     1      26.764  43.658  50.484  1.00  0.00     0.222 C 
HETATM   32  O   UNL     1      27.188  44.295  49.520  1.00  0.00    -0.273 OA
HETATM   33  H   UNL     1      25.303  43.446  51.919  1.00  0.00     0.162 HD
BRANCH  31  34
HETATM   34  C   UNL     1      27.434  42.346  50.880  1.00  0.00     0.148 C 
BRANCH  34  35
HETATM   35  C   UNL     1      28.339  42.437  52.073  1.00  0.00    -0.009 A 
HETATM   36  S   UNL     1      28.318  41.204  53.266  1.00  0.00    -0.106 SA
HETATM   37  C   UNL     1      29.533  41.981  54.182  1.00  0.00     0.050 A 
HETATM   38  C   UNL     1      29.953  43.152  53.595  1.00  0.00     0.008 A 
HETATM   39  C   UNL     1      29.264  43.417  52.375  1.00  0.00     0.015 A 
ENDBRANCH  34  35
ENDBRANCH  31  34
ENDBRANCH  13  30
TORSDOF 8
ENDMDL
MODEL 4
REMARK VINA RESULT:      -9.2      2.230      2.873
REMARK  8 active torsions:
REMARK  status: ('A' for Active; 'I' for Inactive)
REMARK    1  A    between atoms: C_2  and  S_3 
REMARK    2  A    between atoms: S_3  and  C_4 
REMARK    3  A    between atoms: C_4  and  C_5 
REMARK    4  A    between atoms: C_8  and  C_9 
REMARK    5  A    between atoms: C_10  and  C_11 
REMARK    6  A    between atoms: C_23  and  N_24 
REMARK       I    between atoms: N_24  and  C_25 
REMARK    7  A    between atoms: C_25  and  C_26 
REMARK    8  A    between atoms: C_26  and  C_27 
ROOT
HETATM    1  C   UNL     1      21.696  50.474  48.395  1.00  0.00    -0.035 A 
HETATM    2  C   UNL     1      21.927  49.151  48.792  1.00  0.00     0.030 A 
HETATM    3  C   UNL     1      23.229  48.621  48.873  1.00  0.00     0.059 A 
HETATM    4  C   UNL     1      24.326  49.436  48.567  1.00  0.00     0.050 A 
HETATM    5  N   UNL     1      25.682  49.093  48.706  1.00  0.00    -0.324 N 
HETATM    6  C   UNL     1      26.256  48.257  49.630  1.00  0.00     0.245 C 
HETATM    7  O   UNL     1      27.481  48.305  49.758  1.00  0.00    -0.271 OA
HETATM    8  C   UNL     1      25.348  47.497  50.594  1.00  0.00     0.182 C 
HETATM    9  N   UNL     1      24.386  46.686  49.863  1.00  0.00    -0.332 N 
HETATM   10  C   UNL     1      23.309  47.167  49.164  1.00  0.00     0.256 C 
HETATM   11  O   UNL     1      22.397  46.437  48.782  1.00  0.00    -0.267 OA
HETATM   12  C   UNL     1      26.114  46.508  51.484  1.00  0.00     0.061 C 
HETATM   13  C   UNL     1      25.154  45.322  51.606  1.00  0.00     0.105 C 
HETATM   14  C   UNL     1      24.491  45.282  50.230  1.00  0.00     0.152 C 
HETATM   15  C   UNL     1      24.086  50.738  48.098  1.00  0.00     0.031 A 
HETATM   16  C   UNL     1      22.789  51.259  48.032  1.00  0.00     0.013 A 
HETATM   17  H   UNL     1      26.374  49.685  48.265  1.00  0.00     0.169 HD
ENDROOT
BRANCH   1  18
HETATM   18  C   UNL     1      20.356  51.072  48.456  1.00  0.00     0.012 C 
HETATM   19  C   UNL     1      19.308  50.478  49.049  1.00  0.00     0.012 C 
BRANCH  19  20
HETATM   20  C   UNL     1      18.006  51.124  49.264  1.00  0.00    -0.036 A 
HETATM   21  C   UNL     1      17.964  52.387  49.864  1.00  0.00     0.012 A 
HETATM   22  C   UNL     1      16.762  53.095  49.948  1.00  0.00     0.009 A 
HETATM   23  C   UNL     1      15.579  52.558  49.420  1.00  0.00    -0.049 A 
HETATM   24  C   UNL     1      15.618  51.287  48.834  1.00  0.00     0.009 A 
HETATM   25  C   UNL     1      16.821  50.578  48.756  1.00  0.00     0.012 A 
BRANCH  23  26
HETATM   26  C   UNL     1      14.309  53.371  49.411  1.00  0.00     0.112 C 
BRANCH  26  27
HETATM   27  S   UNL     1      14.627  55.066  50.004  1.00  0.00    -0.165 SA
BRANCH  27  28
HETATM   28  C   UNL     1      13.128  55.304  50.999  1.00  0.00     0.069 C 
HETATM   29  C   UNL     1      11.939  54.684  50.286  1.00  0.00     0.016 C 
ENDBRANCH  27  28
ENDBRANCH  26  27
ENDBRANCH  23  26
ENDBRANCH  19  20
ENDBRANCH   1  18
BRANCH  13  30
HETATM   30  N   UNL     1      25.746  44.082  52.072  1.00  0.00    -0.355 N 
HETATM   31  C   UNL     1      26.749  43.405  51.419  1.00  0.00     0.222 C 
HETATM   32  O   UNL     1      27.245  43.822  50.373  1.00  0.00    -0.273 OA
HETATM   33  H   UNL     1      25.301  43.630  52.865  1.00  0.00     0.162 HD
BRANCH  31  34
HETATM   34  C   UNL     1      27.220  42.078  52.005  1.00  0.00     0.148 C 
BRANCH  34  35
HETATM   35  C   UNL     1      27.207  40.926  51.044  1.00  0.00    -0.009 A 
HETATM   36  S   UNL     1      28.651  40.055  50.724  1.00  0.00    -0.106 SA
HETATM   37  C   UNL     1      27.851  38.999  49.645  1.00  0.00     0.050 A 
HETATM   38  C   UNL     1      26.512  39.296  49.530  1.00  0.00     0.008 A 
HETATM   39  C   UNL     1      26.139  40.409  50.338  1.00  0.00     0.015 A 
ENDBRANCH  34  35
ENDBRANCH  31  34
ENDBRANCH  13  30
TORSDOF 8
ENDMDL
MODEL 5
REMARK VINA RESULT:      -9.0      3.381     12.771
REMARK  8 active torsions:
REMARK  status: ('A' for Active; 'I' for Inactive)
REMARK    1  A    between atoms: C_2  and  S_3 
REMARK    2  A    between atoms: S_3  and  C_4 
REMARK    3  A    between atoms: C_4  and  C_5 
REMARK    4  A    between atoms: C_8  and  C_9 
REMARK    5  A    between atoms: C_10  and  C_11 
REMARK    6  A    between atoms: C_23  and  N_24 
REMARK       I    between atoms: N_24  and  C_25 
REMARK    7  A    between atoms: C_25  and  C_26 
REMARK    8  A    between atoms: C_26  and  C_27 
ROOT
HETATM    1  C   UNL     1      24.737  45.054  50.033  1.00  0.00    -0.035 A 
HETATM    2  C   UNL     1      23.906  46.128  49.690  1.00  0.00     0.030 A 
HETATM    3  C   UNL     1      22.796  45.961  48.840  1.00  0.00     0.059 A 
HETATM    4  C   UNL     1      22.500  44.689  48.334  1.00  0.00     0.050 A 
HETATM    5  N   UNL     1      21.373  44.340  47.570  1.00  0.00    -0.324 N 
HETATM    6  C   UNL     1      20.112  44.875  47.623  1.00  0.00     0.245 C 
HETATM    7  O   UNL     1      19.203  44.249  47.073  1.00  0.00    -0.271 OA
HETATM    8  C   UNL     1      19.862  46.071  48.539  1.00  0.00     0.182 C 
HETATM    9  N   UNL     1      20.750  47.173  48.199  1.00  0.00    -0.332 N 
HETATM   10  C   UNL     1      22.098  47.213  48.448  1.00  0.00     0.256 C 
HETATM   11  O   UNL     1      22.748  48.253  48.374  1.00  0.00    -0.267 OA
HETATM   12  C   UNL     1      18.443  46.643  48.402  1.00  0.00     0.061 C 
HETATM   13  C   UNL     1      18.651  48.152  48.553  1.00  0.00     0.105 C 
HETATM   14  C   UNL     1      20.001  48.375  47.870  1.00  0.00     0.152 C 
HETATM   15  C   UNL     1      23.378  43.630  48.620  1.00  0.00     0.031 A 
HETATM   16  C   UNL     1      24.471  43.805  49.476  1.00  0.00     0.013 A 
HETATM   17  H   UNL     1      21.374  43.445  47.096  1.00  0.00     0.169 HD
ENDROOT
BRANCH   1  18
HETATM   18  C   UNL     1      25.799  45.195  51.037  1.00  0.00     0.012 C 
HETATM   19  C   UNL     1      25.599  45.720  52.256  1.00  0.00     0.012 C 
BRANCH  19  20
HETATM   20  C   UNL     1      26.604  45.722  53.329  1.00  0.00    -0.036 A 
HETATM   21  C   UNL     1      27.403  44.589  53.515  1.00  0.00     0.012 A 
HETATM   22  C   UNL     1      28.465  44.609  54.423  1.00  0.00     0.009 A 
HETATM   23  C   UNL     1      28.758  45.770  55.153  1.00  0.00    -0.049 A 
HETATM   24  C   UNL     1      27.948  46.899  54.978  1.00  0.00     0.009 A 
HETATM   25  C   UNL     1      26.882  46.874  54.074  1.00  0.00     0.012 A 
BRANCH  23  26
HETATM   26  C   UNL     1      29.972  45.824  56.046  1.00  0.00     0.112 C 
BRANCH  26  27
HETATM   27  S   UNL     1      30.894  44.252  55.972  1.00  0.00    -0.165 SA
BRANCH  27  28
HETATM   28  C   UNL     1      31.394  44.135  57.713  1.00  0.00     0.069 C 
HETATM   29  C   UNL     1      30.750  45.260  58.505  1.00  0.00     0.016 C 
ENDBRANCH  27  28
ENDBRANCH  26  27
ENDBRANCH  23  26
ENDBRANCH  19  20
ENDBRANCH   1  18
BRANCH  13  30
HETATM   30  N   UNL     1      17.554  48.985  48.098  1.00  0.00    -0.355 N 
HETATM   31  C   UNL     1      17.210  50.193  48.659  1.00  0.00     0.222 C 
HETATM   32  O   UNL     1      17.835  50.678  49.601  1.00  0.00    -0.273 OA
HETATM   33  H   UNL     1      16.932  48.586  47.403  1.00  0.00     0.162 HD
BRANCH  31  34
HETATM   34  C   UNL     1      15.987  50.918  48.107  1.00  0.00     0.148 C 
BRANCH  34  35
HETATM   35  C   UNL     1      16.220  51.652  46.819  1.00  0.00    -0.009 A 
HETATM   36  S   UNL     1      14.892  52.085  45.822  1.00  0.00    -0.106 SA
HETATM   37  C   UNL     1      15.914  52.832  44.675  1.00  0.00     0.050 A 
HETATM   38  C   UNL     1      17.239  52.760  45.040  1.00  0.00     0.008 A 
HETATM   39  C   UNL     1      17.417  52.079  46.279  1.00  0.00     0.015 A 
ENDBRANCH  34  35
ENDBRANCH  31  34
ENDBRANCH  13  30
TORSDOF 8
ENDMDL
MODEL 6
REMARK VINA RESULT:      -8.9      3.496     13.005
REMARK  8 active torsions:
REMARK  status: ('A' for Active; 'I' for Inactive)
REMARK    1  A    between atoms: C_2  and  S_3 
REMARK    2  A    between atoms: S_3  and  C_4 
REMARK    3  A    between atoms: C_4  and  C_5 
REMARK    4  A    between atoms: C_8  and  C_9 
REMARK    5  A    between atoms: C_10  and  C_11 
REMARK    6  A    between atoms: C_23  and  N_24 
REMARK       I    between atoms: N_24  and  C_25 
REMARK    7  A    between atoms: C_25  and  C_26 
REMARK    8  A    between atoms: C_26  and  C_27 
ROOT
HETATM    1  C   UNL     1      22.523  47.689  48.567  1.00  0.00    -0.035 A 
HETATM    2  C   UNL     1      21.969  48.961  48.750  1.00  0.00     0.030 A 
HETATM    3  C   UNL     1      20.793  49.358  48.085  1.00  0.00     0.059 A 
HETATM    4  C   UNL     1      20.147  48.457  47.230  1.00  0.00     0.050 A 
HETATM    5  N   UNL     1      18.915  48.660  46.584  1.00  0.00    -0.324 N 
HETATM    6  C   UNL     1      17.838  49.389  47.019  1.00  0.00     0.245 C 
HETATM    7  O   UNL     1      16.762  49.216  46.443  1.00  0.00    -0.271 OA
HETATM    8  C   UNL     1      17.969  50.184  48.316  1.00  0.00     0.182 C 
HETATM    9  N   UNL     1      19.080  51.121  48.236  1.00  0.00    -0.332 N 
HETATM   10  C   UNL     1      20.408  50.782  48.263  1.00  0.00     0.256 C 
HETATM   11  O   UNL     1      21.294  51.615  48.445  1.00  0.00    -0.267 OA
HETATM   12  C   UNL     1      16.735  51.049  48.614  1.00  0.00     0.061 C 
HETATM   13  C   UNL     1      17.330  52.315  49.236  1.00  0.00     0.105 C 
HETATM   14  C   UNL     1      18.638  52.487  48.463  1.00  0.00     0.152 C 
HETATM   15  C   UNL     1      20.746  47.209  46.990  1.00  0.00     0.031 A 
HETATM   16  C   UNL     1      21.909  46.820  47.666  1.00  0.00     0.013 A 
HETATM   17  H   UNL     1      18.654  48.025  45.839  1.00  0.00     0.169 HD
ENDROOT
BRANCH   1  18
HETATM   18  C   UNL     1      23.658  47.221  49.373  1.00  0.00     0.012 C 
HETATM   19  C   UNL     1      23.826  45.940  49.739  1.00  0.00     0.012 C 
BRANCH  19  20
HETATM   20  C   UNL     1      25.031  45.424  50.403  1.00  0.00    -0.036 A 
HETATM   21  C   UNL     1      24.914  44.843  51.671  1.00  0.00     0.012 A 
HETATM   22  C   UNL     1      26.007  44.209  52.266  1.00  0.00     0.009 A 
HETATM   23  C   UNL     1      27.238  44.130  51.599  1.00  0.00    -0.049 A 
HETATM   24  C   UNL     1      27.359  44.725  50.337  1.00  0.00     0.009 A 
HETATM   25  C   UNL     1      26.266  45.365  49.746  1.00  0.00     0.012 A 
BRANCH  23  26
HETATM   26  C   UNL     1      28.381  43.348  52.194  1.00  0.00     0.112 C 
BRANCH  26  27
HETATM   27  S   UNL     1      28.054  42.967  53.948  1.00  0.00    -0.165 SA
BRANCH  27  28
HETATM   28  C   UNL     1      29.238  44.111  54.711  1.00  0.00     0.069 C 
HETATM   29  C   UNL     1      30.480  43.348  55.140  1.00  0.00     0.016 C 
ENDBRANCH  27  28
ENDBRANCH  26  27
ENDBRANCH  23  26
ENDBRANCH  19  20
ENDBRANCH   1  18
BRANCH  13  30
HETATM   30  N   UNL     1      16.450  53.468  49.276  1.00  0.00    -0.355 N 
HETATM   31  C   UNL     1      15.200  53.472  49.851  1.00  0.00     0.222 C 
HETATM   32  O   UNL     1      14.732  52.477  50.405  1.00  0.00    -0.273 OA
HETATM   33  H   UNL     1      16.730  54.280  48.737  1.00  0.00     0.162 HD
BRANCH  31  34
HETATM   34  C   UNL     1      14.369  54.747  49.753  1.00  0.00     0.148 C 
BRANCH  34  35
HETATM   35  C   UNL     1      14.681  55.782  50.795  1.00  0.00    -0.009 A 
HETATM   36  S   UNL     1      14.560  55.390  52.461  1.00  0.00    -0.106 SA
HETATM   37  C   UNL     1      15.052  56.957  52.931  1.00  0.00     0.050 A 
HETATM   38  C   UNL     1      15.310  57.764  51.847  1.00  0.00     0.008 A 
HETATM   39  C   UNL     1      15.096  57.086  50.611  1.00  0.00     0.015 A 
ENDBRANCH  34  35
ENDBRANCH  31  34
ENDBRANCH  13  30
TORSDOF 8
ENDMDL
MODEL 7
REMARK VINA RESULT:      -8.6      3.237     13.171
REMARK  8 active torsions:
REMARK  status: ('A' for Active; 'I' for Inactive)
REMARK    1  A    between atoms: C_2  and  S_3 
REMARK    2  A    between atoms: S_3  and  C_4 
REMARK    3  A    between atoms: C_4  and  C_5 
REMARK    4  A    between atoms: C_8  and  C_9 
REMARK    5  A    between atoms: C_10  and  C_11 
REMARK    6  A    between atoms: C_23  and  N_24 
REMARK       I    between atoms: N_24  and  C_25 
REMARK    7  A    between atoms: C_25  and  C_26 
REMARK    8  A    between atoms: C_26  and  C_27 
ROOT
HETATM    1  C   UNL     1      23.568  47.729  49.428  1.00  0.00    -0.035 A 
HETATM    2  C   UNL     1      22.911  48.966  49.434  1.00  0.00     0.030 A 
HETATM    3  C   UNL     1      21.775  49.203  48.638  1.00  0.00     0.059 A 
HETATM    4  C   UNL     1      21.273  48.175  47.830  1.00  0.00     0.050 A 
HETATM    5  N   UNL     1      20.092  48.218  47.069  1.00  0.00    -0.324 N 
HETATM    6  C   UNL     1      18.932  48.898  47.338  1.00  0.00     0.245 C 
HETATM    7  O   UNL     1      17.926  48.587  46.696  1.00  0.00    -0.271 OA
HETATM    8  C   UNL     1      18.890  49.823  48.553  1.00  0.00     0.182 C 
HETATM    9  N   UNL     1      19.936  50.831  48.467  1.00  0.00    -0.332 N 
HETATM   10  C   UNL     1      21.277  50.602  48.637  1.00  0.00     0.256 C 
HETATM   11  O   UNL     1      22.082  51.516  48.805  1.00  0.00    -0.267 OA
HETATM   12  C   UNL     1      17.577  50.612  48.659  1.00  0.00     0.061 C 
HETATM   13  C   UNL     1      18.024  51.975  49.194  1.00  0.00     0.105 C 
HETATM   14  C   UNL     1      19.380  52.175  48.517  1.00  0.00     0.152 C 
HETATM   15  C   UNL     1      21.976  46.962  47.769  1.00  0.00     0.031 A 
HETATM   16  C   UNL     1      23.099  46.732  48.574  1.00  0.00     0.013 A 
HETATM   17  H   UNL     1      19.943  47.496  46.374  1.00  0.00     0.169 HD
ENDROOT
BRANCH   1  18
HETATM   18  C   UNL     1      24.657  47.432  50.367  1.00  0.00     0.012 C 
HETATM   19  C   UNL     1      24.660  46.363  51.180  1.00  0.00     0.012 C 
BRANCH  19  20
HETATM   20  C   UNL     1      25.806  45.959  52.007  1.00  0.00    -0.036 A 
HETATM   21  C   UNL     1      26.065  46.649  53.196  1.00  0.00     0.012 A 
HETATM   22  C   UNL     1      27.050  46.199  54.079  1.00  0.00     0.009 A 
HETATM   23  C   UNL     1      27.788  45.041  53.796  1.00  0.00    -0.049 A 
HETATM   24  C   UNL     1      27.540  44.359  52.598  1.00  0.00     0.009 A 
HETATM   25  C   UNL     1      26.558  44.814  51.713  1.00  0.00     0.012 A 
BRANCH  23  26
HETATM   26  C   UNL     1      28.769  44.496  54.803  1.00  0.00     0.112 C 
BRANCH  26  27
HETATM   27  S   UNL     1      29.534  45.852  55.753  1.00  0.00    -0.165 SA
BRANCH  27  28
HETATM   28  C   UNL     1      30.544  44.865  56.893  1.00  0.00     0.069 C 
HETATM   29  C   UNL     1      31.102  43.656  56.162  1.00  0.00     0.016 C 
ENDBRANCH  27  28
ENDBRANCH  26  27
ENDBRANCH  23  26
ENDBRANCH  19  20
ENDBRANCH   1  18
BRANCH  13  30
HETATM   30  N   UNL     1      17.065  53.053  49.045  1.00  0.00    -0.355 N 
HETATM   31  C   UNL     1      15.747  52.981  49.432  1.00  0.00     0.222 C 
HETATM   32  O   UNL     1      15.277  51.977  49.966  1.00  0.00    -0.273 OA
HETATM   33  H   UNL     1      17.361  53.861  48.508  1.00  0.00     0.162 HD
BRANCH  31  34
HETATM   34  C   UNL     1      14.848  54.179  49.146  1.00  0.00     0.148 C 
BRANCH  34  35
HETATM   35  C   UNL     1      14.425  54.320  47.713  1.00  0.00    -0.009 A 
HETATM   36  S   UNL     1      14.728  53.052  46.598  1.00  0.00    -0.106 SA
HETATM   37  C   UNL     1      13.993  53.914  45.320  1.00  0.00     0.050 A 
HETATM   38  C   UNL     1      13.521  55.141  45.728  1.00  0.00     0.008 A 
HETATM   39  C   UNL     1      13.770  55.376  47.112  1.00  0.00     0.015 A 
ENDBRANCH  34  35
ENDBRANCH  31  34
ENDBRANCH  13  30
TORSDOF 8
ENDMDL
MODEL 8
REMARK VINA RESULT:      -8.2      7.905     11.539
REMARK  8 active torsions:
REMARK  status: ('A' for Active; 'I' for Inactive)
REMARK    1  A    between atoms: C_2  and  S_3 
REMARK    2  A    between atoms: S_3  and  C_4 
REMARK    3  A    between atoms: C_4  and  C_5 
REMARK    4  A    between atoms: C_8  and  C_9 
REMARK    5  A    between atoms: C_10  and  C_11 
REMARK    6  A    between atoms: C_23  and  N_24 
REMARK       I    between atoms: N_24  and  C_25 
REMARK    7  A    between atoms: C_25  and  C_26 
REMARK    8  A    between atoms: C_26  and  C_27 
ROOT
HETATM    1  C   UNL     1      21.806  40.475  47.066  1.00  0.00    -0.035 A 
HETATM    2  C   UNL     1      22.900  40.770  47.889  1.00  0.00     0.030 A 
HETATM    3  C   UNL     1      23.359  42.090  48.062  1.00  0.00     0.059 A 
HETATM    4  C   UNL     1      22.700  43.140  47.410  1.00  0.00     0.050 A 
HETATM    5  N   UNL     1      22.964  44.512  47.566  1.00  0.00    -0.324 N 
HETATM    6  C   UNL     1      23.412  45.169  48.683  1.00  0.00     0.245 C 
HETATM    7  O   UNL     1      23.316  46.398  48.699  1.00  0.00    -0.271 OA
HETATM    8  C   UNL     1      23.784  44.347  49.916  1.00  0.00     0.182 C 
HETATM    9  N   UNL     1      24.808  43.366  49.590  1.00  0.00    -0.332 N 
HETATM   10  C   UNL     1      24.614  42.232  48.844  1.00  0.00     0.256 C 
HETATM   11  O   UNL     1      25.437  41.320  48.811  1.00  0.00    -0.267 OA
HETATM   12  C   UNL     1      24.387  45.199  51.042  1.00  0.00     0.061 C 
HETATM   13  C   UNL     1      25.457  44.285  51.645  1.00  0.00     0.105 C 
HETATM   14  C   UNL     1      25.988  43.537  50.423  1.00  0.00     0.152 C 
HETATM   15  C   UNL     1      21.652  42.832  46.527  1.00  0.00     0.031 A 
HETATM   16  C   UNL     1      21.196  41.518  46.372  1.00  0.00     0.013 A 
HETATM   17  H   UNL     1      22.564  45.156  46.895  1.00  0.00     0.169 HD
ENDROOT
BRANCH   1  18
HETATM   18  C   UNL     1      21.233  39.124  47.005  1.00  0.00     0.012 C 
HETATM   19  C   UNL     1      19.988  38.830  47.414  1.00  0.00     0.012 C 
BRANCH  19  20
HETATM   20  C   UNL     1      19.340  37.527  47.213  1.00  0.00    -0.036 A 
HETATM   21  C   UNL     1      19.659  36.775  46.078  1.00  0.00     0.012 A 
HETATM   22  C   UNL     1      19.178  35.471  45.931  1.00  0.00     0.009 A 
HETATM   23  C   UNL     1      18.379  34.888  46.924  1.00  0.00    -0.049 A 
HETATM   24  C   UNL     1      18.046  35.647  48.053  1.00  0.00     0.009 A 
HETATM   25  C   UNL     1      18.523  36.953  48.196  1.00  0.00     0.012 A 
BRANCH  23  26
HETATM   26  C   UNL     1      17.956  33.445  46.814  1.00  0.00     0.112 C 
BRANCH  26  27
HETATM   27  S   UNL     1      18.630  32.470  48.200  1.00  0.00    -0.165 SA
BRANCH  27  28
HETATM   28  C   UNL     1      18.746  30.855  47.382  1.00  0.00     0.069 C 
HETATM   29  C   UNL     1      17.618  29.958  47.864  1.00  0.00     0.016 C 
ENDBRANCH  27  28
ENDBRANCH  26  27
ENDBRANCH  23  26
ENDBRANCH  19  20
ENDBRANCH   1  18
BRANCH  13  30
HETATM   30  N   UNL     1      26.446  44.942  52.478  1.00  0.00    -0.355 N 
HETATM   31  C   UNL     1      26.511  44.827  53.848  1.00  0.00     0.222 C 
HETATM   32  O   UNL     1      25.726  44.123  54.482  1.00  0.00    -0.273 OA
HETATM   33  H   UNL     1      27.047  45.625  52.027  1.00  0.00     0.162 HD
BRANCH  31  34
HETATM   34  C   UNL     1      27.573  45.635  54.586  1.00  0.00     0.148 C 
BRANCH  34  35
HETATM   35  C   UNL     1      28.817  44.870  54.933  1.00  0.00    -0.009 A 
HETATM   36  S   UNL     1      29.905  45.485  56.109  1.00  0.00    -0.106 SA
HETATM   37  C   UNL     1      30.944  44.139  55.944  1.00  0.00     0.050 A 
HETATM   38  C   UNL     1      30.475  43.235  55.018  1.00  0.00     0.008 A 
HETATM   39  C   UNL     1      29.245  43.656  54.434  1.00  0.00     0.015 A 
ENDBRANCH  34  35
ENDBRANCH  31  34
ENDBRANCH  13  30
TORSDOF 8
ENDMDL
MODEL 9
REMARK VINA RESULT:      -8.1      2.937     12.501
REMARK  8 active torsions:
REMARK  status: ('A' for Active; 'I' for Inactive)
REMARK    1  A    between atoms: C_2  and  S_3 
REMARK    2  A    between atoms: S_3  and  C_4 
REMARK    3  A    between atoms: C_4  and  C_5 
REMARK    4  A    between atoms: C_8  and  C_9 
REMARK    5  A    between atoms: C_10  and  C_11 
REMARK    6  A    between atoms: C_23  and  N_24 
REMARK       I    between atoms: N_24  and  C_25 
REMARK    7  A    between atoms: C_25  and  C_26 
REMARK    8  A    between atoms: C_26  and  C_27 
ROOT
HETATM    1  C   UNL     1      25.230  44.840  50.606  1.00  0.00    -0.035 A 
HETATM    2  C   UNL     1      24.420  45.929  50.261  1.00  0.00     0.030 A 
HETATM    3  C   UNL     1      23.411  45.820  49.286  1.00  0.00     0.059 A 
HETATM    4  C   UNL     1      23.196  44.590  48.651  1.00  0.00     0.050 A 
HETATM    5  N   UNL     1      22.164  44.292  47.744  1.00  0.00    -0.324 N 
HETATM    6  C   UNL     1      20.894  44.807  47.703  1.00  0.00     0.245 C 
HETATM    7  O   UNL     1      20.061  44.218  47.010  1.00  0.00    -0.271 OA
HETATM    8  C   UNL     1      20.525  45.923  48.678  1.00  0.00     0.182 C 
HETATM    9  N   UNL     1      21.423  47.058  48.526  1.00  0.00    -0.332 N 
HETATM   10  C   UNL     1      22.735  47.091  48.921  1.00  0.00     0.256 C 
HETATM   11  O   UNL     1      23.369  48.141  49.001  1.00  0.00    -0.267 OA
HETATM   12  C   UNL     1      19.118  46.488  48.435  1.00  0.00     0.061 C 
HETATM   13  C   UNL     1      19.280  47.982  48.727  1.00  0.00     0.105 C 
HETATM   14  C   UNL     1      20.690  48.274  48.214  1.00  0.00     0.152 C 
HETATM   15  C   UNL     1      24.058  43.521  48.945  1.00  0.00     0.031 A 
HETATM   16  C   UNL     1      25.050  43.637  49.925  1.00  0.00     0.013 A 
HETATM   17  H   UNL     1      22.233  43.438  47.204  1.00  0.00     0.169 HD
ENDROOT
BRANCH   1  18
HETATM   18  C   UNL     1      26.176  44.910  51.727  1.00  0.00     0.012 C 
HETATM   19  C   UNL     1      26.302  45.984  52.522  1.00  0.00     0.012 C 
BRANCH  19  20
HETATM   20  C   UNL     1      27.120  46.016  53.742  1.00  0.00    -0.036 A 
HETATM   21  C   UNL     1      27.013  47.112  54.606  1.00  0.00     0.012 A 
HETATM   22  C   UNL     1      27.660  47.108  55.844  1.00  0.00     0.009 A 
HETATM   23  C   UNL     1      28.418  46.000  56.250  1.00  0.00    -0.049 A 
HETATM   24  C   UNL     1      28.539  44.910  55.378  1.00  0.00     0.009 A 
HETATM   25  C   UNL     1      27.895  44.919  54.137  1.00  0.00     0.012 A 
BRANCH  23  26
HETATM   26  C   UNL     1      29.021  45.952  57.631  1.00  0.00     0.112 C 
BRANCH  26  27
HETATM   27  S   UNL     1      30.841  46.022  57.540  1.00  0.00    -0.165 SA
BRANCH  27  28
HETATM   28  C   UNL     1      31.217  44.324  58.057  1.00  0.00     0.069 C 
HETATM   29  C   UNL     1      31.598  43.494  56.843  1.00  0.00     0.016 C 
ENDBRANCH  27  28
ENDBRANCH  26  27
ENDBRANCH  23  26
ENDBRANCH  19  20
ENDBRANCH   1  18
BRANCH  13  30
HETATM   30  N   UNL     1      18.221  48.838  48.224  1.00  0.00    -0.355 N 
HETATM   31  C   UNL     1      18.175  49.350  46.948  1.00  0.00     0.222 C 
HETATM   32  O   UNL     1      19.042  49.099  46.111  1.00  0.00    -0.273 OA
HETATM   33  H   UNL     1      17.542  49.173  48.898  1.00  0.00     0.162 HD
BRANCH  31  34
HETATM   34  C   UNL     1      17.027  50.289  46.592  1.00  0.00     0.148 C 
BRANCH  34  35
HETATM   35  C   UNL     1      16.610  51.217  47.695  1.00  0.00    -0.009 A 
HETATM   36  S   UNL     1      17.763  52.255  48.428  1.00  0.00    -0.106 SA
HETATM   37  C   UNL     1      16.588  52.929  49.470  1.00  0.00     0.050 A 
HETATM   38  C   UNL     1      15.342  52.382  49.265  1.00  0.00     0.008 A 
HETATM   39  C   UNL     1      15.353  51.393  48.239  1.00  0.00     0.015 A 
ENDBRANCH  34  35
ENDBRANCH  31  34
ENDBRANCH  13  30
TORSDOF 8
ENDMDL
MODEL 10
REMARK VINA RESULT:      -8.0      2.692     12.830
REMARK  8 active torsions:
REMARK  status: ('A' for Active; 'I' for Inactive)
REMARK    1  A    between atoms: C_2  and  S_3 
REMARK    2  A    between atoms: S_3  and  C_4 
REMARK    3  A    between atoms: C_4  and  C_5 
REMARK    4  A    between atoms: C_8  and  C_9 
REMARK    5  A    between atoms: C_10  and  C_11 
REMARK    6  A    between atoms: C_23  and  N_24 
REMARK       I    between atoms: N_24  and  C_25 
REMARK    7  A    between atoms: C_25  and  C_26 
REMARK    8  A    between atoms: C_26  and  C_27 
ROOT
HETATM    1  C   UNL     1      25.441  44.575  50.460  1.00  0.00    -0.035 A 
HETATM    2  C   UNL     1      24.592  45.658  50.201  1.00  0.00     0.030 A 
HETATM    3  C   UNL     1      23.662  45.633  49.145  1.00  0.00     0.059 A 
HETATM    4  C   UNL     1      23.565  44.491  48.340  1.00  0.00     0.050 A 
HETATM    5  N   UNL     1      22.618  44.268  47.325  1.00  0.00    -0.324 N 
HETATM    6  C   UNL     1      21.325  44.719  47.255  1.00  0.00     0.245 C 
HETATM    7  O   UNL     1      20.580  44.189  46.428  1.00  0.00    -0.271 OA
HETATM    8  C   UNL     1      20.823  45.672  48.337  1.00  0.00     0.182 C 
HETATM    9  N   UNL     1      21.660  46.860  48.406  1.00  0.00    -0.332 N 
HETATM   10  C   UNL     1      22.937  46.906  48.902  1.00  0.00     0.256 C 
HETATM   11  O   UNL     1      23.500  47.966  49.168  1.00  0.00    -0.267 OA
HETATM   12  C   UNL     1      19.405  46.193  48.064  1.00  0.00     0.061 C 
HETATM   13  C   UNL     1      19.456  47.640  48.562  1.00  0.00     0.105 C 
HETATM   14  C   UNL     1      20.878  48.070  48.202  1.00  0.00     0.152 C 
HETATM   15  C   UNL     1      24.468  43.437  48.555  1.00  0.00     0.031 A 
HETATM   16  C   UNL     1      25.381  43.468  49.615  1.00  0.00     0.013 A 
HETATM   17  H   UNL     1      22.776  43.500  46.683  1.00  0.00     0.169 HD
ENDROOT
BRANCH   1  18
HETATM   18  C   UNL     1      26.301  44.539  51.649  1.00  0.00     0.012 C 
HETATM   19  C   UNL     1      27.191  43.562  51.889  1.00  0.00     0.012 C 
BRANCH  19  20
HETATM   20  C   UNL     1      28.171  43.589  52.983  1.00  0.00    -0.036 A 
HETATM   21  C   UNL     1      29.385  42.912  52.827  1.00  0.00     0.012 A 
HETATM   22  C   UNL     1      30.399  43.039  53.780  1.00  0.00     0.009 A 
HETATM   23  C   UNL     1      30.223  43.859  54.904  1.00  0.00    -0.049 A 
HETATM   24  C   UNL     1      29.002  44.525  55.068  1.00  0.00     0.009 A 
HETATM   25  C   UNL     1      27.987  44.391  54.116  1.00  0.00     0.012 A 
BRANCH  23  26
HETATM   26  C   UNL     1      31.358  44.083  55.870  1.00  0.00     0.112 C 
BRANCH  26  27
HETATM   27  S   UNL     1      30.744  44.115  57.587  1.00  0.00    -0.165 SA
BRANCH  27  28
HETATM   28  C   UNL     1      30.459  45.900  57.753  1.00  0.00     0.069 C 
HETATM   29  C   UNL     1      29.015  46.150  58.153  1.00  0.00     0.016 C 
ENDBRANCH  27  28
ENDBRANCH  26  27
ENDBRANCH  23  26
ENDBRANCH  19  20
ENDBRANCH   1  18
BRANCH  13  30
HETATM   30  N   UNL     1      18.385  48.502  48.097  1.00  0.00    -0.355 N 
HETATM   31  C   UNL     1      17.771  49.464  48.864  1.00  0.00     0.222 C 
HETATM   32  O   UNL     1      18.106  49.684  50.028  1.00  0.00    -0.273 OA
HETATM   33  H   UNL     1      17.988  48.291  47.187  1.00  0.00     0.162 HD
BRANCH  31  34
HETATM   34  C   UNL     1      16.615  50.244  48.248  1.00  0.00     0.148 C 
BRANCH  34  35
HETATM   35  C   UNL     1      16.366  51.590  48.863  1.00  0.00    -0.009 A 
HETATM   36  S   UNL     1      14.982  52.500  48.413  1.00  0.00    -0.106 SA
HETATM   37  C   UNL     1      15.393  53.771  49.477  1.00  0.00     0.050 A 
HETATM   38  C   UNL     1      16.555  53.512  50.167  1.00  0.00     0.008 A 
HETATM   39  C   UNL     1      17.119  52.252  49.812  1.00  0.00     0.015 A 
ENDBRANCH  34  35
ENDBRANCH  31  34
ENDBRANCH  13  30
TORSDOF 8
ENDMDL
