MODEL 1
REMARK VINA RESULT:      -9.0      0.000      0.000
REMARK  6 active torsions:
REMARK  status: ('A' for Active; 'I' for Inactive)
REMARK    1  A    between atoms: C_2  and  N_3 
REMARK    2  A    between atoms: C_2  and  C_16 
REMARK    3  A    between atoms: N_3  and  C_6 
REMARK    4  A    between atoms: C_16  and  C_17 
REMARK       I    between atoms: C_17  and  N_18 
REMARK    5  A    between atoms: N_18  and  C_19 
REMARK    6  A    between atoms: C_21  and  O_22 
ROOT
HETATM    1  C   UNL     1      26.297  48.268  55.181  1.00  0.00     0.040 C 
HETATM    2  C   UNL     1      25.952  47.011  54.397  1.00  0.00     0.191 C 
ENDROOT
BRANCH   2   3
HETATM    3  N   UNL     1      26.724  45.813  54.918  1.00  0.00    -0.063 N 
HETATM    4  H   UNL     1      26.515  45.806  55.937  1.00  0.00     0.278 HD
HETATM    5  H   UNL     1      26.312  44.940  54.568  1.00  0.00     0.278 HD
BRANCH   3   6
HETATM    6  C   UNL     1      28.236  45.726  54.825  1.00  0.00     0.221 C 
HETATM    7  C   UNL     1      28.770  44.480  54.158  1.00  0.00    -0.011 A 
HETATM    8  C   UNL     1      29.827  43.728  54.699  1.00  0.00     0.009 A 
HETATM    9  C   UNL     1      28.253  44.094  52.901  1.00  0.00     0.011 A 
HETATM   10  C   UNL     1      30.290  42.586  54.031  1.00  0.00     0.019 A 
HETATM   11  S   UNL     1      30.661  44.162  56.212  1.00  0.00    -0.129 SA
HETATM   12  C   UNL     1      29.742  42.201  52.810  1.00  0.00     0.001 A 
HETATM   13  C   UNL     1      28.729  42.961  52.240  1.00  0.00     0.001 A 
HETATM   14  C   UNL     1      30.317  45.935  56.255  1.00  0.00     0.082 C 
HETATM   15  C   UNL     1      28.814  46.129  56.191  1.00  0.00     0.048 C 
ENDBRANCH   3   6
ENDBRANCH   2   3
BRANCH   2  16
HETATM   16  C   UNL     1      26.282  47.215  52.899  1.00  0.00     0.135 C 
BRANCH  16  17
HETATM   17  C   UNL     1      25.374  46.393  52.019  1.00  0.00     0.224 C 
HETATM   18  N   UNL     1      25.042  46.755  50.755  1.00  0.00    -0.327 N 
HETATM   19  H   UNL     1      24.386  46.092  50.350  1.00  0.00     0.169 HD
HETATM   20  O   UNL     1      24.962  45.305  52.448  1.00  0.00    -0.273 OA
BRANCH  18  21
HETATM   21  C   UNL     1      25.436  47.789  49.880  1.00  0.00     0.037 A 
HETATM   22  C   UNL     1      24.582  48.632  49.163  1.00  0.00     0.066 A 
HETATM   23  C   UNL     1      25.102  49.655  48.356  1.00  0.00     0.070 A 
HETATM   24  C   UNL     1      26.482  49.835  48.266  1.00  0.00     0.037 A 
HETATM   25  C   UNL     1      27.345  49.002  48.969  1.00  0.00     0.005 A 
HETATM   26  C   UNL     1      26.823  47.987  49.769  1.00  0.00     0.029 A 
BRANCH  23  27
HETATM   27  O   UNL     1      24.376  50.550  47.620  1.00  0.00    -0.356 OA
HETATM   28  C   UNL     1      23.092  50.922  48.101  1.00  0.00     0.210 C 
ENDBRANCH  23  27
ENDBRANCH  18  21
ENDBRANCH  16  17
ENDBRANCH   2  16
TORSDOF 6
ENDMDL
MODEL 2
REMARK VINA RESULT:      -8.9      1.061      2.483
REMARK  6 active torsions:
REMARK  status: ('A' for Active; 'I' for Inactive)
REMARK    1  A    between atoms: C_2  and  N_3 
REMARK    2  A    between atoms: C_2  and  C_16 
REMARK    3  A    between atoms: N_3  and  C_6 
REMARK    4  A    between atoms: C_16  and  C_17 
REMARK       I    between atoms: C_17  and  N_18 
REMARK    5  A    between atoms: N_18  and  C_19 
REMARK    6  A    between atoms: C_21  and  O_22 
ROOT
HETATM    1  C   UNL     1      26.445  48.230  55.491  1.00  0.00     0.040 C 
HETATM    2  C   UNL     1      26.471  47.138  54.432  1.00  0.00     0.191 C 
ENDROOT
BRANCH   2   3
HETATM    3  N   UNL     1      27.856  46.530  54.308  1.00  0.00    -0.063 N 
HETATM    4  H   UNL     1      28.020  46.492  53.281  1.00  0.00     0.278 HD
HETATM    5  H   UNL     1      28.568  47.183  54.654  1.00  0.00     0.278 HD
BRANCH   3   6
HETATM    6  C   UNL     1      28.170  45.133  54.809  1.00  0.00     0.221 C 
HETATM    7  C   UNL     1      29.232  45.058  55.881  1.00  0.00    -0.011 A 
HETATM    8  C   UNL     1      30.281  44.124  55.840  1.00  0.00     0.009 A 
HETATM    9  C   UNL     1      29.130  45.894  57.016  1.00  0.00     0.011 A 
HETATM   10  C   UNL     1      31.234  44.091  56.868  1.00  0.00     0.019 A 
HETATM   11  S   UNL     1      30.471  42.923  54.537  1.00  0.00    -0.129 SA
HETATM   12  C   UNL     1      31.135  44.949  57.960  1.00  0.00     0.001 A 
HETATM   13  C   UNL     1      30.077  45.845  58.038  1.00  0.00     0.001 A 
HETATM   14  C   UNL     1      28.760  42.819  53.965  1.00  0.00     0.082 C 
HETATM   15  C   UNL     1      28.300  44.212  53.585  1.00  0.00     0.048 C 
ENDBRANCH   3   6
ENDBRANCH   2   3
BRANCH   2  16
HETATM   16  C   UNL     1      26.048  47.719  53.062  1.00  0.00     0.135 C 
BRANCH  16  17
HETATM   17  C   UNL     1      25.430  46.661  52.183  1.00  0.00     0.224 C 
HETATM   18  N   UNL     1      25.199  46.841  50.859  1.00  0.00    -0.327 N 
HETATM   19  H   UNL     1      24.735  46.028  50.459  1.00  0.00     0.169 HD
HETATM   20  O   UNL     1      25.178  45.553  52.680  1.00  0.00    -0.273 OA
BRANCH  18  21
HETATM   21  C   UNL     1      25.500  47.855  49.925  1.00  0.00     0.037 A 
HETATM   22  C   UNL     1      24.572  48.626  49.218  1.00  0.00     0.066 A 
HETATM   23  C   UNL     1      25.002  49.638  48.346  1.00  0.00     0.070 A 
HETATM   24  C   UNL     1      26.366  49.878  48.181  1.00  0.00     0.037 A 
HETATM   25  C   UNL     1      27.301  49.116  48.872  1.00  0.00     0.005 A 
HETATM   26  C   UNL     1      26.867  48.113  49.738  1.00  0.00     0.029 A 
BRANCH  23  27
HETATM   27  O   UNL     1      24.198  50.465  47.612  1.00  0.00    -0.356 OA
HETATM   28  C   UNL     1      22.803  50.201  47.602  1.00  0.00     0.210 C 
ENDBRANCH  23  27
ENDBRANCH  18  21
ENDBRANCH  16  17
ENDBRANCH   2  16
TORSDOF 6
ENDMDL
MODEL 3
REMARK VINA RESULT:      -8.8      1.594      2.671
REMARK  6 active torsions:
REMARK  status: ('A' for Active; 'I' for Inactive)
REMARK    1  A    between atoms: C_2  and  N_3 
REMARK    2  A    between atoms: C_2  and  C_16 
REMARK    3  A    between atoms: N_3  and  C_6 
REMARK    4  A    between atoms: C_16  and  C_17 
REMARK       I    between atoms: C_17  and  N_18 
REMARK    5  A    between atoms: N_18  and  C_19 
REMARK    6  A    between atoms: C_21  and  O_22 
ROOT
HETATM    1  C   UNL     1      26.760  42.266  50.562  1.00  0.00     0.040 C 
HETATM    2  C   UNL     1      26.663  43.775  50.731  1.00  0.00     0.191 C 
ENDROOT
BRANCH   2   3
HETATM    3  N   UNL     1      26.486  44.152  52.190  1.00  0.00    -0.063 N 
HETATM    4  H   UNL     1      25.566  44.639  52.212  1.00  0.00     0.278 HD
HETATM    5  H   UNL     1      26.342  43.313  52.764  1.00  0.00     0.278 HD
BRANCH   3   6
HETATM    6  C   UNL     1      27.444  45.089  52.902  1.00  0.00     0.221 C 
HETATM    7  C   UNL     1      28.573  44.412  53.645  1.00  0.00    -0.011 A 
HETATM    8  C   UNL     1      28.934  44.768  54.955  1.00  0.00     0.009 A 
HETATM    9  C   UNL     1      29.356  43.444  52.978  1.00  0.00     0.011 A 
HETATM   10  C   UNL     1      29.998  44.115  55.593  1.00  0.00     0.019 A 
HETATM   11  S   UNL     1      28.120  46.057  55.878  1.00  0.00    -0.129 SA
HETATM   12  C   UNL     1      30.735  43.136  54.930  1.00  0.00     0.001 A 
HETATM   13  C   UNL     1      30.419  42.807  53.619  1.00  0.00     0.001 A 
HETATM   14  C   UNL     1      27.462  47.042  54.515  1.00  0.00     0.082 C 
HETATM   15  C   UNL     1      26.606  46.141  53.646  1.00  0.00     0.048 C 
ENDBRANCH   3   6
ENDBRANCH   2   3
BRANCH   2  16
HETATM   16  C   UNL     1      25.467  44.323  49.917  1.00  0.00     0.135 C 
BRANCH  16  17
HETATM   17  C   UNL     1      24.512  45.093  50.793  1.00  0.00     0.224 C 
HETATM   18  N   UNL     1      24.412  46.445  50.771  1.00  0.00    -0.327 N 
HETATM   19  H   UNL     1      23.745  46.770  51.467  1.00  0.00     0.169 HD
HETATM   20  O   UNL     1      23.737  44.457  51.524  1.00  0.00    -0.273 OA
BRANCH  18  21
HETATM   21  C   UNL     1      24.971  47.471  49.980  1.00  0.00     0.037 A 
HETATM   22  C   UNL     1      24.280  48.286  49.078  1.00  0.00     0.066 A 
HETATM   23  C   UNL     1      24.947  49.305  48.381  1.00  0.00     0.070 A 
HETATM   24  C   UNL     1      26.311  49.508  48.588  1.00  0.00     0.037 A 
HETATM   25  C   UNL     1      27.013  48.704  49.477  1.00  0.00     0.005 A 
HETATM   26  C   UNL     1      26.345  47.693  50.167  1.00  0.00     0.029 A 
BRANCH  23  27
HETATM   27  O   UNL     1      24.384  50.173  47.487  1.00  0.00    -0.356 OA
HETATM   28  C   UNL     1      23.112  50.720  47.801  1.00  0.00     0.210 C 
ENDBRANCH  23  27
ENDBRANCH  18  21
ENDBRANCH  16  17
ENDBRANCH   2  16
TORSDOF 6
ENDMDL
MODEL 4
REMARK VINA RESULT:      -8.6      2.357      4.239
REMARK  6 active torsions:
REMARK  status: ('A' for Active; 'I' for Inactive)
REMARK    1  A    between atoms: C_2  and  N_3 
REMARK    2  A    between atoms: C_2  and  C_16 
REMARK    3  A    between atoms: N_3  and  C_6 
REMARK    4  A    between atoms: C_16  and  C_17 
REMARK       I    between atoms: C_17  and  N_18 
REMARK    5  A    between atoms: N_18  and  C_19 
REMARK    6  A    between atoms: C_21  and  O_22 
ROOT
HETATM    1  C   UNL     1      28.161  41.021  53.224  1.00  0.00     0.040 C 
HETATM    2  C   UNL     1      28.318  42.025  52.091  1.00  0.00     0.191 C 
ENDROOT
BRANCH   2   3
HETATM    3  N   UNL     1      28.942  43.316  52.587  1.00  0.00    -0.063 N 
HETATM    4  H   UNL     1      29.963  43.168  52.449  1.00  0.00     0.278 HD
HETATM    5  H   UNL     1      28.711  44.093  51.957  1.00  0.00     0.278 HD
BRANCH   3   6
HETATM    6  C   UNL     1      28.802  43.778  54.025  1.00  0.00     0.221 C 
HETATM    7  C   UNL     1      28.059  45.081  54.213  1.00  0.00    -0.011 A 
HETATM    8  C   UNL     1      28.532  46.105  55.052  1.00  0.00     0.009 A 
HETATM    9  C   UNL     1      26.801  45.255  53.595  1.00  0.00     0.011 A 
HETATM   10  C   UNL     1      27.797  47.289  55.198  1.00  0.00     0.019 A 
HETATM   11  S   UNL     1      30.040  45.980  55.993  1.00  0.00    -0.129 SA
HETATM   12  C   UNL     1      26.575  47.456  54.551  1.00  0.00     0.001 A 
HETATM   13  C   UNL     1      26.073  46.434  53.756  1.00  0.00     0.001 A 
HETATM   14  C   UNL     1      30.179  44.182  56.113  1.00  0.00     0.082 C 
HETATM   15  C   UNL     1      30.168  43.610  54.709  1.00  0.00     0.048 C 
ENDBRANCH   3   6
ENDBRANCH   2   3
BRANCH   2  16
HETATM   16  C   UNL     1      26.938  42.336  51.465  1.00  0.00     0.135 C 
BRANCH  16  17
HETATM   17  C   UNL     1      27.026  42.444  49.964  1.00  0.00     0.224 C 
HETATM   18  N   UNL     1      26.627  43.541  49.276  1.00  0.00    -0.327 N 
HETATM   19  H   UNL     1      26.727  43.396  48.274  1.00  0.00     0.169 HD
HETATM   20  O   UNL     1      27.544  41.509  49.334  1.00  0.00    -0.273 OA
BRANCH  18  21
HETATM   21  C   UNL     1      26.170  44.827  49.632  1.00  0.00     0.037 A 
HETATM   22  C   UNL     1      26.943  45.992  49.685  1.00  0.00     0.066 A 
HETATM   23  C   UNL     1      26.356  47.223  50.013  1.00  0.00     0.070 A 
HETATM   24  C   UNL     1      24.991  47.289  50.290  1.00  0.00     0.037 A 
HETATM   25  C   UNL     1      24.210  46.140  50.247  1.00  0.00     0.005 A 
HETATM   26  C   UNL     1      24.798  44.919  49.920  1.00  0.00     0.029 A 
BRANCH  23  27
HETATM   27  O   UNL     1      26.998  48.429  50.084  1.00  0.00    -0.356 OA
HETATM   28  C   UNL     1      27.194  49.151  48.877  1.00  0.00     0.210 C 
ENDBRANCH  23  27
ENDBRANCH  18  21
ENDBRANCH  16  17
ENDBRANCH   2  16
TORSDOF 6
ENDMDL
MODEL 5
REMARK VINA RESULT:      -8.2      1.961      3.205
REMARK  6 active torsions:
REMARK  status: ('A' for Active; 'I' for Inactive)
REMARK    1  A    between atoms: C_2  and  N_3 
REMARK    2  A    between atoms: C_2  and  C_16 
REMARK    3  A    between atoms: N_3  and  C_6 
REMARK    4  A    between atoms: C_16  and  C_17 
REMARK       I    between atoms: C_17  and  N_18 
REMARK    5  A    between atoms: N_18  and  C_19 
REMARK    6  A    between atoms: C_21  and  O_22 
ROOT
HETATM    1  C   UNL     1      25.785  47.368  53.817  1.00  0.00     0.040 C 
HETATM    2  C   UNL     1      25.617  46.408  52.648  1.00  0.00     0.191 C 
ENDROOT
BRANCH   2   3
HETATM    3  N   UNL     1      26.888  45.615  52.405  1.00  0.00    -0.063 N 
HETATM    4  H   UNL     1      26.841  45.371  51.395  1.00  0.00     0.278 HD
HETATM    5  H   UNL     1      27.712  46.223  52.481  1.00  0.00     0.278 HD
BRANCH   3   6
HETATM    6  C   UNL     1      27.166  44.302  53.114  1.00  0.00     0.221 C 
HETATM    7  C   UNL     1      28.359  44.312  54.042  1.00  0.00    -0.011 A 
HETATM    8  C   UNL     1      29.321  43.288  54.045  1.00  0.00     0.009 A 
HETATM    9  C   UNL     1      28.477  45.339  55.006  1.00  0.00     0.011 A 
HETATM   10  C   UNL     1      30.402  43.342  54.936  1.00  0.00     0.019 A 
HETATM   11  S   UNL     1      29.240  41.866  52.973  1.00  0.00    -0.129 SA
HETATM   12  C   UNL     1      30.520  44.383  55.853  1.00  0.00     0.001 A 
HETATM   13  C   UNL     1      29.551  45.377  55.894  1.00  0.00     0.001 A 
HETATM   14  C   UNL     1      27.463  41.830  52.647  1.00  0.00     0.082 C 
HETATM   15  C   UNL     1      27.057  43.175  52.075  1.00  0.00     0.048 C 
ENDBRANCH   3   6
ENDBRANCH   2   3
BRANCH   2  16
HETATM   16  C   UNL     1      25.258  47.194  51.365  1.00  0.00     0.135 C 
BRANCH  16  17
HETATM   17  C   UNL     1      24.504  46.331  50.384  1.00  0.00     0.224 C 
HETATM   18  N   UNL     1      23.604  46.828  49.501  1.00  0.00    -0.327 N 
HETATM   19  H   UNL     1      23.174  46.079  48.963  1.00  0.00     0.169 HD
HETATM   20  O   UNL     1      24.764  45.119  50.342  1.00  0.00    -0.273 OA
BRANCH  18  21
HETATM   21  C   UNL     1      23.182  48.123  49.132  1.00  0.00     0.037 A 
HETATM   22  C   UNL     1      21.868  48.602  49.163  1.00  0.00     0.066 A 
HETATM   23  C   UNL     1      21.585  49.930  48.811  1.00  0.00     0.070 A 
HETATM   24  C   UNL     1      22.620  50.782  48.425  1.00  0.00     0.037 A 
HETATM   25  C   UNL     1      23.930  50.319  48.384  1.00  0.00     0.005 A 
HETATM   26  C   UNL     1      24.206  48.999  48.736  1.00  0.00     0.029 A 
BRANCH  23  27
HETATM   27  O   UNL     1      20.351  50.520  48.813  1.00  0.00    -0.356 OA
HETATM   28  C   UNL     1      19.971  51.263  49.962  1.00  0.00     0.210 C 
ENDBRANCH  23  27
ENDBRANCH  18  21
ENDBRANCH  16  17
ENDBRANCH   2  16
TORSDOF 6
ENDMDL
MODEL 6
REMARK VINA RESULT:      -8.2      2.509      3.751
REMARK  6 active torsions:
REMARK  status: ('A' for Active; 'I' for Inactive)
REMARK    1  A    between atoms: C_2  and  N_3 
REMARK    2  A    between atoms: C_2  and  C_16 
REMARK    3  A    between atoms: N_3  and  C_6 
REMARK    4  A    between atoms: C_16  and  C_17 
REMARK       I    between atoms: C_17  and  N_18 
REMARK    5  A    between atoms: N_18  and  C_19 
REMARK    6  A    between atoms: C_21  and  O_22 
ROOT
HETATM    1  C   UNL     1      27.471  41.274  51.932  1.00  0.00     0.040 C 
HETATM    2  C   UNL     1      26.781  42.607  51.682  1.00  0.00     0.191 C 
ENDROOT
BRANCH   2   3
HETATM    3  N   UNL     1      26.608  43.384  52.974  1.00  0.00    -0.063 N 
HETATM    4  H   UNL     1      25.605  43.660  52.966  1.00  0.00     0.278 HD
HETATM    5  H   UNL     1      26.693  42.759  53.784  1.00  0.00     0.278 HD
BRANCH   3   6
HETATM    6  C   UNL     1      27.368  44.669  53.249  1.00  0.00     0.221 C 
HETATM    7  C   UNL     1      28.509  44.544  54.232  1.00  0.00    -0.011 A 
HETATM    8  C   UNL     1      28.705  45.459  55.280  1.00  0.00     0.009 A 
HETATM    9  C   UNL     1      29.469  43.523  54.051  1.00  0.00     0.011 A 
HETATM   10  C   UNL     1      29.788  45.302  56.157  1.00  0.00     0.019 A 
HETATM   11  S   UNL     1      27.650  46.868  55.559  1.00  0.00    -0.129 SA
HETATM   12  C   UNL     1      30.702  44.267  55.983  1.00  0.00     0.001 A 
HETATM   13  C   UNL     1      30.548  43.382  54.923  1.00  0.00     0.001 A 
HETATM   14  C   UNL     1      26.986  47.089  53.893  1.00  0.00     0.082 C 
HETATM   15  C   UNL     1      26.336  45.788  53.464  1.00  0.00     0.048 C 
ENDBRANCH   3   6
ENDBRANCH   2   3
BRANCH   2  16
HETATM   16  C   UNL     1      25.393  42.373  51.042  1.00  0.00     0.135 C 
BRANCH  16  17
HETATM   17  C   UNL     1      25.461  42.442  49.537  1.00  0.00     0.224 C 
HETATM   18  N   UNL     1      25.359  43.602  48.844  1.00  0.00    -0.327 N 
HETATM   19  H   UNL     1      25.384  43.428  47.842  1.00  0.00     0.169 HD
HETATM   20  O   UNL     1      25.683  41.397  48.907  1.00  0.00    -0.273 OA
BRANCH  18  21
HETATM   21  C   UNL     1      25.284  44.967  49.193  1.00  0.00     0.037 A 
HETATM   22  C   UNL     1      24.130  45.757  49.188  1.00  0.00     0.066 A 
HETATM   23  C   UNL     1      24.180  47.096  49.602  1.00  0.00     0.070 A 
HETATM   24  C   UNL     1      25.391  47.648  50.021  1.00  0.00     0.037 A 
HETATM   25  C   UNL     1      26.548  46.878  50.027  1.00  0.00     0.005 A 
HETATM   26  C   UNL     1      26.492  45.546  49.616  1.00  0.00     0.029 A 
BRANCH  23  27
HETATM   27  O   UNL     1      23.125  47.964  49.655  1.00  0.00    -0.356 OA
HETATM   28  C   UNL     1      23.328  49.288  49.184  1.00  0.00     0.210 C 
ENDBRANCH  23  27
ENDBRANCH  18  21
ENDBRANCH  16  17
ENDBRANCH   2  16
TORSDOF 6
ENDMDL
MODEL 7
REMARK VINA RESULT:      -8.1     11.593     13.397
REMARK  6 active torsions:
REMARK  status: ('A' for Active; 'I' for Inactive)
REMARK    1  A    between atoms: C_2  and  N_3 
REMARK    2  A    between atoms: C_2  and  C_16 
REMARK    3  A    between atoms: N_3  and  C_6 
REMARK    4  A    between atoms: C_16  and  C_17 
REMARK       I    between atoms: C_17  and  N_18 
REMARK    5  A    between atoms: N_18  and  C_19 
REMARK    6  A    between atoms: C_21  and  O_22 
ROOT
HETATM    1  C   UNL     1      28.880  46.037  39.610  1.00  0.00     0.040 C 
HETATM    2  C   UNL     1      29.025  47.478  40.076  1.00  0.00     0.191 C 
ENDROOT
BRANCH   2   3
HETATM    3  N   UNL     1      30.447  47.769  40.520  1.00  0.00    -0.063 N 
HETATM    4  H   UNL     1      30.618  47.075  41.276  1.00  0.00     0.278 HD
HETATM    5  H   UNL     1      31.114  47.510  39.783  1.00  0.00     0.278 HD
BRANCH   3   6
HETATM    6  C   UNL     1      30.848  49.106  41.113  1.00  0.00     0.221 C 
HETATM    7  C   UNL     1      31.690  49.982  40.214  1.00  0.00    -0.011 A 
HETATM    8  C   UNL     1      32.845  50.640  40.669  1.00  0.00     0.009 A 
HETATM    9  C   UNL     1      31.263  50.226  38.890  1.00  0.00     0.011 A 
HETATM   10  C   UNL     1      33.583  51.451  39.795  1.00  0.00     0.019 A 
HETATM   11  S   UNL     1      33.438  50.529  42.346  1.00  0.00    -0.129 SA
HETATM   12  C   UNL     1      33.165  51.648  38.482  1.00  0.00     0.001 A 
HETATM   13  C   UNL     1      31.999  51.043  38.031  1.00  0.00     0.001 A 
HETATM   14  C   UNL     1      31.896  50.110  43.189  1.00  0.00     0.082 C 
HETATM   15  C   UNL     1      31.330  48.857  42.551  1.00  0.00     0.048 C 
ENDBRANCH   3   6
ENDBRANCH   2   3
BRANCH   2  16
HETATM   16  C   UNL     1      28.060  47.754  41.253  1.00  0.00     0.135 C 
BRANCH  16  17
HETATM   17  C   UNL     1      26.720  48.241  40.763  1.00  0.00     0.224 C 
HETATM   18  N   UNL     1      26.508  49.504  40.318  1.00  0.00    -0.327 N 
HETATM   19  H   UNL     1      25.530  49.643  40.077  1.00  0.00     0.169 HD
HETATM   20  O   UNL     1      25.782  47.432  40.708  1.00  0.00    -0.273 OA
BRANCH  18  21
HETATM   21  C   UNL     1      27.332  50.621  40.067  1.00  0.00     0.037 A 
HETATM   22  C   UNL     1      28.058  51.342  41.021  1.00  0.00     0.066 A 
HETATM   23  C   UNL     1      28.878  52.412  40.634  1.00  0.00     0.070 A 
HETATM   24  C   UNL     1      28.973  52.763  39.288  1.00  0.00     0.037 A 
HETATM   25  C   UNL     1      28.254  52.061  38.328  1.00  0.00     0.005 A 
HETATM   26  C   UNL     1      27.440  50.997  38.718  1.00  0.00     0.029 A 
BRANCH  23  27
HETATM   27  O   UNL     1      29.645  53.182  41.465  1.00  0.00    -0.356 OA
HETATM   28  C   UNL     1      30.822  53.769  40.931  1.00  0.00     0.210 C 
ENDBRANCH  23  27
ENDBRANCH  18  21
ENDBRANCH  16  17
ENDBRANCH   2  16
TORSDOF 6
ENDMDL
MODEL 8
REMARK VINA RESULT:      -8.1      4.147      7.999
REMARK  6 active torsions:
REMARK  status: ('A' for Active; 'I' for Inactive)
REMARK    1  A    between atoms: C_2  and  N_3 
REMARK    2  A    between atoms: C_2  and  C_16 
REMARK    3  A    between atoms: N_3  and  C_6 
REMARK    4  A    between atoms: C_16  and  C_17 
REMARK       I    between atoms: C_17  and  N_18 
REMARK    5  A    between atoms: N_18  and  C_19 
REMARK    6  A    between atoms: C_21  and  O_22 
ROOT
HETATM    1  C   UNL     1      28.242  40.895  53.270  1.00  0.00     0.040 C 
HETATM    2  C   UNL     1      28.469  41.856  52.113  1.00  0.00     0.191 C 
ENDROOT
BRANCH   2   3
HETATM    3  N   UNL     1      29.010  43.186  52.605  1.00  0.00    -0.063 N 
HETATM    4  H   UNL     1      30.024  43.143  52.373  1.00  0.00     0.278 HD
HETATM    5  H   UNL     1      28.651  43.956  52.029  1.00  0.00     0.278 HD
BRANCH   3   6
HETATM    6  C   UNL     1      28.957  43.586  54.067  1.00  0.00     0.221 C 
HETATM    7  C   UNL     1      28.211  44.867  54.357  1.00  0.00    -0.011 A 
HETATM    8  C   UNL     1      28.722  45.863  55.206  1.00  0.00     0.009 A 
HETATM    9  C   UNL     1      26.912  45.046  53.829  1.00  0.00     0.011 A 
HETATM   10  C   UNL     1      27.982  47.028  55.449  1.00  0.00     0.019 A 
HETATM   11  S   UNL     1      30.290  45.725  56.043  1.00  0.00    -0.129 SA
HETATM   12  C   UNL     1      26.719  47.201  54.889  1.00  0.00     0.001 A 
HETATM   13  C   UNL     1      26.180  46.204  54.086  1.00  0.00     0.001 A 
HETATM   14  C   UNL     1      30.461  43.926  56.077  1.00  0.00     0.082 C 
HETATM   15  C   UNL     1      30.367  43.413  54.654  1.00  0.00     0.048 C 
ENDBRANCH   3   6
ENDBRANCH   2   3
BRANCH   2  16
HETATM   16  C   UNL     1      27.141  42.097  51.357  1.00  0.00     0.135 C 
BRANCH  16  17
HETATM   17  C   UNL     1      27.353  42.123  49.865  1.00  0.00     0.224 C 
HETATM   18  N   UNL     1      27.716  41.030  49.150  1.00  0.00    -0.327 N 
HETATM   19  H   UNL     1      27.851  41.267  48.170  1.00  0.00     0.169 HD
HETATM   20  O   UNL     1      27.126  43.178  49.254  1.00  0.00    -0.273 OA
BRANCH  18  21
HETATM   21  C   UNL     1      27.888  39.661  49.444  1.00  0.00     0.037 A 
HETATM   22  C   UNL     1      29.047  39.066  49.952  1.00  0.00     0.066 A 
HETATM   23  C   UNL     1      29.075  37.694  50.244  1.00  0.00     0.070 A 
HETATM   24  C   UNL     1      27.940  36.914  50.026  1.00  0.00     0.037 A 
HETATM   25  C   UNL     1      26.782  37.489  49.516  1.00  0.00     0.005 A 
HETATM   26  C   UNL     1      26.759  38.853  49.228  1.00  0.00     0.029 A 
BRANCH  23  27
HETATM   27  O   UNL     1      30.137  37.000  50.755  1.00  0.00    -0.356 OA
HETATM   28  C   UNL     1      29.877  36.029  51.758  1.00  0.00     0.210 C 
ENDBRANCH  23  27
ENDBRANCH  18  21
ENDBRANCH  16  17
ENDBRANCH   2  16
TORSDOF 6
ENDMDL
MODEL 9
REMARK VINA RESULT:      -8.1     11.692     14.482
REMARK  6 active torsions:
REMARK  status: ('A' for Active; 'I' for Inactive)
REMARK    1  A    between atoms: C_2  and  N_3 
REMARK    2  A    between atoms: C_2  and  C_16 
REMARK    3  A    between atoms: N_3  and  C_6 
REMARK    4  A    between atoms: C_16  and  C_17 
REMARK       I    between atoms: C_17  and  N_18 
REMARK    5  A    between atoms: N_18  and  C_19 
REMARK    6  A    between atoms: C_21  and  O_22 
ROOT
HETATM    1  C   UNL     1      29.493  46.299  39.353  1.00  0.00     0.040 C 
HETATM    2  C   UNL     1      29.567  47.759  39.775  1.00  0.00     0.191 C 
ENDROOT
BRANCH   2   3
HETATM    3  N   UNL     1      29.890  48.654  38.593  1.00  0.00    -0.063 N 
HETATM    4  H   UNL     1      30.923  48.580  38.499  1.00  0.00     0.278 HD
HETATM    5  H   UNL     1      29.527  48.247  37.723  1.00  0.00     0.278 HD
BRANCH   3   6
HETATM    6  C   UNL     1      29.602  50.144  38.608  1.00  0.00     0.221 C 
HETATM    7  C   UNL     1      30.768  51.021  38.999  1.00  0.00    -0.011 A 
HETATM    8  C   UNL     1      30.645  52.071  39.925  1.00  0.00     0.009 A 
HETATM    9  C   UNL     1      32.013  50.844  38.355  1.00  0.00     0.011 A 
HETATM   10  C   UNL     1      31.759  52.861  40.244  1.00  0.00     0.019 A 
HETATM   11  S   UNL     1      29.111  52.494  40.726  1.00  0.00    -0.129 SA
HETATM   12  C   UNL     1      32.987  52.646  39.624  1.00  0.00     0.001 A 
HETATM   13  C   UNL     1      33.112  51.642  38.673  1.00  0.00     0.001 A 
HETATM   14  C   UNL     1      27.942  51.825  39.521  1.00  0.00     0.082 C 
HETATM   15  C   UNL     1      28.256  50.356  39.320  1.00  0.00     0.048 C 
ENDBRANCH   3   6
ENDBRANCH   2   3
BRANCH   2  16
HETATM   16  C   UNL     1      30.653  47.943  40.861  1.00  0.00     0.135 C 
BRANCH  16  17
HETATM   17  C   UNL     1      30.112  48.675  42.063  1.00  0.00     0.224 C 
HETATM   18  N   UNL     1      30.862  49.516  42.817  1.00  0.00    -0.327 N 
HETATM   19  H   UNL     1      30.325  49.871  43.605  1.00  0.00     0.169 HD
HETATM   20  O   UNL     1      28.909  48.550  42.338  1.00  0.00    -0.273 OA
BRANCH  18  21
HETATM   21  C   UNL     1      32.169  50.037  42.724  1.00  0.00     0.037 A 
HETATM   22  C   UNL     1      33.166  49.611  41.842  1.00  0.00     0.066 A 
HETATM   23  C   UNL     1      34.418  50.244  41.819  1.00  0.00     0.070 A 
HETATM   24  C   UNL     1      34.672  51.309  42.683  1.00  0.00     0.037 A 
HETATM   25  C   UNL     1      33.694  51.741  43.570  1.00  0.00     0.005 A 
HETATM   26  C   UNL     1      32.452  51.108  43.588  1.00  0.00     0.029 A 
BRANCH  23  27
HETATM   27  O   UNL     1      35.465  49.932  40.997  1.00  0.00    -0.356 OA
HETATM   28  C   UNL     1      36.680  50.646  41.167  1.00  0.00     0.210 C 
ENDBRANCH  23  27
ENDBRANCH  18  21
ENDBRANCH  16  17
ENDBRANCH   2  16
TORSDOF 6
ENDMDL
MODEL 10
REMARK VINA RESULT:      -8.0      2.116      3.190
REMARK  6 active torsions:
REMARK  status: ('A' for Active; 'I' for Inactive)
REMARK    1  A    between atoms: C_2  and  N_3 
REMARK    2  A    between atoms: C_2  and  C_16 
REMARK    3  A    between atoms: N_3  and  C_6 
REMARK    4  A    between atoms: C_16  and  C_17 
REMARK       I    between atoms: C_17  and  N_18 
REMARK    5  A    between atoms: N_18  and  C_19 
REMARK    6  A    between atoms: C_21  and  O_22 
ROOT
HETATM    1  C   UNL     1      24.093  44.541  50.908  1.00  0.00     0.040 C 
HETATM    2  C   UNL     1      25.352  45.317  51.265  1.00  0.00     0.191 C 
ENDROOT
BRANCH   2   3
HETATM    3  N   UNL     1      25.748  45.082  52.711  1.00  0.00    -0.063 N 
HETATM    4  H   UNL     1      24.955  45.480  53.254  1.00  0.00     0.278 HD
HETATM    5  H   UNL     1      25.728  44.080  52.932  1.00  0.00     0.278 HD
BRANCH   3   6
HETATM    6  C   UNL     1      26.992  45.705  53.317  1.00  0.00     0.221 C 
HETATM    7  C   UNL     1      28.118  44.740  53.607  1.00  0.00    -0.011 A 
HETATM    8  C   UNL     1      28.820  44.744  54.824  1.00  0.00     0.009 A 
HETATM    9  C   UNL     1      28.548  43.855  52.593  1.00  0.00     0.011 A 
HETATM   10  C   UNL     1      29.866  43.833  55.035  1.00  0.00     0.019 A 
HETATM   11  S   UNL     1      28.476  45.884  56.149  1.00  0.00    -0.129 SA
HETATM   12  C   UNL     1      30.250  42.943  54.035  1.00  0.00     0.001 A 
HETATM   13  C   UNL     1      29.596  42.960  52.810  1.00  0.00     0.001 A 
HETATM   14  C   UNL     1      27.717  47.227  55.208  1.00  0.00     0.082 C 
HETATM   15  C   UNL     1      26.543  46.661  54.434  1.00  0.00     0.048 C 
ENDBRANCH   3   6
ENDBRANCH   2   3
BRANCH   2  16
HETATM   16  C   UNL     1      25.122  46.831  51.042  1.00  0.00     0.135 C 
BRANCH  16  17
HETATM   17  C   UNL     1      25.728  47.293  49.741  1.00  0.00     0.224 C 
HETATM   18  N   UNL     1      25.093  48.131  48.885  1.00  0.00    -0.327 N 
HETATM   19  H   UNL     1      25.650  48.283  48.048  1.00  0.00     0.169 HD
HETATM   20  O   UNL     1      26.886  46.941  49.470  1.00  0.00    -0.273 OA
BRANCH  18  21
HETATM   21  C   UNL     1      23.887  48.863  48.920  1.00  0.00     0.037 A 
HETATM   22  C   UNL     1      22.613  48.342  49.168  1.00  0.00     0.066 A 
HETATM   23  C   UNL     1      21.495  49.187  49.219  1.00  0.00     0.070 A 
HETATM   24  C   UNL     1      21.652  50.559  49.021  1.00  0.00     0.037 A 
HETATM   25  C   UNL     1      22.910  51.091  48.768  1.00  0.00     0.005 A 
HETATM   26  C   UNL     1      24.019  50.247  48.719  1.00  0.00     0.029 A 
BRANCH  23  27
HETATM   27  O   UNL     1      20.205  48.804  49.466  1.00  0.00    -0.356 OA
HETATM   28  C   UNL     1      19.250  49.819  49.739  1.00  0.00     0.210 C 
ENDBRANCH  23  27
ENDBRANCH  18  21
ENDBRANCH  16  17
ENDBRANCH   2  16
TORSDOF 6
ENDMDL
