MODEL 1
REMARK VINA RESULT:      -8.2      0.000      0.000
REMARK  10 active torsions:
REMARK  status: ('A' for Active; 'I' for Inactive)
REMARK    1  A    between atoms: O_2  and  C_3 
REMARK    2  A    between atoms: C_4  and  O_5 
REMARK    3  A    between atoms: O_5  and  C_6 
REMARK    4  A    between atoms: C_6  and  C_7 
REMARK       I    between atoms: C_7  and  N_8 
REMARK    5  A    between atoms: N_8  and  C_9 
REMARK    6  A    between atoms: C_9  and  N_10 
REMARK    7  A    between atoms: N_10  and  N_11 
REMARK    8  A    between atoms: N_11  and  C_12 
REMARK    9  A    between atoms: C_12  and  N_13 
REMARK   10  A    between atoms: N_13  and  C_14 
ROOT
HETATM    1  C   UNL     1      25.911  47.655  50.046  1.00  0.00     0.193 C 
HETATM    2  S   UNL     1      26.950  48.673  49.217  1.00  0.00    -0.039 SA
ENDROOT
BRANCH   1   3
HETATM    3  N   UNL     1      26.266  46.723  51.024  1.00  0.00    -0.301 N 
HETATM    4  C   UNL     1      26.071  46.738  52.410  1.00  0.00     0.248 C 
HETATM    5  O   UNL     1      25.553  47.642  53.058  1.00  0.00    -0.271 OA
HETATM    6  H   UNL     1      26.778  45.926  50.677  1.00  0.00     0.171 HD
BRANCH   4   7
HETATM    7  C   UNL     1      26.613  45.475  53.094  1.00  0.00     0.278 C 
BRANCH   7   8
HETATM    8  O   UNL     1      27.177  45.669  54.388  1.00  0.00    -0.339 OA
BRANCH   8   9
HETATM    9  C   UNL     1      28.321  44.948  54.598  1.00  0.00     0.102 A 
HETATM   10  C   UNL     1      29.221  45.216  55.634  1.00  0.00     0.101 A 
HETATM   11  C   UNL     1      30.342  44.406  55.820  1.00  0.00     0.039 A 
HETATM   12  C   UNL     1      30.594  43.360  54.931  1.00  0.00     0.003 A 
HETATM   13  C   UNL     1      29.725  43.123  53.865  1.00  0.00     0.003 A 
HETATM   14  C   UNL     1      28.592  43.920  53.695  1.00  0.00     0.039 A 
BRANCH  10  15
HETATM   15  O   UNL     1      29.003  46.219  56.541  1.00  0.00    -0.353 OA
HETATM   16  C   UNL     1      29.696  45.928  57.758  1.00  0.00     0.210 C 
ENDBRANCH  10  15
ENDBRANCH   8   9
ENDBRANCH   7   8
ENDBRANCH   4   7
ENDBRANCH   1   3
BRANCH   1  17
HETATM   17  N   UNL     1      24.525  47.675  49.868  1.00  0.00    -0.274 N 
HETATM   18  H   UNL     1      23.994  46.812  49.770  1.00  0.00     0.189 HD
BRANCH  17  19
HETATM   19  N   UNL     1      23.889  48.807  49.320  1.00  0.00    -0.274 N 
HETATM   20  H   UNL     1      24.425  49.673  49.385  1.00  0.00     0.189 HD
BRANCH  19  21
HETATM   21  C   UNL     1      22.524  48.882  49.244  1.00  0.00     0.191 C 
HETATM   22  S   UNL     1      21.561  47.752  48.459  1.00  0.00    -0.039 SA
BRANCH  21  23
HETATM   23  N   UNL     1      21.905  49.925  49.869  1.00  0.00    -0.332 N 
HETATM   24  H   UNL     1      22.408  50.245  50.691  1.00  0.00     0.168 HD
BRANCH  23  25
HETATM   25  C   UNL     1      20.672  50.568  49.629  1.00  0.00     0.034 A 
HETATM   26  C   UNL     1      19.497  50.310  50.338  1.00  0.00     0.029 A 
HETATM   27  C   UNL     1      18.323  51.013  50.046  1.00  0.00     0.002 A 
HETATM   28  C   UNL     1      18.318  51.991  49.056  1.00  0.00     0.000 A 
HETATM   29  C   UNL     1      19.491  52.278  48.363  1.00  0.00     0.002 A 
HETATM   30  C   UNL     1      20.663  51.574  48.654  1.00  0.00     0.029 A 
ENDBRANCH  23  25
ENDBRANCH  21  23
ENDBRANCH  19  21
ENDBRANCH  17  19
ENDBRANCH   1  17
TORSDOF 10
ENDMDL
MODEL 2
REMARK VINA RESULT:      -8.0      1.519      2.486
REMARK  10 active torsions:
REMARK  status: ('A' for Active; 'I' for Inactive)
REMARK    1  A    between atoms: O_2  and  C_3 
REMARK    2  A    between atoms: C_4  and  O_5 
REMARK    3  A    between atoms: O_5  and  C_6 
REMARK    4  A    between atoms: C_6  and  C_7 
REMARK       I    between atoms: C_7  and  N_8 
REMARK    5  A    between atoms: N_8  and  C_9 
REMARK    6  A    between atoms: C_9  and  N_10 
REMARK    7  A    between atoms: N_10  and  N_11 
REMARK    8  A    between atoms: N_11  and  C_12 
REMARK    9  A    between atoms: C_12  and  N_13 
REMARK   10  A    between atoms: N_13  and  C_14 
ROOT
HETATM    1  C   UNL     1      25.227  47.343  50.586  1.00  0.00     0.193 C 
HETATM    2  S   UNL     1      26.386  48.033  49.595  1.00  0.00    -0.039 SA
ENDROOT
BRANCH   1   3
HETATM    3  N   UNL     1      25.445  46.752  51.833  1.00  0.00    -0.301 N 
HETATM    4  C   UNL     1      25.014  45.524  52.348  1.00  0.00     0.248 C 
HETATM    5  O   UNL     1      24.295  44.712  51.774  1.00  0.00    -0.271 OA
HETATM    6  H   UNL     1      25.970  47.322  52.480  1.00  0.00     0.171 HD
BRANCH   4   7
HETATM    7  C   UNL     1      25.518  45.275  53.777  1.00  0.00     0.278 C 
BRANCH   7   8
HETATM    8  O   UNL     1      26.016  43.965  54.034  1.00  0.00    -0.339 OA
BRANCH   8   9
HETATM    9  C   UNL     1      27.336  43.944  54.393  1.00  0.00     0.102 A 
HETATM   10  C   UNL     1      28.175  42.846  54.178  1.00  0.00     0.101 A 
HETATM   11  C   UNL     1      29.525  42.914  54.524  1.00  0.00     0.039 A 
HETATM   12  C   UNL     1      30.024  44.063  55.140  1.00  0.00     0.003 A 
HETATM   13  C   UNL     1      29.177  45.140  55.403  1.00  0.00     0.003 A 
HETATM   14  C   UNL     1      27.832  45.078  55.035  1.00  0.00     0.039 A 
BRANCH  10  15
HETATM   15  O   UNL     1      27.733  41.707  53.559  1.00  0.00    -0.353 OA
HETATM   16  C   UNL     1      27.808  41.869  52.140  1.00  0.00     0.210 C 
ENDBRANCH  10  15
ENDBRANCH   8   9
ENDBRANCH   7   8
ENDBRANCH   4   7
ENDBRANCH   1   3
BRANCH   1  17
HETATM   17  N   UNL     1      23.866  47.335  50.272  1.00  0.00    -0.274 N 
HETATM   18  H   UNL     1      23.371  46.463  50.093  1.00  0.00     0.189 HD
BRANCH  17  19
HETATM   19  N   UNL     1      23.256  48.469  49.700  1.00  0.00    -0.274 N 
HETATM   20  H   UNL     1      23.579  49.363  50.071  1.00  0.00     0.189 HD
BRANCH  19  21
HETATM   21  C   UNL     1      22.001  48.398  49.158  1.00  0.00     0.191 C 
HETATM   22  S   UNL     1      21.639  47.608  47.721  1.00  0.00    -0.039 SA
BRANCH  21  23
HETATM   23  N   UNL     1      20.974  48.982  49.842  1.00  0.00    -0.332 N 
HETATM   24  H   UNL     1      20.707  48.459  50.669  1.00  0.00     0.168 HD
BRANCH  23  25
HETATM   25  C   UNL     1      20.180  50.114  49.561  1.00  0.00     0.034 A 
HETATM   26  C   UNL     1      20.560  51.149  48.704  1.00  0.00     0.029 A 
HETATM   27  C   UNL     1      19.697  52.225  48.466  1.00  0.00     0.002 A 
HETATM   28  C   UNL     1      18.442  52.265  49.066  1.00  0.00     0.000 A 
HETATM   29  C   UNL     1      18.041  51.223  49.897  1.00  0.00     0.002 A 
HETATM   30  C   UNL     1      18.904  50.150  50.137  1.00  0.00     0.029 A 
ENDBRANCH  23  25
ENDBRANCH  21  23
ENDBRANCH  19  21
ENDBRANCH  17  19
ENDBRANCH   1  17
TORSDOF 10
ENDMDL
MODEL 3
REMARK VINA RESULT:      -7.9      3.059     10.650
REMARK  10 active torsions:
REMARK  status: ('A' for Active; 'I' for Inactive)
REMARK    1  A    between atoms: O_2  and  C_3 
REMARK    2  A    between atoms: C_4  and  O_5 
REMARK    3  A    between atoms: O_5  and  C_6 
REMARK    4  A    between atoms: C_6  and  C_7 
REMARK       I    between atoms: C_7  and  N_8 
REMARK    5  A    between atoms: N_8  and  C_9 
REMARK    6  A    between atoms: C_9  and  N_10 
REMARK    7  A    between atoms: N_10  and  N_11 
REMARK    8  A    between atoms: N_11  and  C_12 
REMARK    9  A    between atoms: C_12  and  N_13 
REMARK   10  A    between atoms: N_13  and  C_14 
ROOT
HETATM    1  C   UNL     1      24.644  47.163  50.262  1.00  0.00     0.193 C 
HETATM    2  S   UNL     1      26.213  47.625  49.904  1.00  0.00    -0.039 SA
ENDROOT
BRANCH   1   3
HETATM    3  N   UNL     1      23.478  47.863  49.941  1.00  0.00    -0.301 N 
HETATM    4  C   UNL     1      23.303  49.137  49.388  1.00  0.00     0.248 C 
HETATM    5  O   UNL     1      24.195  49.928  49.099  1.00  0.00    -0.271 OA
HETATM    6  H   UNL     1      22.623  47.384  50.183  1.00  0.00     0.171 HD
BRANCH   4   7
HETATM    7  C   UNL     1      21.823  49.492  49.186  1.00  0.00     0.278 C 
BRANCH   7   8
HETATM    8  O   UNL     1      21.301  50.480  50.071  1.00  0.00    -0.339 OA
BRANCH   8   9
HETATM    9  C   UNL     1      20.091  50.981  49.677  1.00  0.00     0.102 A 
HETATM   10  C   UNL     1      18.872  50.569  50.223  1.00  0.00     0.101 A 
HETATM   11  C   UNL     1      17.678  51.162  49.809  1.00  0.00     0.039 A 
HETATM   12  C   UNL     1      17.699  52.127  48.802  1.00  0.00     0.003 A 
HETATM   13  C   UNL     1      18.910  52.503  48.218  1.00  0.00     0.003 A 
HETATM   14  C   UNL     1      20.105  51.926  48.651  1.00  0.00     0.039 A 
BRANCH  10  15
HETATM   15  O   UNL     1      18.806  49.639  51.227  1.00  0.00    -0.353 OA
HETATM   16  C   UNL     1      18.544  48.347  50.672  1.00  0.00     0.210 C 
ENDBRANCH  10  15
ENDBRANCH   8   9
ENDBRANCH   7   8
ENDBRANCH   4   7
ENDBRANCH   1   3
BRANCH   1  17
HETATM   17  N   UNL     1      24.333  45.958  50.897  1.00  0.00    -0.274 N 
HETATM   18  H   UNL     1      23.366  45.668  51.031  1.00  0.00     0.189 HD
BRANCH  17  19
HETATM   19  N   UNL     1      25.241  45.367  51.798  1.00  0.00    -0.274 N 
HETATM   20  H   UNL     1      25.635  46.006  52.490  1.00  0.00     0.189 HD
BRANCH  19  21
HETATM   21  C   UNL     1      25.955  44.251  51.452  1.00  0.00     0.191 C 
HETATM   22  S   UNL     1      25.261  42.817  50.922  1.00  0.00    -0.039 SA
BRANCH  21  23
HETATM   23  N   UNL     1      27.316  44.318  51.514  1.00  0.00    -0.332 N 
HETATM   24  H   UNL     1      27.733  44.644  50.647  1.00  0.00     0.168 HD
BRANCH  23  25
HETATM   25  C   UNL     1      28.231  43.940  52.519  1.00  0.00     0.034 A 
HETATM   26  C   UNL     1      29.312  43.079  52.318  1.00  0.00     0.029 A 
HETATM   27  C   UNL     1      30.184  42.777  53.370  1.00  0.00     0.002 A 
HETATM   28  C   UNL     1      29.994  43.347  54.626  1.00  0.00     0.000 A 
HETATM   29  C   UNL     1      28.937  44.231  54.829  1.00  0.00     0.002 A 
HETATM   30  C   UNL     1      28.066  44.530  53.779  1.00  0.00     0.029 A 
ENDBRANCH  23  25
ENDBRANCH  21  23
ENDBRANCH  19  21
ENDBRANCH  17  19
ENDBRANCH   1  17
TORSDOF 10
ENDMDL
MODEL 4
REMARK VINA RESULT:      -7.8      2.341      3.421
REMARK  10 active torsions:
REMARK  status: ('A' for Active; 'I' for Inactive)
REMARK    1  A    between atoms: O_2  and  C_3 
REMARK    2  A    between atoms: C_4  and  O_5 
REMARK    3  A    between atoms: O_5  and  C_6 
REMARK    4  A    between atoms: C_6  and  C_7 
REMARK       I    between atoms: C_7  and  N_8 
REMARK    5  A    between atoms: N_8  and  C_9 
REMARK    6  A    between atoms: C_9  and  N_10 
REMARK    7  A    between atoms: N_10  and  N_11 
REMARK    8  A    between atoms: N_11  and  C_12 
REMARK    9  A    between atoms: C_12  and  N_13 
REMARK   10  A    between atoms: N_13  and  C_14 
ROOT
HETATM    1  C   UNL     1      24.555  44.292  51.091  1.00  0.00     0.193 C 
HETATM    2  S   UNL     1      24.902  42.699  50.713  1.00  0.00    -0.039 SA
ENDROOT
BRANCH   1   3
HETATM    3  N   UNL     1      25.259  45.106  51.982  1.00  0.00    -0.301 N 
HETATM    4  C   UNL     1      25.396  46.499  52.031  1.00  0.00     0.248 C 
HETATM    5  O   UNL     1      24.921  47.300  51.233  1.00  0.00    -0.271 OA
HETATM    6  H   UNL     1      25.785  44.604  52.683  1.00  0.00     0.171 HD
BRANCH   4   7
HETATM    7  C   UNL     1      26.258  46.964  53.214  1.00  0.00     0.278 C 
BRANCH   7   8
HETATM    8  O   UNL     1      26.189  46.152  54.383  1.00  0.00    -0.339 OA
BRANCH   8   9
HETATM    9  C   UNL     1      27.410  45.717  54.819  1.00  0.00     0.102 A 
HETATM   10  C   UNL     1      28.026  44.553  54.350  1.00  0.00     0.101 A 
HETATM   11  C   UNL     1      29.297  44.198  54.802  1.00  0.00     0.039 A 
HETATM   12  C   UNL     1      29.930  44.979  55.771  1.00  0.00     0.003 A 
HETATM   13  C   UNL     1      29.295  46.113  56.278  1.00  0.00     0.003 A 
HETATM   14  C   UNL     1      28.034  46.479  55.807  1.00  0.00     0.039 A 
BRANCH  10  15
HETATM   15  O   UNL     1      27.451  43.768  53.386  1.00  0.00    -0.353 OA
HETATM   16  C   UNL     1      28.374  43.568  52.312  1.00  0.00     0.210 C 
ENDBRANCH  10  15
ENDBRANCH   8   9
ENDBRANCH   7   8
ENDBRANCH   4   7
ENDBRANCH   1   3
BRANCH   1  17
HETATM   17  N   UNL     1      23.516  45.008  50.491  1.00  0.00    -0.274 N 
HETATM   18  H   UNL     1      22.584  45.025  50.900  1.00  0.00     0.189 HD
BRANCH  17  19
HETATM   19  N   UNL     1      23.545  45.289  49.111  1.00  0.00    -0.274 N 
HETATM   20  H   UNL     1      24.451  45.150  48.663  1.00  0.00     0.189 HD
BRANCH  19  21
HETATM   21  C   UNL     1      22.665  46.178  48.553  1.00  0.00     0.191 C 
HETATM   22  S   UNL     1      21.864  45.925  47.099  1.00  0.00    -0.039 SA
BRANCH  21  23
HETATM   23  N   UNL     1      22.402  47.331  49.235  1.00  0.00    -0.332 N 
HETATM   24  H   UNL     1      21.894  47.168  50.099  1.00  0.00     0.168 HD
BRANCH  23  25
HETATM   25  C   UNL     1      22.631  48.686  48.917  1.00  0.00     0.034 A 
HETATM   26  C   UNL     1      23.823  49.178  48.380  1.00  0.00     0.029 A 
HETATM   27  C   UNL     1      23.954  50.537  48.073  1.00  0.00     0.002 A 
HETATM   28  C   UNL     1      22.891  51.410  48.281  1.00  0.00     0.000 A 
HETATM   29  C   UNL     1      21.688  50.924  48.786  1.00  0.00     0.002 A 
HETATM   30  C   UNL     1      21.558  49.568  49.096  1.00  0.00     0.029 A 
ENDBRANCH  23  25
ENDBRANCH  21  23
ENDBRANCH  19  21
ENDBRANCH  17  19
ENDBRANCH   1  17
TORSDOF 10
ENDMDL
MODEL 5
REMARK VINA RESULT:      -7.8      2.940     10.439
REMARK  10 active torsions:
REMARK  status: ('A' for Active; 'I' for Inactive)
REMARK    1  A    between atoms: O_2  and  C_3 
REMARK    2  A    between atoms: C_4  and  O_5 
REMARK    3  A    between atoms: O_5  and  C_6 
REMARK    4  A    between atoms: C_6  and  C_7 
REMARK       I    between atoms: C_7  and  N_8 
REMARK    5  A    between atoms: N_8  and  C_9 
REMARK    6  A    between atoms: C_9  and  N_10 
REMARK    7  A    between atoms: N_10  and  N_11 
REMARK    8  A    between atoms: N_11  and  C_12 
REMARK    9  A    between atoms: C_12  and  N_13 
REMARK   10  A    between atoms: N_13  and  C_14 
ROOT
HETATM    1  C   UNL     1      24.631  45.381  51.078  1.00  0.00     0.193 C 
HETATM    2  S   UNL     1      24.882  43.726  51.088  1.00  0.00    -0.039 SA
ENDROOT
BRANCH   1   3
HETATM    3  N   UNL     1      23.893  46.103  50.137  1.00  0.00    -0.301 N 
HETATM    4  C   UNL     1      24.017  47.429  49.703  1.00  0.00     0.248 C 
HETATM    5  O   UNL     1      24.824  48.253  50.121  1.00  0.00    -0.271 OA
HETATM    6  H   UNL     1      23.120  45.596  49.731  1.00  0.00     0.171 HD
BRANCH   4   7
HETATM    7  C   UNL     1      22.989  47.793  48.623  1.00  0.00     0.278 C 
BRANCH   7   8
HETATM    8  O   UNL     1      21.626  47.763  49.036  1.00  0.00    -0.339 OA
BRANCH   8   9
HETATM    9  C   UNL     1      21.040  48.999  49.076  1.00  0.00     0.102 A 
HETATM   10  C   UNL     1      19.787  49.240  49.646  1.00  0.00     0.101 A 
HETATM   11  C   UNL     1      19.273  50.536  49.697  1.00  0.00     0.039 A 
HETATM   12  C   UNL     1      19.990  51.587  49.123  1.00  0.00     0.003 A 
HETATM   13  C   UNL     1      21.218  51.341  48.507  1.00  0.00     0.003 A 
HETATM   14  C   UNL     1      21.740  50.047  48.478  1.00  0.00     0.039 A 
BRANCH  10  15
HETATM   15  O   UNL     1      19.057  48.243  50.238  1.00  0.00    -0.353 OA
HETATM   16  C   UNL     1      17.966  47.874  49.391  1.00  0.00     0.210 C 
ENDBRANCH  10  15
ENDBRANCH   8   9
ENDBRANCH   7   8
ENDBRANCH   4   7
ENDBRANCH   1   3
BRANCH   1  17
HETATM   17  N   UNL     1      25.111  46.229  52.079  1.00  0.00    -0.274 N 
HETATM   18  H   UNL     1      24.767  47.183  52.171  1.00  0.00     0.189 HD
BRANCH  17  19
HETATM   19  N   UNL     1      26.384  46.019  52.645  1.00  0.00    -0.274 N 
HETATM   20  H   UNL     1      26.948  45.307  52.181  1.00  0.00     0.189 HD
BRANCH  19  21
HETATM   21  C   UNL     1      26.622  46.288  53.967  1.00  0.00     0.191 C 
HETATM   22  S   UNL     1      26.352  47.780  54.687  1.00  0.00    -0.039 SA
BRANCH  21  23
HETATM   23  N   UNL     1      27.082  45.272  54.754  1.00  0.00    -0.332 N 
HETATM   24  H   UNL     1      26.339  44.806  55.265  1.00  0.00     0.168 HD
BRANCH  23  25
HETATM   25  C   UNL     1      28.387  44.822  55.041  1.00  0.00     0.034 A 
HETATM   26  C   UNL     1      29.262  45.454  55.927  1.00  0.00     0.029 A 
HETATM   27  C   UNL     1      30.534  44.922  56.169  1.00  0.00     0.002 A 
HETATM   28  C   UNL     1      30.934  43.745  55.542  1.00  0.00     0.000 A 
HETATM   29  C   UNL     1      30.058  43.091  54.680  1.00  0.00     0.002 A 
HETATM   30  C   UNL     1      28.790  43.624  54.437  1.00  0.00     0.029 A 
ENDBRANCH  23  25
ENDBRANCH  21  23
ENDBRANCH  19  21
ENDBRANCH  17  19
ENDBRANCH   1  17
TORSDOF 10
ENDMDL
MODEL 6
REMARK VINA RESULT:      -7.7      1.840      2.267
REMARK  10 active torsions:
REMARK  status: ('A' for Active; 'I' for Inactive)
REMARK    1  A    between atoms: O_2  and  C_3 
REMARK    2  A    between atoms: C_4  and  O_5 
REMARK    3  A    between atoms: O_5  and  C_6 
REMARK    4  A    between atoms: C_6  and  C_7 
REMARK       I    between atoms: C_7  and  N_8 
REMARK    5  A    between atoms: N_8  and  C_9 
REMARK    6  A    between atoms: C_9  and  N_10 
REMARK    7  A    between atoms: N_10  and  N_11 
REMARK    8  A    between atoms: N_11  and  C_12 
REMARK    9  A    between atoms: C_12  and  N_13 
REMARK   10  A    between atoms: N_13  and  C_14 
ROOT
HETATM    1  C   UNL     1      23.967  45.891  49.654  1.00  0.00     0.193 C 
HETATM    2  S   UNL     1      22.931  45.127  48.584  1.00  0.00    -0.039 SA
ENDROOT
BRANCH   1   3
HETATM    3  N   UNL     1      25.097  45.334  50.257  1.00  0.00    -0.301 N 
HETATM    4  C   UNL     1      25.216  44.281  51.172  1.00  0.00     0.248 C 
HETATM    5  O   UNL     1      24.290  43.643  51.663  1.00  0.00    -0.271 OA
HETATM    6  H   UNL     1      25.966  45.790  50.021  1.00  0.00     0.171 HD
BRANCH   4   7
HETATM    7  C   UNL     1      26.675  43.992  51.551  1.00  0.00     0.278 C 
BRANCH   7   8
HETATM    8  O   UNL     1      26.863  43.057  52.609  1.00  0.00    -0.339 OA
BRANCH   8   9
HETATM    9  C   UNL     1      28.059  43.198  53.257  1.00  0.00     0.102 A 
HETATM   10  C   UNL     1      28.231  43.995  54.393  1.00  0.00     0.101 A 
HETATM   11  C   UNL     1      29.470  44.051  55.033  1.00  0.00     0.039 A 
HETATM   12  C   UNL     1      30.555  43.354  54.501  1.00  0.00     0.003 A 
HETATM   13  C   UNL     1      30.399  42.599  53.338  1.00  0.00     0.003 A 
HETATM   14  C   UNL     1      29.153  42.526  52.713  1.00  0.00     0.039 A 
BRANCH  10  15
HETATM   15  O   UNL     1      27.190  44.680  54.961  1.00  0.00    -0.353 OA
HETATM   16  C   UNL     1      27.365  46.084  54.754  1.00  0.00     0.210 C 
ENDBRANCH  10  15
ENDBRANCH   8   9
ENDBRANCH   7   8
ENDBRANCH   4   7
ENDBRANCH   1   3
BRANCH   1  17
HETATM   17  N   UNL     1      23.827  47.232  50.022  1.00  0.00    -0.274 N 
HETATM   18  H   UNL     1      24.267  47.595  50.866  1.00  0.00     0.189 HD
BRANCH  17  19
HETATM   19  N   UNL     1      22.719  47.983  49.583  1.00  0.00    -0.274 N 
HETATM   20  H   UNL     1      21.996  47.443  49.106  1.00  0.00     0.189 HD
BRANCH  19  21
HETATM   21  C   UNL     1      22.839  49.317  49.297  1.00  0.00     0.191 C 
HETATM   22  S   UNL     1      23.889  49.942  48.145  1.00  0.00    -0.039 SA
BRANCH  21  23
HETATM   23  N   UNL     1      22.035  50.191  49.970  1.00  0.00    -0.332 N 
HETATM   24  H   UNL     1      22.426  50.475  50.863  1.00  0.00     0.168 HD
BRANCH  23  25
HETATM   25  C   UNL     1      20.746  50.691  49.689  1.00  0.00     0.034 A 
HETATM   26  C   UNL     1      19.592  50.333  50.389  1.00  0.00     0.029 A 
HETATM   27  C   UNL     1      18.357  50.898  50.054  1.00  0.00     0.002 A 
HETATM   28  C   UNL     1      18.267  51.838  49.031  1.00  0.00     0.000 A 
HETATM   29  C   UNL     1      19.417  52.224  48.347  1.00  0.00     0.002 A 
HETATM   30  C   UNL     1      20.650  51.658  48.680  1.00  0.00     0.029 A 
ENDBRANCH  23  25
ENDBRANCH  21  23
ENDBRANCH  19  21
ENDBRANCH  17  19
ENDBRANCH   1  17
TORSDOF 10
ENDMDL
MODEL 7
REMARK VINA RESULT:      -7.6      3.933      8.994
REMARK  10 active torsions:
REMARK  status: ('A' for Active; 'I' for Inactive)
REMARK    1  A    between atoms: O_2  and  C_3 
REMARK    2  A    between atoms: C_4  and  O_5 
REMARK    3  A    between atoms: O_5  and  C_6 
REMARK    4  A    between atoms: C_6  and  C_7 
REMARK       I    between atoms: C_7  and  N_8 
REMARK    5  A    between atoms: N_8  and  C_9 
REMARK    6  A    between atoms: C_9  and  N_10 
REMARK    7  A    between atoms: N_10  and  N_11 
REMARK    8  A    between atoms: N_11  and  C_12 
REMARK    9  A    between atoms: C_12  and  N_13 
REMARK   10  A    between atoms: N_13  and  C_14 
ROOT
HETATM    1  C   UNL     1      23.877  43.944  50.256  1.00  0.00     0.193 C 
HETATM    2  S   UNL     1      23.180  42.528  49.699  1.00  0.00    -0.039 SA
ENDROOT
BRANCH   1   3
HETATM    3  N   UNL     1      23.538  45.244  49.873  1.00  0.00    -0.301 N 
HETATM    4  C   UNL     1      23.035  45.735  48.663  1.00  0.00     0.248 C 
HETATM    5  O   UNL     1      22.822  45.078  47.649  1.00  0.00    -0.271 OA
HETATM    6  H   UNL     1      23.719  45.948  50.574  1.00  0.00     0.171 HD
BRANCH   4   7
HETATM    7  C   UNL     1      22.785  47.250  48.701  1.00  0.00     0.278 C 
BRANCH   7   8
HETATM    8  O   UNL     1      23.465  47.960  49.732  1.00  0.00    -0.339 OA
BRANCH   8   9
HETATM    9  C   UNL     1      24.624  48.554  49.312  1.00  0.00     0.102 A 
HETATM   10  C   UNL     1      25.896  48.052  49.603  1.00  0.00     0.101 A 
HETATM   11  C   UNL     1      27.034  48.682  49.098  1.00  0.00     0.039 A 
HETATM   12  C   UNL     1      26.902  49.851  48.348  1.00  0.00     0.003 A 
HETATM   13  C   UNL     1      25.636  50.384  48.100  1.00  0.00     0.003 A 
HETATM   14  C   UNL     1      24.497  49.738  48.587  1.00  0.00     0.039 A 
BRANCH  10  15
HETATM   15  O   UNL     1      26.073  46.896  50.317  1.00  0.00    -0.353 OA
HETATM   16  C   UNL     1      27.067  46.085  49.686  1.00  0.00     0.210 C 
ENDBRANCH  10  15
ENDBRANCH   8   9
ENDBRANCH   7   8
ENDBRANCH   4   7
ENDBRANCH   1   3
BRANCH   1  17
HETATM   17  N   UNL     1      24.873  43.967  51.236  1.00  0.00    -0.274 N 
HETATM   18  H   UNL     1      25.386  43.124  51.486  1.00  0.00     0.189 HD
BRANCH  17  19
HETATM   19  N   UNL     1      24.865  44.955  52.242  1.00  0.00    -0.274 N 
HETATM   20  H   UNL     1      24.623  45.892  51.920  1.00  0.00     0.189 HD
BRANCH  19  21
HETATM   21  C   UNL     1      25.636  44.824  53.366  1.00  0.00     0.191 C 
HETATM   22  S   UNL     1      25.060  44.271  54.843  1.00  0.00    -0.039 SA
BRANCH  21  23
HETATM   23  N   UNL     1      26.962  45.134  53.273  1.00  0.00    -0.332 N 
HETATM   24  H   UNL     1      27.122  46.053  52.872  1.00  0.00     0.168 HD
BRANCH  23  25
HETATM   25  C   UNL     1      28.125  44.385  53.551  1.00  0.00     0.034 A 
HETATM   26  C   UNL     1      28.659  43.415  52.701  1.00  0.00     0.029 A 
HETATM   27  C   UNL     1      29.832  42.736  53.048  1.00  0.00     0.002 A 
HETATM   28  C   UNL     1      30.491  43.034  54.238  1.00  0.00     0.000 A 
HETATM   29  C   UNL     1      29.983  44.022  55.078  1.00  0.00     0.002 A 
HETATM   30  C   UNL     1      28.810  44.697  54.732  1.00  0.00     0.029 A 
ENDBRANCH  23  25
ENDBRANCH  21  23
ENDBRANCH  19  21
ENDBRANCH  17  19
ENDBRANCH   1  17
TORSDOF 10
ENDMDL
MODEL 8
REMARK VINA RESULT:      -7.5      3.452     10.031
REMARK  10 active torsions:
REMARK  status: ('A' for Active; 'I' for Inactive)
REMARK    1  A    between atoms: O_2  and  C_3 
REMARK    2  A    between atoms: C_4  and  O_5 
REMARK    3  A    between atoms: O_5  and  C_6 
REMARK    4  A    between atoms: C_6  and  C_7 
REMARK       I    between atoms: C_7  and  N_8 
REMARK    5  A    between atoms: N_8  and  C_9 
REMARK    6  A    between atoms: C_9  and  N_10 
REMARK    7  A    between atoms: N_10  and  N_11 
REMARK    8  A    between atoms: N_11  and  C_12 
REMARK    9  A    between atoms: C_12  and  N_13 
REMARK   10  A    between atoms: N_13  and  C_14 
ROOT
HETATM    1  C   UNL     1      24.309  45.090  50.736  1.00  0.00     0.193 C 
HETATM    2  S   UNL     1      25.432  45.791  51.761  1.00  0.00    -0.039 SA
ENDROOT
BRANCH   1   3
HETATM    3  N   UNL     1      23.383  45.762  49.934  1.00  0.00    -0.301 N 
HETATM    4  C   UNL     1      22.972  45.520  48.618  1.00  0.00     0.248 C 
HETATM    5  O   UNL     1      23.402  44.644  47.876  1.00  0.00    -0.271 OA
HETATM    6  H   UNL     1      22.970  46.576  50.364  1.00  0.00     0.171 HD
BRANCH   4   7
HETATM    7  C   UNL     1      21.900  46.513  48.144  1.00  0.00     0.278 C 
BRANCH   7   8
HETATM    8  O   UNL     1      22.383  47.637  47.414  1.00  0.00    -0.339 OA
BRANCH   8   9
HETATM    9  C   UNL     1      22.038  48.839  47.970  1.00  0.00     0.102 A 
HETATM   10  C   UNL     1      22.764  49.448  48.999  1.00  0.00     0.101 A 
HETATM   11  C   UNL     1      22.383  50.699  49.483  1.00  0.00     0.039 A 
HETATM   12  C   UNL     1      21.238  51.318  48.978  1.00  0.00     0.003 A 
HETATM   13  C   UNL     1      20.483  50.688  47.988  1.00  0.00     0.003 A 
HETATM   14  C   UNL     1      20.879  49.446  47.488  1.00  0.00     0.039 A 
BRANCH  10  15
HETATM   15  O   UNL     1      23.904  48.887  49.511  1.00  0.00    -0.353 OA
HETATM   16  C   UNL     1      25.043  49.367  48.792  1.00  0.00     0.210 C 
ENDBRANCH  10  15
ENDBRANCH   8   9
ENDBRANCH   7   8
ENDBRANCH   4   7
ENDBRANCH   1   3
BRANCH   1  17
HETATM   17  N   UNL     1      24.220  43.710  50.535  1.00  0.00    -0.274 N 
HETATM   18  H   UNL     1      23.423  43.298  50.053  1.00  0.00     0.189 HD
BRANCH  17  19
HETATM   19  N   UNL     1      24.903  42.817  51.385  1.00  0.00    -0.274 N 
HETATM   20  H   UNL     1      24.666  42.901  52.374  1.00  0.00     0.189 HD
BRANCH  19  21
HETATM   21  C   UNL     1      26.130  42.315  51.043  1.00  0.00     0.191 C 
HETATM   22  S   UNL     1      26.739  42.303  49.478  1.00  0.00    -0.039 SA
BRANCH  21  23
HETATM   23  N   UNL     1      26.919  41.818  52.040  1.00  0.00    -0.332 N 
HETATM   24  H   UNL     1      26.707  40.851  52.262  1.00  0.00     0.168 HD
BRANCH  23  25
HETATM   25  C   UNL     1      27.897  42.425  52.855  1.00  0.00     0.034 A 
HETATM   26  C   UNL     1      27.613  43.221  53.966  1.00  0.00     0.029 A 
HETATM   27  C   UNL     1      28.650  43.765  54.733  1.00  0.00     0.002 A 
HETATM   28  C   UNL     1      29.978  43.502  54.406  1.00  0.00     0.000 A 
HETATM   29  C   UNL     1      30.271  42.685  53.319  1.00  0.00     0.002 A 
HETATM   30  C   UNL     1      29.236  42.144  52.552  1.00  0.00     0.029 A 
ENDBRANCH  23  25
ENDBRANCH  21  23
ENDBRANCH  19  21
ENDBRANCH  17  19
ENDBRANCH   1  17
TORSDOF 10
ENDMDL
MODEL 9
REMARK VINA RESULT:      -7.5      2.354      3.278
REMARK  10 active torsions:
REMARK  status: ('A' for Active; 'I' for Inactive)
REMARK    1  A    between atoms: O_2  and  C_3 
REMARK    2  A    between atoms: C_4  and  O_5 
REMARK    3  A    between atoms: O_5  and  C_6 
REMARK    4  A    between atoms: C_6  and  C_7 
REMARK       I    between atoms: C_7  and  N_8 
REMARK    5  A    between atoms: N_8  and  C_9 
REMARK    6  A    between atoms: C_9  and  N_10 
REMARK    7  A    between atoms: N_10  and  N_11 
REMARK    8  A    between atoms: N_11  and  C_12 
REMARK    9  A    between atoms: C_12  and  N_13 
REMARK   10  A    between atoms: N_13  and  C_14 
ROOT
HETATM    1  C   UNL     1      23.166  45.669  49.150  1.00  0.00     0.193 C 
HETATM    2  S   UNL     1      23.205  44.354  48.114  1.00  0.00    -0.039 SA
ENDROOT
BRANCH   1   3
HETATM    3  N   UNL     1      24.141  46.015  50.089  1.00  0.00    -0.301 N 
HETATM    4  C   UNL     1      24.655  47.266  50.450  1.00  0.00     0.248 C 
HETATM    5  O   UNL     1      24.348  48.344  49.953  1.00  0.00    -0.271 OA
HETATM    6  H   UNL     1      24.569  45.230  50.557  1.00  0.00     0.171 HD
BRANCH   4   7
HETATM    7  C   UNL     1      25.712  47.170  51.560  1.00  0.00     0.278 C 
BRANCH   7   8
HETATM    8  O   UNL     1      25.696  45.966  52.322  1.00  0.00    -0.339 OA
BRANCH   8   9
HETATM    9  C   UNL     1      26.572  45.973  53.372  1.00  0.00     0.102 A 
HETATM   10  C   UNL     1      27.124  44.812  53.923  1.00  0.00     0.101 A 
HETATM   11  C   UNL     1      28.052  44.898  54.961  1.00  0.00     0.039 A 
HETATM   12  C   UNL     1      28.385  46.146  55.490  1.00  0.00     0.003 A 
HETATM   13  C   UNL     1      27.795  47.302  54.977  1.00  0.00     0.003 A 
HETATM   14  C   UNL     1      26.885  47.216  53.922  1.00  0.00     0.039 A 
BRANCH  10  15
HETATM   15  O   UNL     1      26.842  43.569  53.423  1.00  0.00    -0.353 OA
HETATM   16  C   UNL     1      27.668  42.592  54.062  1.00  0.00     0.210 C 
ENDBRANCH  10  15
ENDBRANCH   8   9
ENDBRANCH   7   8
ENDBRANCH   4   7
ENDBRANCH   1   3
BRANCH   1  17
HETATM   17  N   UNL     1      22.139  46.615  49.140  1.00  0.00    -0.274 N 
HETATM   18  H   UNL     1      22.290  47.561  49.485  1.00  0.00     0.189 HD
BRANCH  17  19
HETATM   19  N   UNL     1      20.790  46.207  49.151  1.00  0.00    -0.274 N 
HETATM   20  H   UNL     1      20.631  45.243  48.857  1.00  0.00     0.189 HD
BRANCH  19  21
HETATM   21  C   UNL     1      19.776  47.116  49.002  1.00  0.00     0.191 C 
HETATM   22  S   UNL     1      18.508  46.943  47.915  1.00  0.00    -0.039 SA
BRANCH  21  23
HETATM   23  N   UNL     1      19.781  48.218  49.808  1.00  0.00    -0.332 N 
HETATM   24  H   UNL     1      19.880  47.984  50.790  1.00  0.00     0.168 HD
BRANCH  23  25
HETATM   25  C   UNL     1      19.592  49.588  49.528  1.00  0.00     0.034 A 
HETATM   26  C   UNL     1      20.389  50.331  48.655  1.00  0.00     0.029 A 
HETATM   27  C   UNL     1      20.114  51.682  48.420  1.00  0.00     0.002 A 
HETATM   28  C   UNL     1      19.029  52.297  49.040  1.00  0.00     0.000 A 
HETATM   29  C   UNL     1      18.210  51.557  49.888  1.00  0.00     0.002 A 
HETATM   30  C   UNL     1      18.487  50.208  50.125  1.00  0.00     0.029 A 
ENDBRANCH  23  25
ENDBRANCH  21  23
ENDBRANCH  19  21
ENDBRANCH  17  19
ENDBRANCH   1  17
TORSDOF 10
ENDMDL
MODEL 10
REMARK VINA RESULT:      -7.3     12.439     14.626
REMARK  10 active torsions:
REMARK  status: ('A' for Active; 'I' for Inactive)
REMARK    1  A    between atoms: O_2  and  C_3 
REMARK    2  A    between atoms: C_4  and  O_5 
REMARK    3  A    between atoms: O_5  and  C_6 
REMARK    4  A    between atoms: C_6  and  C_7 
REMARK       I    between atoms: C_7  and  N_8 
REMARK    5  A    between atoms: N_8  and  C_9 
REMARK    6  A    between atoms: C_9  and  N_10 
REMARK    7  A    between atoms: N_10  and  N_11 
REMARK    8  A    between atoms: N_11  and  C_12 
REMARK    9  A    between atoms: C_12  and  N_13 
REMARK   10  A    between atoms: N_13  and  C_14 
ROOT
HETATM    1  C   UNL     1      25.329  48.619  39.198  1.00  0.00     0.193 C 
HETATM    2  S   UNL     1      23.679  48.365  39.322  1.00  0.00    -0.039 SA
ENDROOT
BRANCH   1   3
HETATM    3  N   UNL     1      26.063  49.631  39.822  1.00  0.00    -0.301 N 
HETATM    4  C   UNL     1      27.041  50.493  39.314  1.00  0.00     0.248 C 
HETATM    5  O   UNL     1      27.481  50.492  38.169  1.00  0.00    -0.271 OA
HETATM    6  H   UNL     1      25.882  49.731  40.811  1.00  0.00     0.171 HD
BRANCH   4   7
HETATM    7  C   UNL     1      27.567  51.475  40.371  1.00  0.00     0.278 C 
BRANCH   7   8
HETATM    8  O   UNL     1      28.527  52.421  39.909  1.00  0.00    -0.339 OA
BRANCH   8   9
HETATM    9  C   UNL     1      29.757  52.279  40.492  1.00  0.00     0.102 A 
HETATM   10  C   UNL     1      30.917  51.973  39.775  1.00  0.00     0.101 A 
HETATM   11  C   UNL     1      32.148  51.894  40.429  1.00  0.00     0.039 A 
HETATM   12  C   UNL     1      32.208  52.065  41.812  1.00  0.00     0.003 A 
HETATM   13  C   UNL     1      31.043  52.319  42.537  1.00  0.00     0.003 A 
HETATM   14  C   UNL     1      29.817  52.421  41.878  1.00  0.00     0.039 A 
BRANCH  10  15
HETATM   15  O   UNL     1      30.909  51.818  38.414  1.00  0.00    -0.353 OA
HETATM   16  C   UNL     1      32.052  51.062  38.007  1.00  0.00     0.210 C 
ENDBRANCH  10  15
ENDBRANCH   8   9
ENDBRANCH   7   8
ENDBRANCH   4   7
ENDBRANCH   1   3
BRANCH   1  17
HETATM   17  N   UNL     1      26.175  47.779  38.470  1.00  0.00    -0.274 N 
HETATM   18  H   UNL     1      25.902  47.416  37.559  1.00  0.00     0.189 HD
BRANCH  17  19
HETATM   19  N   UNL     1      27.155  47.006  39.126  1.00  0.00    -0.274 N 
HETATM   20  H   UNL     1      26.976  46.838  40.116  1.00  0.00     0.189 HD
BRANCH  19  21
HETATM   21  C   UNL     1      28.448  46.976  38.677  1.00  0.00     0.191 C 
HETATM   22  S   UNL     1      29.068  45.784  37.671  1.00  0.00    -0.039 SA
BRANCH  21  23
HETATM   23  N   UNL     1      29.278  47.995  39.047  1.00  0.00    -0.332 N 
HETATM   24  H   UNL     1      29.324  48.735  38.354  1.00  0.00     0.168 HD
BRANCH  23  25
HETATM   25  C   UNL     1      30.129  48.156  40.161  1.00  0.00     0.034 A 
HETATM   26  C   UNL     1      31.517  48.008  40.119  1.00  0.00     0.029 A 
HETATM   27  C   UNL     1      32.287  48.210  41.270  1.00  0.00     0.002 A 
HETATM   28  C   UNL     1      31.678  48.580  42.466  1.00  0.00     0.000 A 
HETATM   29  C   UNL     1      30.299  48.761  42.511  1.00  0.00     0.002 A 
HETATM   30  C   UNL     1      29.530  48.556  41.362  1.00  0.00     0.029 A 
ENDBRANCH  23  25
ENDBRANCH  21  23
ENDBRANCH  19  21
ENDBRANCH  17  19
ENDBRANCH   1  17
TORSDOF 10
ENDMDL
