MODEL 1
REMARK VINA RESULT:     -10.3      0.000      0.000
REMARK  7 active torsions:
REMARK  status: ('A' for Active; 'I' for Inactive)
REMARK    1  A    between atoms: C_3  and  C_4 
REMARK       I    between atoms: C_4  and  N_5 
REMARK    2  A    between atoms: C_8  and  N_9 
REMARK       I    between atoms: N_9  and  C_10 
REMARK    3  A    between atoms: C_10  and  C_11 
REMARK    4  A    between atoms: C_11  and  N_12 
REMARK       I    between atoms: N_15  and  C_16 
REMARK    5  A    between atoms: C_16  and  C_17 
REMARK    6  A    between atoms: C_32  and  C_33 
REMARK    7  A    between atoms: C_33  and  O_34 
ROOT
HETATM    1  C   UNL     1      23.534  44.849  48.456  1.00  0.00     0.375 C 
ENDROOT
BRANCH   1   2
HETATM    2  C   UNL     1      22.584  45.960  47.989  1.00  0.00     0.251 C 
HETATM    3  N   UNL     1      22.174  46.768  49.034  1.00  0.00    -0.319 N 
HETATM    4  H   UNL     1      22.613  46.598  49.932  1.00  0.00     0.169 HD
HETATM    5  O   UNL     1      22.349  46.135  46.797  1.00  0.00    -0.271 OA
BRANCH   3   6
HETATM    6  C   UNL     1      21.495  47.954  48.870  1.00  0.00     0.094 C 
HETATM    7  S   UNL     1      19.819  47.735  49.007  1.00  0.00    -0.065 SA
HETATM    8  C   UNL     1      19.522  49.423  49.036  1.00  0.00     0.081 C 
HETATM    9  C   UNL     1      20.687  50.141  48.775  1.00  0.00    -0.020 C 
HETATM   10  C   UNL     1      20.755  51.636  48.635  1.00  0.00     0.051 C 
HETATM   11  C   UNL     1      21.850  49.266  48.639  1.00  0.00     0.080 C 
BRANCH   8  12
HETATM   12  C   UNL     1      18.179  49.936  49.295  1.00  0.00     0.256 C 
HETATM   13  N   UNL     1      17.224  49.687  48.348  1.00  0.00    -0.365 N 
HETATM   14  H   UNL     1      17.424  49.165  47.508  1.00  0.00     0.159 HD
HETATM   15  H   UNL     1      16.288  50.023  48.523  1.00  0.00     0.159 HD
HETATM   16  O   UNL     1      17.848  50.564  50.298  1.00  0.00    -0.267 OA
ENDBRANCH   8  12
BRANCH  11  17
HETATM   17  C   UNL     1      23.193  49.723  48.274  1.00  0.00     0.296 C 
HETATM   18  O   UNL     1      23.479  50.158  47.164  1.00  0.00    -0.259 OA
BRANCH  17  19
HETATM   19  O   UNL     1      24.109  49.467  49.258  1.00  0.00    -0.322 OA
HETATM   20  C   UNL     1      25.443  49.317  48.776  1.00  0.00     0.213 C 
ENDBRANCH  17  19
ENDBRANCH  11  17
ENDBRANCH   3   6
ENDBRANCH   1   2
BRANCH   1  21
HETATM   21  N   UNL     1      22.977  44.136  49.629  1.00  0.00     0.100 N 
HETATM   22  C   UNL     1      23.115  42.666  49.481  1.00  0.00     0.293 C 
HETATM   23  C   UNL     1      24.557  42.125  49.582  1.00  0.00     0.156 C 
HETATM   24  N   UNL     1      25.296  42.653  50.733  1.00  0.00    -0.344 N 
HETATM   25  C   UNL     1      26.409  41.914  51.168  1.00  0.00     0.262 C 
HETATM   26  C   UNL     1      25.111  44.079  51.022  1.00  0.00     0.156 C 
HETATM   27  O   UNL     1      26.651  40.800  50.706  1.00  0.00    -0.267 OA
HETATM   28  C   UNL     1      23.649  44.539  50.880  1.00  0.00     0.293 C 
BRANCH  25  29
HETATM   29  C   UNL     1      27.239  42.486  52.204  1.00  0.00     0.096 A 
HETATM   30  S   UNL     1      26.854  44.008  52.866  1.00  0.00    -0.082 SA
HETATM   31  C   UNL     1      28.227  43.990  53.907  1.00  0.00     0.019 A 
HETATM   32  C   UNL     1      29.007  42.845  53.706  1.00  0.00     0.004 A 
HETATM   33  C   UNL     1      28.580  44.974  54.852  1.00  0.00     0.043 A 
HETATM   34  C   UNL     1      28.420  41.990  52.708  1.00  0.00     0.068 A 
HETATM   35  C   UNL     1      30.193  42.711  54.476  1.00  0.00     0.016 A 
HETATM   36 CL   UNL     1      29.131  40.498  52.236  1.00  0.00    -0.082 Cl
HETATM   37  C   UNL     1      30.553  43.687  55.411  1.00  0.00     0.025 A 
HETATM   38  C   UNL     1      29.747  44.800  55.596  1.00  0.00     0.035 A 
HETATM   39 CL   UNL     1      30.193  45.989  56.759  1.00  0.00    -0.084 Cl
ENDBRANCH  25  29
ENDBRANCH   1  21
TORSDOF 7
ENDMDL
MODEL 2
REMARK VINA RESULT:      -9.5      4.451     10.631
REMARK  7 active torsions:
REMARK  status: ('A' for Active; 'I' for Inactive)
REMARK    1  A    between atoms: C_3  and  C_4 
REMARK       I    between atoms: C_4  and  N_5 
REMARK    2  A    between atoms: C_8  and  N_9 
REMARK       I    between atoms: N_9  and  C_10 
REMARK    3  A    between atoms: C_10  and  C_11 
REMARK    4  A    between atoms: C_11  and  N_12 
REMARK       I    between atoms: N_15  and  C_16 
REMARK    5  A    between atoms: C_16  and  C_17 
REMARK    6  A    between atoms: C_32  and  C_33 
REMARK    7  A    between atoms: C_33  and  O_34 
ROOT
HETATM    1  C   UNL     1      24.157  44.739  50.718  1.00  0.00     0.375 C 
ENDROOT
BRANCH   1   2
HETATM    2  C   UNL     1      25.572  44.958  51.273  1.00  0.00     0.251 C 
HETATM    3  N   UNL     1      25.683  44.548  52.590  1.00  0.00    -0.319 N 
HETATM    4  H   UNL     1      24.875  44.077  52.983  1.00  0.00     0.169 HD
HETATM    5  O   UNL     1      26.485  45.341  50.549  1.00  0.00    -0.271 OA
BRANCH   3   6
HETATM    6  C   UNL     1      26.878  44.437  53.263  1.00  0.00     0.094 C 
HETATM    7  S   UNL     1      27.239  45.849  54.128  1.00  0.00    -0.065 SA
HETATM    8  C   UNL     1      28.545  45.105  54.951  1.00  0.00     0.081 C 
HETATM    9  C   UNL     1      28.801  43.834  54.440  1.00  0.00    -0.020 C 
HETATM   10  C   UNL     1      29.938  42.953  54.875  1.00  0.00     0.051 C 
HETATM   11  C   UNL     1      27.834  43.454  53.411  1.00  0.00     0.080 C 
BRANCH   8  12
HETATM   12  C   UNL     1      29.243  45.807  56.026  1.00  0.00     0.256 C 
HETATM   13  N   UNL     1      28.483  46.249  57.076  1.00  0.00    -0.365 N 
HETATM   14  H   UNL     1      27.487  46.094  57.121  1.00  0.00     0.159 HD
HETATM   15  H   UNL     1      28.956  46.722  57.832  1.00  0.00     0.159 HD
HETATM   16  O   UNL     1      30.452  46.021  56.058  1.00  0.00    -0.267 OA
ENDBRANCH   8  12
BRANCH  11  17
HETATM   17  C   UNL     1      27.899  42.218  52.629  1.00  0.00     0.296 C 
HETATM   18  O   UNL     1      27.961  41.102  53.136  1.00  0.00    -0.259 OA
BRANCH  17  19
HETATM   19  O   UNL     1      28.034  42.461  51.289  1.00  0.00    -0.322 OA
HETATM   20  C   UNL     1      27.167  41.678  50.473  1.00  0.00     0.213 C 
ENDBRANCH  17  19
ENDBRANCH  11  17
ENDBRANCH   3   6
ENDBRANCH   1   2
BRANCH   1  21
HETATM   21  N   UNL     1      24.128  44.940  49.252  1.00  0.00     0.100 N 
HETATM   22  C   UNL     1      23.238  43.954  48.590  1.00  0.00     0.293 C 
HETATM   23  C   UNL     1      21.729  44.148  48.850  1.00  0.00     0.156 C 
HETATM   24  N   UNL     1      21.281  45.532  48.666  1.00  0.00    -0.344 N 
HETATM   25  C   UNL     1      19.910  45.731  48.436  1.00  0.00     0.262 C 
HETATM   26  C   UNL     1      22.173  46.575  49.182  1.00  0.00     0.156 C 
HETATM   27  O   UNL     1      19.154  44.780  48.241  1.00  0.00    -0.267 OA
HETATM   28  C   UNL     1      23.659  46.295  48.897  1.00  0.00     0.293 C 
BRANCH  25  29
HETATM   29  C   UNL     1      19.420  47.092  48.397  1.00  0.00     0.096 A 
HETATM   30  S   UNL     1      18.938  47.869  49.833  1.00  0.00    -0.082 SA
HETATM   31  C   UNL     1      18.489  49.306  48.997  1.00  0.00     0.019 A 
HETATM   32  C   UNL     1      18.656  49.169  47.615  1.00  0.00     0.004 A 
HETATM   33  C   UNL     1      17.998  50.496  49.572  1.00  0.00     0.043 A 
HETATM   34  C   UNL     1      19.191  47.873  47.287  1.00  0.00     0.068 A 
HETATM   35  C   UNL     1      18.293  50.269  46.792  1.00  0.00     0.016 A 
HETATM   36 CL   UNL     1      19.521  47.392  45.671  1.00  0.00    -0.082 Cl
HETATM   37  C   UNL     1      17.801  51.450  47.356  1.00  0.00     0.025 A 
HETATM   38  C   UNL     1      17.663  51.558  48.731  1.00  0.00     0.035 A 
HETATM   39 CL   UNL     1      17.068  53.022  49.414  1.00  0.00    -0.084 Cl
ENDBRANCH  25  29
ENDBRANCH   1  21
TORSDOF 7
ENDMDL
MODEL 3
REMARK VINA RESULT:      -9.5      4.809     10.987
REMARK  7 active torsions:
REMARK  status: ('A' for Active; 'I' for Inactive)
REMARK    1  A    between atoms: C_3  and  C_4 
REMARK       I    between atoms: C_4  and  N_5 
REMARK    2  A    between atoms: C_8  and  N_9 
REMARK       I    between atoms: N_9  and  C_10 
REMARK    3  A    between atoms: C_10  and  C_11 
REMARK    4  A    between atoms: C_11  and  N_12 
REMARK       I    between atoms: N_15  and  C_16 
REMARK    5  A    between atoms: C_16  and  C_17 
REMARK    6  A    between atoms: C_32  and  C_33 
REMARK    7  A    between atoms: C_33  and  O_34 
ROOT
HETATM    1  C   UNL     1      23.899  47.923  50.041  1.00  0.00     0.375 C 
ENDROOT
BRANCH   1   2
HETATM    2  C   UNL     1      25.099  47.029  50.385  1.00  0.00     0.251 C 
HETATM    3  N   UNL     1      24.876  46.275  51.523  1.00  0.00    -0.319 N 
HETATM    4  H   UNL     1      23.944  46.325  51.920  1.00  0.00     0.169 HD
HETATM    5  O   UNL     1      26.065  46.947  49.634  1.00  0.00    -0.271 OA
BRANCH   3   6
HETATM    6  C   UNL     1      25.691  45.246  51.937  1.00  0.00     0.094 C 
HETATM    7  S   UNL     1      25.369  43.815  51.087  1.00  0.00    -0.065 SA
HETATM    8  C   UNL     1      26.756  43.033  51.722  1.00  0.00     0.081 C 
HETATM    9  C   UNL     1      27.364  43.811  52.705  1.00  0.00    -0.020 C 
HETATM   10  C   UNL     1      28.546  43.378  53.526  1.00  0.00     0.051 C 
HETATM   11  C   UNL     1      26.708  45.109  52.859  1.00  0.00     0.080 C 
BRANCH   8  12
HETATM   12  C   UNL     1      27.153  41.713  51.235  1.00  0.00     0.256 C 
HETATM   13  N   UNL     1      26.806  40.637  52.004  1.00  0.00    -0.365 N 
HETATM   14  H   UNL     1      26.292  40.736  52.867  1.00  0.00     0.159 HD
HETATM   15  H   UNL     1      27.061  39.718  51.671  1.00  0.00     0.159 HD
HETATM   16  O   UNL     1      27.763  41.505  50.190  1.00  0.00    -0.267 OA
ENDBRANCH   8  12
BRANCH  11  17
HETATM   17  C   UNL     1      27.065  46.102  53.873  1.00  0.00     0.296 C 
HETATM   18  O   UNL     1      28.016  45.975  54.637  1.00  0.00    -0.259 OA
BRANCH  17  19
HETATM   19  O   UNL     1      26.134  47.102  53.966  1.00  0.00    -0.322 OA
HETATM   20  C   UNL     1      26.342  47.979  55.071  1.00  0.00     0.213 C 
ENDBRANCH  17  19
ENDBRANCH  11  17
ENDBRANCH   3   6
ENDBRANCH   1   2
BRANCH   1  21
HETATM   21  N   UNL     1      23.611  47.884  48.589  1.00  0.00     0.100 N 
HETATM   22  C   UNL     1      22.959  46.607  48.203  1.00  0.00     0.293 C 
HETATM   23  C   UNL     1      21.510  46.429  48.701  1.00  0.00     0.156 C 
HETATM   24  N   UNL     1      20.662  47.598  48.452  1.00  0.00    -0.344 N 
HETATM   25  C   UNL     1      19.273  47.387  48.445  1.00  0.00     0.262 C 
HETATM   26  C   UNL     1      21.279  48.908  48.689  1.00  0.00     0.156 C 
HETATM   27  O   UNL     1      18.803  46.251  48.488  1.00  0.00    -0.267 OA
HETATM   28  C   UNL     1      22.728  48.994  48.179  1.00  0.00     0.293 C 
BRANCH  25  29
HETATM   29  C   UNL     1      18.412  48.545  48.347  1.00  0.00     0.096 A 
HETATM   30  S   UNL     1      17.792  49.024  46.835  1.00  0.00    -0.082 SA
HETATM   31  C   UNL     1      16.975  50.381  47.511  1.00  0.00     0.019 A 
HETATM   32  C   UNL     1      17.223  50.497  48.884  1.00  0.00     0.004 A 
HETATM   33  C   UNL     1      16.157  51.300  46.824  1.00  0.00     0.043 A 
HETATM   34  C   UNL     1      18.066  49.425  49.347  1.00  0.00     0.068 A 
HETATM   35  C   UNL     1      16.637  51.593  49.571  1.00  0.00     0.016 A 
HETATM   36 CL   UNL     1      18.550  49.275  50.989  1.00  0.00    -0.082 Cl
HETATM   37  C   UNL     1      15.829  52.512  48.894  1.00  0.00     0.025 A 
HETATM   38  C   UNL     1      15.591  52.357  47.537  1.00  0.00     0.035 A 
HETATM   39 CL   UNL     1      14.584  53.487  46.717  1.00  0.00    -0.084 Cl
ENDBRANCH  25  29
ENDBRANCH   1  21
TORSDOF 7
ENDMDL
MODEL 4
REMARK VINA RESULT:      -9.5      4.438     10.593
REMARK  7 active torsions:
REMARK  status: ('A' for Active; 'I' for Inactive)
REMARK    1  A    between atoms: C_3  and  C_4 
REMARK       I    between atoms: C_4  and  N_5 
REMARK    2  A    between atoms: C_8  and  N_9 
REMARK       I    between atoms: N_9  and  C_10 
REMARK    3  A    between atoms: C_10  and  C_11 
REMARK    4  A    between atoms: C_11  and  N_12 
REMARK       I    between atoms: N_15  and  C_16 
REMARK    5  A    between atoms: C_16  and  C_17 
REMARK    6  A    between atoms: C_32  and  C_33 
REMARK    7  A    between atoms: C_33  and  O_34 
ROOT
HETATM    1  C   UNL     1      22.103  44.252  48.575  1.00  0.00     0.375 C 
ENDROOT
BRANCH   1   2
HETATM    2  C   UNL     1      22.976  43.666  49.694  1.00  0.00     0.251 C 
HETATM    3  N   UNL     1      24.323  43.714  49.382  1.00  0.00    -0.319 N 
HETATM    4  H   UNL     1      24.569  44.203  48.528  1.00  0.00     0.169 HD
HETATM    5  O   UNL     1      22.488  43.324  50.767  1.00  0.00    -0.271 OA
BRANCH   3   6
HETATM    6  C   UNL     1      25.331  43.452  50.281  1.00  0.00     0.094 C 
HETATM    7  S   UNL     1      25.636  41.789  50.407  1.00  0.00    -0.065 SA
HETATM    8  C   UNL     1      27.059  42.039  51.329  1.00  0.00     0.081 C 
HETATM    9  C   UNL     1      27.201  43.382  51.675  1.00  0.00    -0.020 C 
HETATM   10  C   UNL     1      28.289  43.924  52.559  1.00  0.00     0.051 C 
HETATM   11  C   UNL     1      26.154  44.213  51.084  1.00  0.00     0.080 C 
BRANCH   8  12
HETATM   12  C   UNL     1      27.932  40.918  51.667  1.00  0.00     0.256 C 
HETATM   13  N   UNL     1      28.053  40.601  52.992  1.00  0.00    -0.365 N 
HETATM   14  H   UNL     1      27.559  41.106  53.713  1.00  0.00     0.159 HD
HETATM   15  H   UNL     1      28.642  39.818  53.237  1.00  0.00     0.159 HD
HETATM   16  O   UNL     1      28.554  40.241  50.852  1.00  0.00    -0.267 OA
ENDBRANCH   8  12
BRANCH  11  17
HETATM   17  C   UNL     1      25.989  45.645  51.341  1.00  0.00     0.296 C 
HETATM   18  O   UNL     1      25.913  46.123  52.468  1.00  0.00    -0.259 OA
BRANCH  17  19
HETATM   19  O   UNL     1      25.780  46.355  50.190  1.00  0.00    -0.322 OA
HETATM   20  C   UNL     1      26.184  47.720  50.275  1.00  0.00     0.213 C 
ENDBRANCH  17  19
ENDBRANCH  11  17
ENDBRANCH   3   6
ENDBRANCH   1   2
BRANCH   1  21
HETATM   21  N   UNL     1      22.773  45.403  47.930  1.00  0.00     0.100 N 
HETATM   22  C   UNL     1      22.457  45.468  46.481  1.00  0.00     0.293 C 
HETATM   23  C   UNL     1      21.005  45.862  46.139  1.00  0.00     0.156 C 
HETATM   24  N   UNL     1      20.533  47.038  46.878  1.00  0.00    -0.344 N 
HETATM   25  C   UNL     1      19.439  47.733  46.335  1.00  0.00     0.262 C 
HETATM   26  C   UNL     1      20.915  47.110  48.292  1.00  0.00     0.156 C 
HETATM   27  O   UNL     1      19.005  47.460  45.217  1.00  0.00    -0.267 OA
HETATM   28  C   UNL     1      22.371  46.683  48.547  1.00  0.00     0.293 C 
BRANCH  25  29
HETATM   29  C   UNL     1      18.863  48.806  47.116  1.00  0.00     0.096 A 
HETATM   30  S   UNL     1      17.219  48.755  47.558  1.00  0.00    -0.082 SA
HETATM   31  C   UNL     1      17.307  50.277  48.360  1.00  0.00     0.019 A 
HETATM   32  C   UNL     1      18.580  50.846  48.241  1.00  0.00     0.004 A 
HETATM   33  C   UNL     1      16.266  50.924  49.054  1.00  0.00     0.043 A 
HETATM   34  C   UNL     1      19.466  49.979  47.508  1.00  0.00     0.068 A 
HETATM   35  C   UNL     1      18.791  52.122  48.828  1.00  0.00     0.016 A 
HETATM   36 CL   UNL     1      21.106  50.386  47.196  1.00  0.00    -0.082 Cl
HETATM   37  C   UNL     1      17.760  52.773  49.514  1.00  0.00     0.025 A 
HETATM   38  C   UNL     1      16.516  52.172  49.627  1.00  0.00     0.035 A 
HETATM   39 CL   UNL     1      15.258  52.976  50.484  1.00  0.00    -0.084 Cl
ENDBRANCH  25  29
ENDBRANCH   1  21
TORSDOF 7
ENDMDL
MODEL 5
REMARK VINA RESULT:      -9.4      2.469      3.558
REMARK  7 active torsions:
REMARK  status: ('A' for Active; 'I' for Inactive)
REMARK    1  A    between atoms: C_3  and  C_4 
REMARK       I    between atoms: C_4  and  N_5 
REMARK    2  A    between atoms: C_8  and  N_9 
REMARK       I    between atoms: N_9  and  C_10 
REMARK    3  A    between atoms: C_10  and  C_11 
REMARK    4  A    between atoms: C_11  and  N_12 
REMARK       I    between atoms: N_15  and  C_16 
REMARK    5  A    between atoms: C_16  and  C_17 
REMARK    6  A    between atoms: C_32  and  C_33 
REMARK    7  A    between atoms: C_33  and  O_34 
ROOT
HETATM    1  C   UNL     1      20.534  45.220  49.144  1.00  0.00     0.375 C 
ENDROOT
BRANCH   1   2
HETATM    2  C   UNL     1      19.727  46.386  48.556  1.00  0.00     0.251 C 
HETATM    3  N   UNL     1      19.726  47.491  49.389  1.00  0.00    -0.319 N 
HETATM    4  H   UNL     1      20.320  47.434  50.210  1.00  0.00     0.169 HD
HETATM    5  O   UNL     1      19.262  46.328  47.422  1.00  0.00    -0.271 OA
BRANCH   3   6
HETATM    6  C   UNL     1      19.261  48.732  49.021  1.00  0.00     0.094 C 
HETATM    7  S   UNL     1      17.602  48.699  48.675  1.00  0.00    -0.065 SA
HETATM    8  C   UNL     1      17.504  50.408  48.594  1.00  0.00     0.081 C 
HETATM    9  C   UNL     1      18.770  50.986  48.667  1.00  0.00    -0.020 C 
HETATM   10  C   UNL     1      19.045  52.458  48.531  1.00  0.00     0.051 C 
HETATM   11  C   UNL     1      19.816  49.987  48.882  1.00  0.00     0.080 C 
BRANCH   8  12
HETATM   12  C   UNL     1      16.211  51.072  48.451  1.00  0.00     0.256 C 
HETATM   13  N   UNL     1      15.751  51.779  49.529  1.00  0.00    -0.365 N 
HETATM   14  H   UNL     1      16.278  51.852  50.387  1.00  0.00     0.159 HD
HETATM   15  H   UNL     1      14.866  52.255  49.437  1.00  0.00     0.159 HD
HETATM   16  O   UNL     1      15.516  51.048  47.438  1.00  0.00    -0.267 OA
ENDBRANCH   8  12
BRANCH  11  17
HETATM   17  C   UNL     1      21.250  50.282  48.910  1.00  0.00     0.296 C 
HETATM   18  O   UNL     1      21.824  50.745  49.891  1.00  0.00    -0.259 OA
BRANCH  17  19
HETATM   19  O   UNL     1      21.833  50.125  47.683  1.00  0.00    -0.322 OA
HETATM   20  C   UNL     1      23.230  50.410  47.669  1.00  0.00     0.213 C 
ENDBRANCH  17  19
ENDBRANCH  11  17
ENDBRANCH   3   6
ENDBRANCH   1   2
BRANCH   1  21
HETATM   21  N   UNL     1      21.610  44.802  48.217  1.00  0.00     0.100 N 
HETATM   22  C   UNL     1      22.258  45.975  47.580  1.00  0.00     0.293 C 
HETATM   23  C   UNL     1      23.126  46.839  48.519  1.00  0.00     0.156 C 
HETATM   24  N   UNL     1      24.051  46.055  49.342  1.00  0.00    -0.344 N 
HETATM   25  C   UNL     1      25.161  46.733  49.874  1.00  0.00     0.262 C 
HETATM   26  C   UNL     1      23.519  44.809  49.905  1.00  0.00     0.156 C 
HETATM   27  O   UNL     1      25.424  47.885  49.533  1.00  0.00    -0.267 OA
HETATM   28  C   UNL     1      22.652  44.018  48.910  1.00  0.00     0.293 C 
BRANCH  25  29
HETATM   29  C   UNL     1      26.007  46.020  50.805  1.00  0.00     0.096 A 
HETATM   30  S   UNL     1      26.949  44.705  50.272  1.00  0.00    -0.082 SA
HETATM   31  C   UNL     1      27.574  44.411  51.849  1.00  0.00     0.019 A 
HETATM   32  C   UNL     1      27.019  45.285  52.791  1.00  0.00     0.004 A 
HETATM   33  C   UNL     1      28.516  43.428  52.212  1.00  0.00     0.043 A 
HETATM   34  C   UNL     1      26.106  46.206  52.166  1.00  0.00     0.068 A 
HETATM   35  C   UNL     1      27.420  45.137  54.146  1.00  0.00     0.016 A 
HETATM   36 CL   UNL     1      25.264  47.415  53.049  1.00  0.00    -0.082 Cl
HETATM   37  C   UNL     1      28.351  44.159  54.514  1.00  0.00     0.025 A 
HETATM   38  C   UNL     1      28.892  43.322  53.551  1.00  0.00     0.035 A 
HETATM   39 CL   UNL     1      30.046  42.130  54.014  1.00  0.00    -0.084 Cl
ENDBRANCH  25  29
ENDBRANCH   1  21
TORSDOF 7
ENDMDL
MODEL 6
REMARK VINA RESULT:      -9.3      4.491     10.777
REMARK  7 active torsions:
REMARK  status: ('A' for Active; 'I' for Inactive)
REMARK    1  A    between atoms: C_3  and  C_4 
REMARK       I    between atoms: C_4  and  N_5 
REMARK    2  A    between atoms: C_8  and  N_9 
REMARK       I    between atoms: N_9  and  C_10 
REMARK    3  A    between atoms: C_10  and  C_11 
REMARK    4  A    between atoms: C_11  and  N_12 
REMARK       I    between atoms: N_15  and  C_16 
REMARK    5  A    between atoms: C_16  and  C_17 
REMARK    6  A    between atoms: C_32  and  C_33 
REMARK    7  A    between atoms: C_33  and  O_34 
ROOT
HETATM    1  C   UNL     1      21.908  44.314  48.667  1.00  0.00     0.375 C 
ENDROOT
BRANCH   1   2
HETATM    2  C   UNL     1      22.847  43.528  49.594  1.00  0.00     0.251 C 
HETATM    3  N   UNL     1      24.173  43.870  49.402  1.00  0.00    -0.319 N 
HETATM    4  H   UNL     1      24.350  44.642  48.768  1.00  0.00     0.169 HD
HETATM    5  O   UNL     1      22.403  42.787  50.466  1.00  0.00    -0.271 OA
BRANCH   3   6
HETATM    6  C   UNL     1      25.197  43.478  50.233  1.00  0.00     0.094 C 
HETATM    7  S   UNL     1      25.372  44.533  51.548  1.00  0.00    -0.065 SA
HETATM    8  C   UNL     1      26.470  43.486  52.345  1.00  0.00     0.081 C 
HETATM    9  C   UNL     1      26.824  42.415  51.526  1.00  0.00    -0.020 C 
HETATM   10  C   UNL     1      27.838  41.366  51.885  1.00  0.00     0.051 C 
HETATM   11  C   UNL     1      26.096  42.432  50.258  1.00  0.00     0.080 C 
BRANCH   8  12
HETATM   12  C   UNL     1      26.925  43.779  53.702  1.00  0.00     0.256 C 
HETATM   13  N   UNL     1      26.340  43.077  54.720  1.00  0.00    -0.365 N 
HETATM   14  H   UNL     1      25.631  42.379  54.552  1.00  0.00     0.159 HD
HETATM   15  H   UNL     1      26.657  43.260  55.661  1.00  0.00     0.159 HD
HETATM   16  O   UNL     1      27.794  44.599  53.990  1.00  0.00    -0.267 OA
ENDBRANCH   8  12
BRANCH  11  17
HETATM   17  C   UNL     1      26.321  41.489  49.161  1.00  0.00     0.296 C 
HETATM   18  O   UNL     1      25.704  40.436  49.040  1.00  0.00    -0.259 OA
BRANCH  17  19
HETATM   19  O   UNL     1      27.391  41.845  48.386  1.00  0.00    -0.322 OA
HETATM   20  C   UNL     1      27.546  41.044  47.217  1.00  0.00     0.213 C 
ENDBRANCH  17  19
ENDBRANCH  11  17
ENDBRANCH   3   6
ENDBRANCH   1   2
BRANCH   1  21
HETATM   21  N   UNL     1      22.600  45.484  48.083  1.00  0.00     0.100 N 
HETATM   22  C   UNL     1      22.366  45.574  46.620  1.00  0.00     0.293 C 
HETATM   23  C   UNL     1      20.931  45.960  46.204  1.00  0.00     0.156 C 
HETATM   24  N   UNL     1      20.405  47.116  46.936  1.00  0.00    -0.344 N 
HETATM   25  C   UNL     1      19.336  47.810  46.346  1.00  0.00     0.262 C 
HETATM   26  C   UNL     1      20.705  47.165  48.371  1.00  0.00     0.156 C 
HETATM   27  O   UNL     1      18.969  47.555  45.200  1.00  0.00    -0.267 OA
HETATM   28  C   UNL     1      22.150  46.748  48.700  1.00  0.00     0.293 C 
BRANCH  25  29
HETATM   29  C   UNL     1      18.704  48.861  47.113  1.00  0.00     0.096 A 
HETATM   30  S   UNL     1      17.035  48.795  47.443  1.00  0.00    -0.082 SA
HETATM   31  C   UNL     1      17.062  50.297  48.286  1.00  0.00     0.019 A 
HETATM   32  C   UNL     1      18.338  50.873  48.266  1.00  0.00     0.004 A 
HETATM   33  C   UNL     1      15.974  50.924  48.926  1.00  0.00     0.043 A 
HETATM   34  C   UNL     1      19.274  50.027  47.573  1.00  0.00     0.068 A 
HETATM   35  C   UNL     1      18.503  52.134  48.897  1.00  0.00     0.016 A 
HETATM   36 CL   UNL     1      20.930  50.446  47.381  1.00  0.00    -0.082 Cl
HETATM   37  C   UNL     1      17.425  52.764  49.529  1.00  0.00     0.025 A 
HETATM   38  C   UNL     1      16.180  52.157  49.544  1.00  0.00     0.035 A 
HETATM   39 CL   UNL     1      14.864  52.936  50.336  1.00  0.00    -0.084 Cl
ENDBRANCH  25  29
ENDBRANCH   1  21
TORSDOF 7
ENDMDL
MODEL 7
REMARK VINA RESULT:      -9.3     14.403     16.435
REMARK  7 active torsions:
REMARK  status: ('A' for Active; 'I' for Inactive)
REMARK    1  A    between atoms: C_3  and  C_4 
REMARK       I    between atoms: C_4  and  N_5 
REMARK    2  A    between atoms: C_8  and  N_9 
REMARK       I    between atoms: N_9  and  C_10 
REMARK    3  A    between atoms: C_10  and  C_11 
REMARK    4  A    between atoms: C_11  and  N_12 
REMARK       I    between atoms: N_15  and  C_16 
REMARK    5  A    between atoms: C_16  and  C_17 
REMARK    6  A    between atoms: C_32  and  C_33 
REMARK    7  A    between atoms: C_33  and  O_34 
ROOT
HETATM    1  C   UNL     1      35.906  51.402  42.710  1.00  0.00     0.375 C 
ENDROOT
BRANCH   1   2
HETATM    2  C   UNL     1      34.860  50.591  41.932  1.00  0.00     0.251 C 
HETATM    3  N   UNL     1      33.567  50.969  42.248  1.00  0.00    -0.319 N 
HETATM    4  H   UNL     1      33.471  51.775  42.857  1.00  0.00     0.169 HD
HETATM    5  O   UNL     1      35.194  49.798  41.057  1.00  0.00    -0.271 OA
BRANCH   3   6
HETATM    6  C   UNL     1      32.453  50.557  41.554  1.00  0.00     0.094 C 
HETATM    7  S   UNL     1      31.818  49.120  42.192  1.00  0.00    -0.065 SA
HETATM    8  C   UNL     1      30.397  49.232  41.239  1.00  0.00     0.081 C 
HETATM    9  C   UNL     1      30.492  50.276  40.321  1.00  0.00    -0.020 C 
HETATM   10  C   UNL     1      29.459  50.587  39.274  1.00  0.00     0.051 C 
HETATM   11  C   UNL     1      31.729  51.037  40.483  1.00  0.00     0.080 C 
BRANCH   8  12
HETATM   12  C   UNL     1      29.295  48.294  41.437  1.00  0.00     0.256 C 
HETATM   13  N   UNL     1      28.440  48.548  42.474  1.00  0.00    -0.365 N 
HETATM   14  H   UNL     1      28.551  49.349  43.078  1.00  0.00     0.159 HD
HETATM   15  H   UNL     1      27.665  47.916  42.611  1.00  0.00     0.159 HD
HETATM   16  O   UNL     1      29.079  47.307  40.738  1.00  0.00    -0.267 OA
ENDBRANCH   8  12
BRANCH  11  17
HETATM   17  C   UNL     1      32.149  52.132  39.606  1.00  0.00     0.296 C 
HETATM   18  O   UNL     1      32.497  51.968  38.441  1.00  0.00    -0.259 OA
BRANCH  17  19
HETATM   19  O   UNL     1      32.252  53.320  40.278  1.00  0.00    -0.322 OA
HETATM   20  C   UNL     1      30.998  53.847  40.708  1.00  0.00     0.213 C 
ENDBRANCH  17  19
ENDBRANCH  11  17
ENDBRANCH   3   6
ENDBRANCH   1   2
BRANCH   1  21
HETATM   21  N   UNL     1      37.108  51.646  41.882  1.00  0.00     0.100 N 
HETATM   22  C   UNL     1      37.095  53.012  41.301  1.00  0.00     0.293 C 
HETATM   23  C   UNL     1      37.309  54.159  42.310  1.00  0.00     0.156 C 
HETATM   24  N   UNL     1      38.443  53.936  43.213  1.00  0.00    -0.344 N 
HETATM   25  C   UNL     1      38.991  55.068  43.838  1.00  0.00     0.262 C 
HETATM   26  C   UNL     1      38.599  52.572  43.730  1.00  0.00     0.156 C 
HETATM   27  O   UNL     1      38.638  56.203  43.519  1.00  0.00    -0.267 OA
HETATM   28  C   UNL     1      38.350  51.490  42.665  1.00  0.00     0.293 C 
BRANCH  25  29
HETATM   29  C   UNL     1      40.011  54.860  44.842  1.00  0.00     0.096 A 
HETATM   30  S   UNL     1      41.646  54.724  44.383  1.00  0.00    -0.082 SA
HETATM   31  C   UNL     1      42.161  54.473  46.008  1.00  0.00     0.019 A 
HETATM   32  C   UNL     1      41.076  54.438  46.890  1.00  0.00     0.004 A 
HETATM   33  C   UNL     1      43.488  54.305  46.454  1.00  0.00     0.043 A 
HETATM   34  C   UNL     1      39.836  54.658  46.192  1.00  0.00     0.068 A 
HETATM   35  C   UNL     1      41.349  54.205  48.265  1.00  0.00     0.016 A 
HETATM   36 CL   UNL     1      38.317  54.684  46.993  1.00  0.00    -0.082 Cl
HETATM   37  C   UNL     1      42.663  54.033  48.713  1.00  0.00     0.025 A 
HETATM   38  C   UNL     1      43.716  54.089  47.813  1.00  0.00     0.035 A 
HETATM   39 CL   UNL     1      45.329  53.888  48.378  1.00  0.00    -0.084 Cl
ENDBRANCH  25  29
ENDBRANCH   1  21
TORSDOF 7
ENDMDL
MODEL 8
REMARK VINA RESULT:      -9.2     14.206     17.643
REMARK  7 active torsions:
REMARK  status: ('A' for Active; 'I' for Inactive)
REMARK    1  A    between atoms: C_3  and  C_4 
REMARK       I    between atoms: C_4  and  N_5 
REMARK    2  A    between atoms: C_8  and  N_9 
REMARK       I    between atoms: N_9  and  C_10 
REMARK    3  A    between atoms: C_10  and  C_11 
REMARK    4  A    between atoms: C_11  and  N_12 
REMARK       I    between atoms: N_15  and  C_16 
REMARK    5  A    between atoms: C_16  and  C_17 
REMARK    6  A    between atoms: C_32  and  C_33 
REMARK    7  A    between atoms: C_33  and  O_34 
ROOT
HETATM    1  C   UNL     1      36.462  52.879  40.810  1.00  0.00     0.375 C 
ENDROOT
BRANCH   1   2
HETATM    2  C   UNL     1      37.633  53.342  41.688  1.00  0.00     0.251 C 
HETATM    3  N   UNL     1      37.207  54.092  42.770  1.00  0.00    -0.319 N 
HETATM    4  H   UNL     1      36.204  54.158  42.903  1.00  0.00     0.169 HD
HETATM    5  O   UNL     1      38.779  52.958  41.472  1.00  0.00    -0.271 OA
BRANCH   3   6
HETATM    6  C   UNL     1      38.017  54.454  43.821  1.00  0.00     0.094 C 
HETATM    7  S   UNL     1      38.700  55.987  43.582  1.00  0.00    -0.065 SA
HETATM    8  C   UNL     1      39.298  56.058  45.187  1.00  0.00     0.081 C 
HETATM    9  C   UNL     1      39.116  54.842  45.844  1.00  0.00    -0.020 C 
HETATM   10  C   UNL     1      39.611  54.538  47.229  1.00  0.00     0.051 C 
HETATM   11  C   UNL     1      38.390  53.878  45.018  1.00  0.00     0.080 C 
BRANCH   8  12
HETATM   12  C   UNL     1      39.916  57.280  45.697  1.00  0.00     0.256 C 
HETATM   13  N   UNL     1      41.198  57.542  45.299  1.00  0.00    -0.365 N 
HETATM   14  H   UNL     1      41.702  56.930  44.674  1.00  0.00     0.159 HD
HETATM   15  H   UNL     1      41.630  58.392  45.632  1.00  0.00     0.159 HD
HETATM   16  O   UNL     1      39.367  58.086  46.444  1.00  0.00    -0.267 OA
ENDBRANCH   8  12
BRANCH  11  17
HETATM   17  C   UNL     1      38.128  52.490  45.402  1.00  0.00     0.296 C 
HETATM   18  O   UNL     1      37.041  52.096  45.810  1.00  0.00    -0.259 OA
BRANCH  17  19
HETATM   19  O   UNL     1      39.266  51.730  45.395  1.00  0.00    -0.322 OA
HETATM   20  C   UNL     1      39.396  50.899  44.243  1.00  0.00     0.213 C 
ENDBRANCH  17  19
ENDBRANCH  11  17
ENDBRANCH   3   6
ENDBRANCH   1   2
BRANCH   1  21
HETATM   21  N   UNL     1      36.285  51.412  40.896  1.00  0.00     0.100 N 
HETATM   22  C   UNL     1      35.982  50.987  42.286  1.00  0.00     0.293 C 
HETATM   23  C   UNL     1      34.588  51.389  42.810  1.00  0.00     0.156 C 
HETATM   24  N   UNL     1      33.503  51.082  41.872  1.00  0.00    -0.344 N 
HETATM   25  C   UNL     1      32.208  50.986  42.407  1.00  0.00     0.262 C 
HETATM   26  C   UNL     1      33.775  51.357  40.457  1.00  0.00     0.156 C 
HETATM   27  O   UNL     1      32.021  51.001  43.623  1.00  0.00    -0.267 OA
HETATM   28  C   UNL     1      35.191  50.942  40.022  1.00  0.00     0.293 C 
BRANCH  25  29
HETATM   29  C   UNL     1      31.105  50.829  41.486  1.00  0.00     0.096 A 
HETATM   30  S   UNL     1      30.597  49.273  41.016  1.00  0.00    -0.082 SA
HETATM   31  C   UNL     1      29.379  49.900  39.972  1.00  0.00     0.019 A 
HETATM   32  C   UNL     1      29.399  51.299  39.943  1.00  0.00     0.004 A 
HETATM   33  C   UNL     1      28.457  49.154  39.210  1.00  0.00     0.043 A 
HETATM   34  C   UNL     1      30.414  51.818  40.823  1.00  0.00     0.068 A 
HETATM   35  C   UNL     1      28.467  51.956  39.096  1.00  0.00     0.016 A 
HETATM   36 CL   UNL     1      30.690  53.502  41.021  1.00  0.00    -0.082 Cl
HETATM   37  C   UNL     1      27.553  51.221  38.333  1.00  0.00     0.025 A 
HETATM   38  C   UNL     1      27.550  49.836  38.399  1.00  0.00     0.035 A 
HETATM   39 CL   UNL     1      26.413  48.943  37.465  1.00  0.00    -0.084 Cl
ENDBRANCH  25  29
ENDBRANCH   1  21
TORSDOF 7
ENDMDL
MODEL 9
REMARK VINA RESULT:      -9.1      4.692     10.956
REMARK  7 active torsions:
REMARK  status: ('A' for Active; 'I' for Inactive)
REMARK    1  A    between atoms: C_3  and  C_4 
REMARK       I    between atoms: C_4  and  N_5 
REMARK    2  A    between atoms: C_8  and  N_9 
REMARK       I    between atoms: N_9  and  C_10 
REMARK    3  A    between atoms: C_10  and  C_11 
REMARK    4  A    between atoms: C_11  and  N_12 
REMARK       I    between atoms: N_15  and  C_16 
REMARK    5  A    between atoms: C_16  and  C_17 
REMARK    6  A    between atoms: C_32  and  C_33 
REMARK    7  A    between atoms: C_33  and  O_34 
ROOT
HETATM    1  C   UNL     1      23.248  45.035  49.694  1.00  0.00     0.375 C 
ENDROOT
BRANCH   1   2
HETATM    2  C   UNL     1      24.711  44.657  49.965  1.00  0.00     0.251 C 
HETATM    3  N   UNL     1      24.840  43.834  51.069  1.00  0.00    -0.319 N 
HETATM    4  H   UNL     1      23.976  43.510  51.491  1.00  0.00     0.169 HD
HETATM    5  O   UNL     1      25.605  44.978  49.187  1.00  0.00    -0.271 OA
BRANCH   3   6
HETATM    6  C   UNL     1      26.002  43.181  51.412  1.00  0.00     0.094 C 
HETATM    7  S   UNL     1      26.124  41.679  50.637  1.00  0.00    -0.065 SA
HETATM    8  C   UNL     1      27.753  41.468  51.129  1.00  0.00     0.081 C 
HETATM    9  C   UNL     1      28.140  42.468  52.019  1.00  0.00    -0.020 C 
HETATM   10  C   UNL     1      29.472  42.524  52.712  1.00  0.00     0.051 C 
HETATM   11  C   UNL     1      27.086  43.463  52.217  1.00  0.00     0.080 C 
BRANCH   8  12
HETATM   12  C   UNL     1      28.540  40.343  50.630  1.00  0.00     0.256 C 
HETATM   13  N   UNL     1      29.090  39.507  51.564  1.00  0.00    -0.365 N 
HETATM   14  H   UNL     1      28.956  39.646  52.554  1.00  0.00     0.159 HD
HETATM   15  H   UNL     1      29.623  38.716  51.231  1.00  0.00     0.159 HD
HETATM   16  O   UNL     1      28.735  40.093  49.444  1.00  0.00    -0.267 OA
ENDBRANCH   8  12
BRANCH  11  17
HETATM   17  C   UNL     1      27.166  44.578  53.161  1.00  0.00     0.296 C 
HETATM   18  O   UNL     1      27.451  44.439  54.346  1.00  0.00    -0.259 OA
BRANCH  17  19
HETATM   19  O   UNL     1      26.742  45.755  52.607  1.00  0.00    -0.322 OA
HETATM   20  C   UNL     1      26.077  46.617  53.528  1.00  0.00     0.213 C 
ENDBRANCH  17  19
ENDBRANCH  11  17
ENDBRANCH   3   6
ENDBRANCH   1   2
BRANCH   1  21
HETATM   21  N   UNL     1      23.038  45.340  48.261  1.00  0.00     0.100 N 
HETATM   22  C   UNL     1      22.051  44.413  47.652  1.00  0.00     0.293 C 
HETATM   23  C   UNL     1      20.592  44.606  48.115  1.00  0.00     0.156 C 
HETATM   24  N   UNL     1      20.153  46.005  48.085  1.00  0.00    -0.344 N 
HETATM   25  C   UNL     1      18.768  46.237  48.046  1.00  0.00     0.262 C 
HETATM   26  C   UNL     1      21.126  46.999  48.553  1.00  0.00     0.156 C 
HETATM   27  O   UNL     1      17.974  45.311  47.884  1.00  0.00    -0.267 OA
HETATM   28  C   UNL     1      22.557  46.721  48.061  1.00  0.00     0.293 C 
BRANCH  25  29
HETATM   29  C   UNL     1      18.306  47.602  48.162  1.00  0.00     0.096 A 
HETATM   30  S   UNL     1      18.207  48.344  49.692  1.00  0.00    -0.082 SA
HETATM   31  C   UNL     1      17.588  49.808  49.028  1.00  0.00     0.019 A 
HETATM   32  C   UNL     1      17.406  49.707  47.644  1.00  0.00     0.004 A 
HETATM   33  C   UNL     1      17.274  50.987  49.735  1.00  0.00     0.043 A 
HETATM   34  C   UNL     1      17.822  48.415  47.163  1.00  0.00     0.068 A 
HETATM   35  C   UNL     1      16.869  50.833  46.964  1.00  0.00     0.016 A 
HETATM   36 CL   UNL     1      17.734  47.976  45.504  1.00  0.00    -0.082 Cl
HETATM   37  C   UNL     1      16.550  52.003  47.661  1.00  0.00     0.025 A 
HETATM   38  C   UNL     1      16.759  52.074  49.029  1.00  0.00     0.035 A 
HETATM   39 CL   UNL     1      16.375  53.524  49.873  1.00  0.00    -0.084 Cl
ENDBRANCH  25  29
ENDBRANCH   1  21
TORSDOF 7
ENDMDL
MODEL 10
REMARK VINA RESULT:      -9.0     13.862     15.918
REMARK  7 active torsions:
REMARK  status: ('A' for Active; 'I' for Inactive)
REMARK    1  A    between atoms: C_3  and  C_4 
REMARK       I    between atoms: C_4  and  N_5 
REMARK    2  A    between atoms: C_8  and  N_9 
REMARK       I    between atoms: N_9  and  C_10 
REMARK    3  A    between atoms: C_10  and  C_11 
REMARK    4  A    between atoms: C_11  and  N_12 
REMARK       I    between atoms: N_15  and  C_16 
REMARK    5  A    between atoms: C_16  and  C_17 
REMARK    6  A    between atoms: C_32  and  C_33 
REMARK    7  A    between atoms: C_33  and  O_34 
ROOT
HETATM    1  C   UNL     1      34.959  51.978  39.148  1.00  0.00     0.375 C 
ENDROOT
BRANCH   1   2
HETATM    2  C   UNL     1      33.514  51.807  39.638  1.00  0.00     0.251 C 
HETATM    3  N   UNL     1      32.824  50.859  38.904  1.00  0.00    -0.319 N 
HETATM    4  H   UNL     1      33.365  50.338  38.223  1.00  0.00     0.169 HD
HETATM    5  O   UNL     1      33.113  52.384  40.644  1.00  0.00    -0.271 OA
BRANCH   3   6
HETATM    6  C   UNL     1      31.591  50.361  39.256  1.00  0.00     0.094 C 
HETATM    7  S   UNL     1      30.335  51.337  38.671  1.00  0.00    -0.065 SA
HETATM    8  C   UNL     1      29.137  50.183  39.087  1.00  0.00     0.081 C 
HETATM    9  C   UNL     1      29.687  49.133  39.820  1.00  0.00    -0.020 C 
HETATM   10  C   UNL     1      28.896  48.005  40.420  1.00  0.00     0.051 C 
HETATM   11  C   UNL     1      31.138  49.260  39.953  1.00  0.00     0.080 C 
BRANCH   8  12
HETATM   12  C   UNL     1      27.745  50.380  38.689  1.00  0.00     0.256 C 
HETATM   13  N   UNL     1      26.894  50.885  39.633  1.00  0.00    -0.365 N 
HETATM   14  H   UNL     1      27.203  51.123  40.563  1.00  0.00     0.159 HD
HETATM   15  H   UNL     1      25.932  51.040  39.364  1.00  0.00     0.159 HD
HETATM   16  O   UNL     1      27.292  50.133  37.574  1.00  0.00    -0.267 OA
ENDBRANCH   8  12
BRANCH  11  17
HETATM   17  C   UNL     1      31.979  48.359  40.743  1.00  0.00     0.296 C 
HETATM   18  O   UNL     1      32.012  47.145  40.574  1.00  0.00    -0.259 OA
BRANCH  17  19
HETATM   19  O   UNL     1      32.599  49.007  41.777  1.00  0.00    -0.322 OA
HETATM   20  C   UNL     1      31.713  49.398  42.824  1.00  0.00     0.213 C 
ENDBRANCH  17  19
ENDBRANCH  11  17
ENDBRANCH   3   6
ENDBRANCH   1   2
BRANCH   1  21
HETATM   21  N   UNL     1      35.816  50.873  39.635  1.00  0.00     0.100 N 
HETATM   22  C   UNL     1      37.165  50.926  39.019  1.00  0.00     0.293 C 
HETATM   23  C   UNL     1      38.058  52.095  39.486  1.00  0.00     0.156 C 
HETATM   24  N   UNL     1      38.091  52.255  40.943  1.00  0.00    -0.344 N 
HETATM   25  C   UNL     1      39.180  52.960  41.481  1.00  0.00     0.262 C 
HETATM   26  C   UNL     1      36.812  52.089  41.641  1.00  0.00     0.156 C 
HETATM   27  O   UNL     1      40.136  53.285  40.777  1.00  0.00    -0.267 OA
HETATM   28  C   UNL     1      35.977  50.915  41.102  1.00  0.00     0.293 C 
BRANCH  25  29
HETATM   29  C   UNL     1      39.163  53.257  42.896  1.00  0.00     0.096 A 
HETATM   30  S   UNL     1      39.872  52.177  44.006  1.00  0.00    -0.082 SA
HETATM   31  C   UNL     1      39.429  53.151  45.356  1.00  0.00     0.019 A 
HETATM   32  C   UNL     1      38.692  54.272  44.959  1.00  0.00     0.004 A 
HETATM   33  C   UNL     1      39.731  52.901  46.710  1.00  0.00     0.043 A 
HETATM   34  C   UNL     1      38.542  54.311  43.528  1.00  0.00     0.068 A 
HETATM   35  C   UNL     1      38.230  55.153  45.974  1.00  0.00     0.016 A 
HETATM   36 CL   UNL     1      37.693  55.568  42.722  1.00  0.00    -0.082 Cl
HETATM   37  C   UNL     1      38.521  54.907  47.320  1.00  0.00     0.025 A 
HETATM   38  C   UNL     1      39.268  53.795  47.676  1.00  0.00     0.035 A 
HETATM   39 CL   UNL     1      39.631  53.509  49.334  1.00  0.00    -0.084 Cl
ENDBRANCH  25  29
ENDBRANCH   1  21
TORSDOF 7
ENDMDL
