MODEL 1
REMARK VINA RESULT:      -7.8      0.000      0.000
REMARK  4 active torsions:
REMARK  status: ('A' for Active; 'I' for Inactive)
REMARK    1  A    between atoms: O_2  and  C_3 
REMARK    2  A    between atoms: C_5  and  O_6 
REMARK    3  A    between atoms: C_8  and  N_9 
REMARK    4  A    between atoms: N_9  and  C_10 
ROOT
HETATM    1  C   UNL     1      26.740  44.254  53.286  1.00  0.00     0.153 A 
HETATM    2  S   UNL     1      27.326  42.820  52.580  1.00  0.00    -0.011 SA
HETATM    3  C   UNL     1      28.874  42.620  53.343  1.00  0.00     0.228 A 
HETATM    4  O   UNL     1      29.590  41.679  53.025  1.00  0.00    -0.279 OA
HETATM    5  C   UNL     1      29.322  43.569  54.374  1.00  0.00     0.048 A 
HETATM    6  C   UNL     1      28.539  44.658  54.757  1.00  0.00     0.048 A 
HETATM    7  C   UNL     1      30.572  43.346  54.981  1.00  0.00     0.018 A 
HETATM    8  C   UNL     1      31.044  44.208  55.968  1.00  0.00     0.001 A 
HETATM    9  C   UNL     1      30.272  45.296  56.357  1.00  0.00     0.002 A 
HETATM   10  C   UNL     1      29.030  45.517  55.756  1.00  0.00     0.030 A 
HETATM   11  N   UNL     1      27.326  44.954  54.228  1.00  0.00    -0.336 N 
HETATM   12  H   UNL     1      26.788  45.729  54.590  1.00  0.00     0.168 HD
ENDROOT
BRANCH   1  13
HETATM   13  N   UNL     1      25.469  44.674  52.838  1.00  0.00    -0.334 N 
HETATM   14  H   UNL     1      24.717  44.429  53.482  1.00  0.00     0.168 HD
BRANCH  13  15
HETATM   15  C   UNL     1      24.993  45.395  51.727  1.00  0.00     0.068 A 
HETATM   16  C   UNL     1      24.161  44.730  50.797  1.00  0.00     0.097 A 
HETATM   17  C   UNL     1      23.604  45.428  49.717  1.00  0.00     0.075 A 
HETATM   18  C   UNL     1      23.873  46.787  49.551  1.00  0.00     0.070 A 
HETATM   19  C   UNL     1      24.709  47.439  50.458  1.00  0.00     0.039 A 
HETATM   20  C   UNL     1      25.265  46.752  51.540  1.00  0.00     0.035 A 
BRANCH  16  21
HETATM   21  O   UNL     1      23.964  43.393  51.060  1.00  0.00    -0.354 OA
HETATM   22  C   UNL     1      24.431  42.461  50.090  1.00  0.00     0.210 C 
ENDBRANCH  16  21
BRANCH  18  23
HETATM   23  O   UNL     1      23.395  47.587  48.550  1.00  0.00    -0.356 OA
HETATM   24  C   UNL     1      23.712  48.973  48.615  1.00  0.00     0.210 C 
ENDBRANCH  18  23
ENDBRANCH  13  15
ENDBRANCH   1  13
TORSDOF 4
ENDMDL
MODEL 2
REMARK VINA RESULT:      -7.8      3.691      7.008
REMARK  4 active torsions:
REMARK  status: ('A' for Active; 'I' for Inactive)
REMARK    1  A    between atoms: O_2  and  C_3 
REMARK    2  A    between atoms: C_5  and  O_6 
REMARK    3  A    between atoms: C_8  and  N_9 
REMARK    4  A    between atoms: N_9  and  C_10 
ROOT
HETATM    1  C   UNL     1      27.874  41.530  52.081  1.00  0.00     0.153 A 
HETATM    2  S   UNL     1      27.164  42.377  50.786  1.00  0.00    -0.011 SA
HETATM    3  C   UNL     1      27.596  41.408  49.410  1.00  0.00     0.228 A 
HETATM    4  O   UNL     1      27.262  41.766  48.287  1.00  0.00    -0.279 OA
HETATM    5  C   UNL     1      28.350  40.158  49.588  1.00  0.00     0.048 A 
HETATM    6  C   UNL     1      28.755  39.721  50.850  1.00  0.00     0.048 A 
HETATM    7  C   UNL     1      28.650  39.395  48.444  1.00  0.00     0.018 A 
HETATM    8  C   UNL     1      29.355  38.199  48.554  1.00  0.00     0.001 A 
HETATM    9  C   UNL     1      29.763  37.755  49.805  1.00  0.00     0.002 A 
HETATM   10  C   UNL     1      29.464  38.511  50.942  1.00  0.00     0.030 A 
HETATM   11  N   UNL     1      28.515  40.388  52.006  1.00  0.00    -0.336 N 
HETATM   12  H   UNL     1      28.791  39.986  52.891  1.00  0.00     0.168 HD
ENDROOT
BRANCH   1  13
HETATM   13  N   UNL     1      27.687  42.105  53.356  1.00  0.00    -0.334 N 
HETATM   14  H   UNL     1      26.913  41.688  53.872  1.00  0.00     0.168 HD
BRANCH  13  15
HETATM   15  C   UNL     1      28.346  43.095  54.108  1.00  0.00     0.068 A 
HETATM   16  C   UNL     1      27.624  44.250  54.485  1.00  0.00     0.097 A 
HETATM   17  C   UNL     1      28.218  45.226  55.297  1.00  0.00     0.075 A 
HETATM   18  C   UNL     1      29.532  45.064  55.735  1.00  0.00     0.070 A 
HETATM   19  C   UNL     1      30.251  43.932  55.348  1.00  0.00     0.039 A 
HETATM   20  C   UNL     1      29.666  42.953  54.543  1.00  0.00     0.035 A 
BRANCH  16  21
HETATM   21  O   UNL     1      26.338  44.305  53.996  1.00  0.00    -0.354 OA
HETATM   22  C   UNL     1      25.787  45.594  53.749  1.00  0.00     0.210 C 
ENDBRANCH  16  21
BRANCH  18  23
HETATM   23  O   UNL     1      30.230  45.930  56.531  1.00  0.00    -0.356 OA
HETATM   24  C   UNL     1      30.296  45.631  57.920  1.00  0.00     0.210 C 
ENDBRANCH  18  23
ENDBRANCH  13  15
ENDBRANCH   1  13
TORSDOF 4
ENDMDL
MODEL 3
REMARK VINA RESULT:      -7.8      2.736      7.884
REMARK  4 active torsions:
REMARK  status: ('A' for Active; 'I' for Inactive)
REMARK    1  A    between atoms: O_2  and  C_3 
REMARK    2  A    between atoms: C_5  and  O_6 
REMARK    3  A    between atoms: C_8  and  N_9 
REMARK    4  A    between atoms: N_9  and  C_10 
ROOT
HETATM    1  C   UNL     1      25.097  47.376  50.301  1.00  0.00     0.153 A 
HETATM    2  S   UNL     1      26.445  48.146  49.602  1.00  0.00    -0.011 SA
HETATM    3  C   UNL     1      25.715  49.354  48.588  1.00  0.00     0.228 A 
HETATM    4  O   UNL     1      26.423  50.078  47.900  1.00  0.00    -0.279 OA
HETATM    5  C   UNL     1      24.253  49.516  48.560  1.00  0.00     0.048 A 
HETATM    6  C   UNL     1      23.411  48.706  49.323  1.00  0.00     0.048 A 
HETATM    7  C   UNL     1      23.714  50.527  47.743  1.00  0.00     0.018 A 
HETATM    8  C   UNL     1      22.337  50.732  47.683  1.00  0.00     0.001 A 
HETATM    9  C   UNL     1      21.490  49.930  48.439  1.00  0.00     0.002 A 
HETATM   10  C   UNL     1      22.025  48.926  49.252  1.00  0.00     0.030 A 
HETATM   11  N   UNL     1      23.839  47.707  50.135  1.00  0.00    -0.336 N 
HETATM   12  H   UNL     1      23.177  47.193  50.700  1.00  0.00     0.168 HD
ENDROOT
BRANCH   1  13
HETATM   13  N   UNL     1      25.396  46.321  51.188  1.00  0.00    -0.334 N 
HETATM   14  H   UNL     1      25.104  45.409  50.837  1.00  0.00     0.168 HD
BRANCH  13  15
HETATM   15  C   UNL     1      26.044  46.220  52.433  1.00  0.00     0.068 A 
HETATM   16  C   UNL     1      26.745  45.030  52.736  1.00  0.00     0.097 A 
HETATM   17  C   UNL     1      27.467  44.916  53.932  1.00  0.00     0.075 A 
HETATM   18  C   UNL     1      27.493  45.979  54.836  1.00  0.00     0.070 A 
HETATM   19  C   UNL     1      26.786  47.146  54.545  1.00  0.00     0.039 A 
HETATM   20  C   UNL     1      26.068  47.270  53.354  1.00  0.00     0.035 A 
BRANCH  16  21
HETATM   21  O   UNL     1      26.650  44.050  51.774  1.00  0.00    -0.354 OA
HETATM   22  C   UNL     1      27.195  42.773  52.087  1.00  0.00     0.210 C 
ENDBRANCH  16  21
BRANCH  18  23
HETATM   23  O   UNL     1      28.158  46.005  56.031  1.00  0.00    -0.356 OA
HETATM   24  C   UNL     1      29.575  45.892  55.991  1.00  0.00     0.210 C 
ENDBRANCH  18  23
ENDBRANCH  13  15
ENDBRANCH   1  13
TORSDOF 4
ENDMDL
MODEL 4
REMARK VINA RESULT:      -7.5      2.962      4.670
REMARK  4 active torsions:
REMARK  status: ('A' for Active; 'I' for Inactive)
REMARK    1  A    between atoms: O_2  and  C_3 
REMARK    2  A    between atoms: C_5  and  O_6 
REMARK    3  A    between atoms: C_8  and  N_9 
REMARK    4  A    between atoms: N_9  and  C_10 
ROOT
HETATM    1  C   UNL     1      27.158  43.557  53.276  1.00  0.00     0.153 A 
HETATM    2  S   UNL     1      26.359  45.037  53.542  1.00  0.00    -0.011 SA
HETATM    3  C   UNL     1      27.390  45.830  54.694  1.00  0.00     0.228 A 
HETATM    4  O   UNL     1      27.077  46.929  55.133  1.00  0.00    -0.279 OA
HETATM    5  C   UNL     1      28.640  45.192  55.135  1.00  0.00     0.048 A 
HETATM    6  C   UNL     1      29.028  43.937  54.664  1.00  0.00     0.048 A 
HETATM    7  C   UNL     1      29.454  45.888  56.047  1.00  0.00     0.018 A 
HETATM    8  C   UNL     1      30.653  45.336  56.494  1.00  0.00     0.001 A 
HETATM    9  C   UNL     1      31.047  44.086  56.031  1.00  0.00     0.002 A 
HETATM   10  C   UNL     1      30.240  43.395  55.123  1.00  0.00     0.030 A 
HETATM   11  N   UNL     1      28.309  43.192  53.787  1.00  0.00    -0.336 N 
HETATM   12  H   UNL     1      28.675  42.313  53.447  1.00  0.00     0.168 HD
ENDROOT
BRANCH   1  13
HETATM   13  N   UNL     1      26.527  42.684  52.366  1.00  0.00    -0.334 N 
HETATM   14  H   UNL     1      25.549  42.506  52.595  1.00  0.00     0.168 HD
BRANCH  13  15
HETATM   15  C   UNL     1      26.916  42.027  51.183  1.00  0.00     0.068 A 
HETATM   16  C   UNL     1      26.506  42.570  49.943  1.00  0.00     0.097 A 
HETATM   17  C   UNL     1      26.933  41.992  48.740  1.00  0.00     0.075 A 
HETATM   18  C   UNL     1      27.763  40.871  48.759  1.00  0.00     0.070 A 
HETATM   19  C   UNL     1      28.152  40.325  49.983  1.00  0.00     0.039 A 
HETATM   20  C   UNL     1      27.735  40.897  51.187  1.00  0.00     0.035 A 
BRANCH  16  21
HETATM   21  O   UNL     1      25.690  43.674  50.044  1.00  0.00    -0.354 OA
HETATM   22  C   UNL     1      26.202  44.911  49.561  1.00  0.00     0.210 C 
ENDBRANCH  16  21
BRANCH  18  23
HETATM   23  O   UNL     1      28.256  40.213  47.666  1.00  0.00    -0.356 OA
HETATM   24  C   UNL     1      28.064  40.824  46.396  1.00  0.00     0.210 C 
ENDBRANCH  18  23
ENDBRANCH  13  15
ENDBRANCH   1  13
TORSDOF 4
ENDMDL
MODEL 5
REMARK VINA RESULT:      -7.5      2.233      2.978
REMARK  4 active torsions:
REMARK  status: ('A' for Active; 'I' for Inactive)
REMARK    1  A    between atoms: O_2  and  C_3 
REMARK    2  A    between atoms: C_5  and  O_6 
REMARK    3  A    between atoms: C_8  and  N_9 
REMARK    4  A    between atoms: N_9  and  C_10 
ROOT
HETATM    1  C   UNL     1      26.401  44.204  53.620  1.00  0.00     0.153 A 
HETATM    2  S   UNL     1      26.156  45.793  54.182  1.00  0.00    -0.011 SA
HETATM    3  C   UNL     1      27.596  46.102  55.104  1.00  0.00     0.228 A 
HETATM    4  O   UNL     1      27.727  47.170  55.686  1.00  0.00    -0.279 OA
HETATM    5  C   UNL     1      28.661  45.090  55.179  1.00  0.00     0.048 A 
HETATM    6  C   UNL     1      28.547  43.856  54.536  1.00  0.00     0.048 A 
HETATM    7  C   UNL     1      29.820  45.400  55.916  1.00  0.00     0.018 A 
HETATM    8  C   UNL     1      30.864  44.483  56.015  1.00  0.00     0.001 A 
HETATM    9  C   UNL     1      30.759  43.252  55.379  1.00  0.00     0.002 A 
HETATM   10  C   UNL     1      29.610  42.944  54.645  1.00  0.00     0.030 A 
HETATM   11  N   UNL     1      27.471  43.469  53.807  1.00  0.00    -0.336 N 
HETATM   12  H   UNL     1      27.477  42.581  53.324  1.00  0.00     0.168 HD
ENDROOT
BRANCH   1  13
HETATM   13  N   UNL     1      25.360  43.675  52.828  1.00  0.00    -0.334 N 
HETATM   14  H   UNL     1      24.687  43.129  53.365  1.00  0.00     0.168 HD
BRANCH  13  15
HETATM   15  C   UNL     1      25.003  43.757  51.469  1.00  0.00     0.068 A 
HETATM   16  C   UNL     1      25.456  42.748  50.589  1.00  0.00     0.097 A 
HETATM   17  C   UNL     1      25.063  42.749  49.244  1.00  0.00     0.075 A 
HETATM   18  C   UNL     1      24.222  43.754  48.763  1.00  0.00     0.070 A 
HETATM   19  C   UNL     1      23.790  44.761  49.628  1.00  0.00     0.039 A 
HETATM   20  C   UNL     1      24.174  44.764  50.970  1.00  0.00     0.035 A 
BRANCH  16  21
HETATM   21  O   UNL     1      26.278  41.809  51.171  1.00  0.00    -0.354 OA
HETATM   22  C   UNL     1      27.575  41.639  50.609  1.00  0.00     0.210 C 
ENDBRANCH  16  21
BRANCH  18  23
HETATM   23  O   UNL     1      23.759  43.874  47.482  1.00  0.00    -0.356 OA
HETATM   24  C   UNL     1      22.568  44.626  47.287  1.00  0.00     0.210 C 
ENDBRANCH  18  23
ENDBRANCH  13  15
ENDBRANCH   1  13
TORSDOF 4
ENDMDL
MODEL 6
REMARK VINA RESULT:      -7.5      3.120      5.307
REMARK  4 active torsions:
REMARK  status: ('A' for Active; 'I' for Inactive)
REMARK    1  A    between atoms: O_2  and  C_3 
REMARK    2  A    between atoms: C_5  and  O_6 
REMARK    3  A    between atoms: C_8  and  N_9 
REMARK    4  A    between atoms: N_9  and  C_10 
ROOT
HETATM    1  C   UNL     1      24.115  46.528  49.934  1.00  0.00     0.153 A 
HETATM    2  S   UNL     1      23.712  44.882  49.770  1.00  0.00    -0.011 SA
HETATM    3  C   UNL     1      24.433  44.167  51.179  1.00  0.00     0.228 A 
HETATM    4  O   UNL     1      24.358  42.957  51.352  1.00  0.00    -0.279 OA
HETATM    5  C   UNL     1      25.125  45.008  52.168  1.00  0.00     0.048 A 
HETATM    6  C   UNL     1      25.240  46.389  52.002  1.00  0.00     0.048 A 
HETATM    7  C   UNL     1      25.668  44.383  53.306  1.00  0.00     0.018 A 
HETATM    8  C   UNL     1      26.328  45.131  54.279  1.00  0.00     0.001 A 
HETATM    9  C   UNL     1      26.448  46.506  54.123  1.00  0.00     0.002 A 
HETATM   10  C   UNL     1      25.907  47.128  52.994  1.00  0.00     0.030 A 
HETATM   11  N   UNL     1      24.752  47.077  50.941  1.00  0.00    -0.336 N 
HETATM   12  H   UNL     1      24.824  48.084  50.910  1.00  0.00     0.168 HD
ENDROOT
BRANCH   1  13
HETATM   13  N   UNL     1      23.652  47.371  48.901  1.00  0.00    -0.334 N 
HETATM   14  H   UNL     1      23.943  47.063  47.973  1.00  0.00     0.168 HD
BRANCH  13  15
HETATM   15  C   UNL     1      22.842  48.520  48.841  1.00  0.00     0.068 A 
HETATM   16  C   UNL     1      23.463  49.789  48.896  1.00  0.00     0.097 A 
HETATM   17  C   UNL     1      22.703  50.958  48.764  1.00  0.00     0.075 A 
HETATM   18  C   UNL     1      21.322  50.876  48.582  1.00  0.00     0.070 A 
HETATM   19  C   UNL     1      20.706  49.625  48.546  1.00  0.00     0.039 A 
HETATM   20  C   UNL     1      21.457  48.454  48.672  1.00  0.00     0.035 A 
BRANCH  16  21
HETATM   21  O   UNL     1      24.827  49.749  49.078  1.00  0.00    -0.354 OA
HETATM   22  C   UNL     1      25.645  50.033  47.947  1.00  0.00     0.210 C 
ENDBRANCH  16  21
BRANCH  18  23
HETATM   23  O   UNL     1      20.464  51.931  48.436  1.00  0.00    -0.356 OA
HETATM   24  C   UNL     1      19.271  51.914  49.211  1.00  0.00     0.210 C 
ENDBRANCH  18  23
ENDBRANCH  13  15
ENDBRANCH   1  13
TORSDOF 4
ENDMDL
MODEL 7
REMARK VINA RESULT:      -7.4      1.332      2.422
REMARK  4 active torsions:
REMARK  status: ('A' for Active; 'I' for Inactive)
REMARK    1  A    between atoms: O_2  and  C_3 
REMARK    2  A    between atoms: C_5  and  O_6 
REMARK    3  A    between atoms: C_8  and  N_9 
REMARK    4  A    between atoms: N_9  and  C_10 
ROOT
HETATM    1  C   UNL     1      27.118  45.122  53.112  1.00  0.00     0.153 A 
HETATM    2  S   UNL     1      27.550  43.726  52.238  1.00  0.00    -0.011 SA
HETATM    3  C   UNL     1      28.945  43.150  53.099  1.00  0.00     0.228 A 
HETATM    4  O   UNL     1      29.537  42.155  52.699  1.00  0.00    -0.279 OA
HETATM    5  C   UNL     1      29.412  43.846  54.307  1.00  0.00     0.048 A 
HETATM    6  C   UNL     1      28.771  44.988  54.789  1.00  0.00     0.048 A 
HETATM    7  C   UNL     1      30.530  43.323  54.984  1.00  0.00     0.018 A 
HETATM    8  C   UNL     1      31.012  43.937  56.138  1.00  0.00     0.001 A 
HETATM    9  C   UNL     1      30.381  45.074  56.625  1.00  0.00     0.002 A 
HETATM   10  C   UNL     1      29.269  45.594  55.956  1.00  0.00     0.030 A 
HETATM   11  N   UNL     1      27.691  45.564  54.205  1.00  0.00    -0.336 N 
HETATM   12  H   UNL     1      27.243  46.361  54.638  1.00  0.00     0.168 HD
ENDROOT
BRANCH   1  13
HETATM   13  N   UNL     1      25.992  45.818  52.623  1.00  0.00    -0.334 N 
HETATM   14  H   UNL     1      25.809  46.686  53.126  1.00  0.00     0.168 HD
BRANCH  13  15
HETATM   15  C   UNL     1      25.079  45.620  51.570  1.00  0.00     0.068 A 
HETATM   16  C   UNL     1      24.925  46.644  50.608  1.00  0.00     0.097 A 
HETATM   17  C   UNL     1      24.083  46.459  49.502  1.00  0.00     0.075 A 
HETATM   18  C   UNL     1      23.387  45.260  49.348  1.00  0.00     0.070 A 
HETATM   19  C   UNL     1      23.525  44.256  50.308  1.00  0.00     0.039 A 
HETATM   20  C   UNL     1      24.365  44.431  51.409  1.00  0.00     0.035 A 
BRANCH  16  21
HETATM   21  O   UNL     1      25.658  47.781  50.860  1.00  0.00    -0.354 OA
HETATM   22  C   UNL     1      26.607  48.178  49.876  1.00  0.00     0.210 C 
ENDBRANCH  16  21
BRANCH  18  23
HETATM   23  O   UNL     1      22.541  44.945  48.321  1.00  0.00    -0.356 OA
HETATM   24  C   UNL     1      22.652  43.642  47.760  1.00  0.00     0.210 C 
ENDBRANCH  18  23
ENDBRANCH  13  15
ENDBRANCH   1  13
TORSDOF 4
ENDMDL
MODEL 8
REMARK VINA RESULT:      -7.4     16.226     17.979
REMARK  4 active torsions:
REMARK  status: ('A' for Active; 'I' for Inactive)
REMARK    1  A    between atoms: O_2  and  C_3 
REMARK    2  A    between atoms: C_5  and  O_6 
REMARK    3  A    between atoms: C_8  and  N_9 
REMARK    4  A    between atoms: N_9  and  C_10 
ROOT
HETATM    1  C   UNL     1      37.418  46.386  64.245  1.00  0.00     0.153 A 
HETATM    2  S   UNL     1      36.031  46.198  65.214  1.00  0.00    -0.011 SA
HETATM    3  C   UNL     1      36.096  47.590  66.253  1.00  0.00     0.228 A 
HETATM    4  O   UNL     1      35.241  47.744  67.115  1.00  0.00    -0.279 OA
HETATM    5  C   UNL     1      37.167  48.586  66.094  1.00  0.00     0.048 A 
HETATM    6  C   UNL     1      38.164  48.442  65.128  1.00  0.00     0.048 A 
HETATM    7  C   UNL     1      37.159  49.709  66.942  1.00  0.00     0.018 A 
HETATM    8  C   UNL     1      38.144  50.688  66.832  1.00  0.00     0.001 A 
HETATM    9  C   UNL     1      39.141  50.553  65.874  1.00  0.00     0.002 A 
HETATM   10  C   UNL     1      39.149  49.439  65.030  1.00  0.00     0.030 A 
HETATM   11  N   UNL     1      38.255  47.395  64.271  1.00  0.00    -0.336 N 
HETATM   12  H   UNL     1      38.973  47.381  63.560  1.00  0.00     0.168 HD
ENDROOT
BRANCH   1  13
HETATM   13  N   UNL     1      37.629  45.370  63.288  1.00  0.00    -0.334 N 
HETATM   14  H   UNL     1      37.278  45.614  62.363  1.00  0.00     0.168 HD
BRANCH  13  15
HETATM   15  C   UNL     1      38.253  44.109  63.297  1.00  0.00     0.068 A 
HETATM   16  C   UNL     1      39.660  44.051  63.419  1.00  0.00     0.097 A 
HETATM   17  C   UNL     1      40.316  42.815  63.507  1.00  0.00     0.075 A 
HETATM   18  C   UNL     1      39.579  41.630  63.469  1.00  0.00     0.070 A 
HETATM   19  C   UNL     1      38.192  41.687  63.331  1.00  0.00     0.039 A 
HETATM   20  C   UNL     1      37.531  42.914  63.247  1.00  0.00     0.035 A 
BRANCH  16  21
HETATM   21  O   UNL     1      40.282  45.279  63.446  1.00  0.00    -0.354 OA
HETATM   22  C   UNL     1      41.479  45.388  64.209  1.00  0.00     0.210 C 
ENDBRANCH  16  21
BRANCH  18  23
HETATM   23  O   UNL     1      40.087  40.363  63.550  1.00  0.00    -0.356 OA
HETATM   24  C   UNL     1      39.592  39.402  62.624  1.00  0.00     0.210 C 
ENDBRANCH  18  23
ENDBRANCH  13  15
ENDBRANCH   1  13
TORSDOF 4
ENDMDL
MODEL 9
REMARK VINA RESULT:      -7.4      3.751      6.312
REMARK  4 active torsions:
REMARK  status: ('A' for Active; 'I' for Inactive)
REMARK    1  A    between atoms: O_2  and  C_3 
REMARK    2  A    between atoms: C_5  and  O_6 
REMARK    3  A    between atoms: C_8  and  N_9 
REMARK    4  A    between atoms: N_9  and  C_10 
ROOT
HETATM    1  C   UNL     1      27.565  41.475  52.056  1.00  0.00     0.153 A 
HETATM    2  S   UNL     1      26.972  42.294  50.686  1.00  0.00    -0.011 SA
HETATM    3  C   UNL     1      27.617  41.360  49.370  1.00  0.00     0.228 A 
HETATM    4  O   UNL     1      27.403  41.708  48.217  1.00  0.00    -0.279 OA
HETATM    5  C   UNL     1      28.410  40.150  49.637  1.00  0.00     0.048 A 
HETATM    6  C   UNL     1      28.684  39.725  50.938  1.00  0.00     0.048 A 
HETATM    7  C   UNL     1      28.887  39.414  48.536  1.00  0.00     0.018 A 
HETATM    8  C   UNL     1      29.637  38.256  48.729  1.00  0.00     0.001 A 
HETATM    9  C   UNL     1      29.915  37.825  50.020  1.00  0.00     0.002 A 
HETATM   10  C   UNL     1      29.441  38.554  51.114  1.00  0.00     0.030 A 
HETATM   11  N   UNL     1      28.270  40.369  52.057  1.00  0.00    -0.336 N 
HETATM   12  H   UNL     1      28.459  39.977  52.969  1.00  0.00     0.168 HD
ENDROOT
BRANCH   1  13
HETATM   13  N   UNL     1      27.195  42.029  53.300  1.00  0.00    -0.334 N 
HETATM   14  H   UNL     1      26.798  41.343  53.941  1.00  0.00     0.168 HD
BRANCH  13  15
HETATM   15  C   UNL     1      27.282  43.305  53.887  1.00  0.00     0.068 A 
HETATM   16  C   UNL     1      28.504  43.694  54.482  1.00  0.00     0.097 A 
HETATM   17  C   UNL     1      28.659  44.982  55.011  1.00  0.00     0.075 A 
HETATM   18  C   UNL     1      27.601  45.890  54.957  1.00  0.00     0.070 A 
HETATM   19  C   UNL     1      26.389  45.501  54.386  1.00  0.00     0.039 A 
HETATM   20  C   UNL     1      26.228  44.221  53.852  1.00  0.00     0.035 A 
BRANCH  16  21
HETATM   21  O   UNL     1      29.476  42.719  54.479  1.00  0.00    -0.354 OA
HETATM   22  C   UNL     1      30.557  42.878  53.566  1.00  0.00     0.210 C 
ENDBRANCH  16  21
BRANCH  18  23
HETATM   23  O   UNL     1      27.616  47.174  55.428  1.00  0.00    -0.356 OA
HETATM   24  C   UNL     1      26.480  47.984  55.150  1.00  0.00     0.210 C 
ENDBRANCH  18  23
ENDBRANCH  13  15
ENDBRANCH   1  13
TORSDOF 4
ENDMDL
MODEL 10
REMARK VINA RESULT:      -7.3      1.191      2.035
REMARK  4 active torsions:
REMARK  status: ('A' for Active; 'I' for Inactive)
REMARK    1  A    between atoms: O_2  and  C_3 
REMARK    2  A    between atoms: C_5  and  O_6 
REMARK    3  A    between atoms: C_8  and  N_9 
REMARK    4  A    between atoms: N_9  and  C_10 
ROOT
HETATM    1  C   UNL     1      26.811  44.017  53.330  1.00  0.00     0.153 A 
HETATM    2  S   UNL     1      27.453  42.642  52.558  1.00  0.00    -0.011 SA
HETATM    3  C   UNL     1      29.019  42.483  53.294  1.00  0.00     0.228 A 
HETATM    4  O   UNL     1      29.773  41.590  52.929  1.00  0.00    -0.279 OA
HETATM    5  C   UNL     1      29.437  43.408  54.358  1.00  0.00     0.048 A 
HETATM    6  C   UNL     1      28.610  44.443  54.796  1.00  0.00     0.048 A 
HETATM    7  C   UNL     1      30.704  43.219  54.941  1.00  0.00     0.018 A 
HETATM    8  C   UNL     1      31.149  44.060  55.959  1.00  0.00     0.001 A 
HETATM    9  C   UNL     1      30.333  45.094  56.401  1.00  0.00     0.002 A 
HETATM   10  C   UNL     1      29.074  45.282  55.824  1.00  0.00     0.030 A 
HETATM   11  N   UNL     1      27.377  44.704  54.294  1.00  0.00    -0.336 N 
HETATM   12  H   UNL     1      26.809  45.438  54.694  1.00  0.00     0.168 HD
ENDROOT
BRANCH   1  13
HETATM   13  N   UNL     1      25.517  44.396  52.915  1.00  0.00    -0.334 N 
HETATM   14  H   UNL     1      24.781  44.036  53.522  1.00  0.00     0.168 HD
BRANCH  13  15
HETATM   15  C   UNL     1      24.998  45.194  51.878  1.00  0.00     0.068 A 
HETATM   16  C   UNL     1      25.413  46.542  51.790  1.00  0.00     0.097 A 
HETATM   17  C   UNL     1      24.980  47.351  50.731  1.00  0.00     0.075 A 
HETATM   18  C   UNL     1      24.128  46.829  49.757  1.00  0.00     0.070 A 
HETATM   19  C   UNL     1      23.703  45.503  49.854  1.00  0.00     0.039 A 
HETATM   20  C   UNL     1      24.134  44.689  50.903  1.00  0.00     0.035 A 
BRANCH  16  21
HETATM   21  O   UNL     1      26.251  46.949  52.804  1.00  0.00    -0.354 OA
HETATM   22  C   UNL     1      25.672  47.688  53.874  1.00  0.00     0.210 C 
ENDBRANCH  16  21
BRANCH  18  23
HETATM   23  O   UNL     1      23.635  47.502  48.673  1.00  0.00    -0.356 OA
HETATM   24  C   UNL     1      22.362  48.123  48.815  1.00  0.00     0.210 C 
ENDBRANCH  18  23
ENDBRANCH  13  15
ENDBRANCH   1  13
TORSDOF 4
ENDMDL
