MODEL 1
REMARK VINA RESULT:      -6.8      0.000      0.000
REMARK  2 active torsions:
REMARK  status: ('A' for Active; 'I' for Inactive)
REMARK    1  A    between atoms: N_6  and  C_7 
REMARK    2  A    between atoms: C_8  and  N_9 
ROOT
HETATM    1  C   UNL     1      27.677  44.091  52.303  1.00  0.00     0.066 A 
HETATM    2  C   UNL     1      27.571  44.839  53.501  1.00  0.00     0.130 A 
HETATM    3  C   UNL     1      28.489  44.739  54.559  1.00  0.00     0.060 A 
HETATM    4  C   UNL     1      29.550  43.851  54.442  1.00  0.00     0.052 A 
HETATM    5 BR   UNL     1      30.806  43.702  55.843  1.00  0.00    -0.048 Br
HETATM    6  C   UNL     1      29.673  43.077  53.292  1.00  0.00     0.136 A 
HETATM    7  F   UNL     1      30.688  42.213  53.150  1.00  0.00    -0.205 F 
HETATM    8  C   UNL     1      28.753  43.190  52.245  1.00  0.00     0.075 A 
ENDROOT
BRANCH   1   9
HETATM    9  N   UNL     1      26.826  44.215  51.217  1.00  0.00    -0.376 N 
HETATM   10  C   UNL     1      27.201  45.004  50.033  1.00  0.00     0.150 C 
HETATM   11  C   UNL     1      26.222  46.177  49.825  1.00  0.00     0.254 C 
HETATM   12  N   UNL     1      24.778  45.673  49.800  1.00  0.00    -0.072 N 
HETATM   13  C   UNL     1      23.802  46.786  49.562  1.00  0.00     0.269 C 
HETATM   14  H   UNL     1      24.701  45.017  49.012  1.00  0.00     0.279 HD
HETATM   15  C   UNL     1      24.444  44.886  51.067  1.00  0.00     0.254 C 
HETATM   16  C   UNL     1      25.438  43.723  51.274  1.00  0.00     0.150 C 
ENDBRANCH   1   9
BRANCH   2  17
HETATM   17  N   UNL     1      26.441  45.724  53.708  1.00  0.00    -0.113 N 
HETATM   18  O   UNL     1      26.518  46.868  53.242  1.00  0.00    -0.532 OA
HETATM   19  O   UNL     1      25.498  45.273  54.369  1.00  0.00    -0.532 OA
ENDBRANCH   2  17
TORSDOF 2
ENDMDL
MODEL 2
REMARK VINA RESULT:      -6.8      2.432      3.372
REMARK  2 active torsions:
REMARK  status: ('A' for Active; 'I' for Inactive)
REMARK    1  A    between atoms: N_6  and  C_7 
REMARK    2  A    between atoms: C_8  and  N_9 
ROOT
HETATM    1  C   UNL     1      27.837  45.259  54.645  1.00  0.00     0.066 A 
HETATM    2  C   UNL     1      28.561  44.122  54.210  1.00  0.00     0.130 A 
HETATM    3  C   UNL     1      29.713  43.647  54.857  1.00  0.00     0.060 A 
HETATM    4  C   UNL     1      30.186  44.329  55.970  1.00  0.00     0.052 A 
HETATM    5 BR   UNL     1      31.726  43.708  56.866  1.00  0.00    -0.048 Br
HETATM    6  C   UNL     1      29.518  45.467  56.411  1.00  0.00     0.136 A 
HETATM    7  F   UNL     1      29.949  46.146  57.485  1.00  0.00    -0.205 F 
HETATM    8  C   UNL     1      28.369  45.927  55.760  1.00  0.00     0.075 A 
ENDROOT
BRANCH   1   9
HETATM    9  N   UNL     1      26.662  45.714  54.068  1.00  0.00    -0.376 N 
HETATM   10  C   UNL     1      25.437  44.899  54.076  1.00  0.00     0.150 C 
HETATM   11  C   UNL     1      24.989  44.569  52.637  1.00  0.00     0.254 C 
HETATM   12  N   UNL     1      24.877  45.847  51.805  1.00  0.00    -0.072 N 
HETATM   13  C   UNL     1      24.407  45.565  50.409  1.00  0.00     0.269 C 
HETATM   14  H   UNL     1      24.169  46.441  52.257  1.00  0.00     0.279 HD
HETATM   15  C   UNL     1      26.188  46.633  51.815  1.00  0.00     0.254 C 
HETATM   16  C   UNL     1      26.634  46.946  53.260  1.00  0.00     0.150 C 
ENDBRANCH   1   9
BRANCH   2  17
HETATM   17  N   UNL     1      28.157  43.418  53.009  1.00  0.00    -0.113 N 
HETATM   18  O   UNL     1      27.594  42.324  53.150  1.00  0.00    -0.532 OA
HETATM   19  O   UNL     1      28.441  43.953  51.931  1.00  0.00    -0.532 OA
ENDBRANCH   2  17
TORSDOF 2
ENDMDL
MODEL 3
REMARK VINA RESULT:      -6.5      2.581      2.959
REMARK  2 active torsions:
REMARK  status: ('A' for Active; 'I' for Inactive)
REMARK    1  A    between atoms: N_6  and  C_7 
REMARK    2  A    between atoms: C_8  and  N_9 
ROOT
HETATM    1  C   UNL     1      28.088  43.965  53.518  1.00  0.00     0.066 A 
HETATM    2  C   UNL     1      28.824  42.795  53.829  1.00  0.00     0.130 A 
HETATM    3  C   UNL     1      29.815  42.748  54.823  1.00  0.00     0.060 A 
HETATM    4  C   UNL     1      30.109  43.905  55.532  1.00  0.00     0.052 A 
HETATM    5 BR   UNL     1      31.428  43.869  56.880  1.00  0.00    -0.048 Br
HETATM    6  C   UNL     1      29.427  45.081  55.237  1.00  0.00     0.136 A 
HETATM    7  F   UNL     1      29.687  46.214  55.906  1.00  0.00    -0.205 F 
HETATM    8  C   UNL     1      28.440  45.113  54.247  1.00  0.00     0.075 A 
ENDROOT
BRANCH   1   9
HETATM    9  N   UNL     1      27.061  44.027  52.590  1.00  0.00    -0.376 N 
HETATM   10  C   UNL     1      27.334  44.179  51.153  1.00  0.00     0.150 C 
HETATM   11  C   UNL     1      26.724  45.491  50.616  1.00  0.00     0.254 C 
HETATM   12  N   UNL     1      25.241  45.579  50.977  1.00  0.00    -0.072 N 
HETATM   13  C   UNL     1      24.608  46.827  50.437  1.00  0.00     0.269 C 
HETATM   14  H   UNL     1      24.773  44.777  50.534  1.00  0.00     0.279 HD
HETATM   15  C   UNL     1      25.028  45.442  52.484  1.00  0.00     0.254 C 
HETATM   16  C   UNL     1      25.654  44.133  53.014  1.00  0.00     0.150 C 
ENDBRANCH   1   9
BRANCH   2  17
HETATM   17  N   UNL     1      28.613  41.579  53.069  1.00  0.00    -0.113 N 
HETATM   18  O   UNL     1      29.262  41.438  52.024  1.00  0.00    -0.532 OA
HETATM   19  O   UNL     1      27.767  40.791  53.509  1.00  0.00    -0.532 OA
ENDBRANCH   2  17
TORSDOF 2
ENDMDL
MODEL 4
REMARK VINA RESULT:      -6.4     13.471     14.928
REMARK  2 active torsions:
REMARK  status: ('A' for Active; 'I' for Inactive)
REMARK    1  A    between atoms: N_6  and  C_7 
REMARK    2  A    between atoms: C_8  and  N_9 
ROOT
HETATM    1  C   UNL     1      28.990  50.921  40.027  1.00  0.00     0.066 A 
HETATM    2  C   UNL     1      28.420  51.277  38.780  1.00  0.00     0.130 A 
HETATM    3  C   UNL     1      27.198  50.764  38.314  1.00  0.00     0.060 A 
HETATM    4  C   UNL     1      26.513  49.849  39.102  1.00  0.00     0.052 A 
HETATM    5 BR   UNL     1      24.863  49.151  38.508  1.00  0.00    -0.048 Br
HETATM    6  C   UNL     1      27.053  49.453  40.321  1.00  0.00     0.136 A 
HETATM    7  F   UNL     1      26.414  48.572  41.104  1.00  0.00    -0.205 F 
HETATM    8  C   UNL     1      28.270  49.974  40.773  1.00  0.00     0.075 A 
ENDROOT
BRANCH   1   9
HETATM    9  N   UNL     1      30.159  51.457  40.541  1.00  0.00    -0.376 N 
HETATM   10  C   UNL     1      31.401  50.671  40.605  1.00  0.00     0.150 C 
HETATM   11  C   UNL     1      31.868  50.502  42.065  1.00  0.00     0.254 C 
HETATM   12  N   UNL     1      31.959  51.862  42.759  1.00  0.00    -0.072 N 
HETATM   13  C   UNL     1      32.446  51.735  44.172  1.00  0.00     0.269 C 
HETATM   14  H   UNL     1      32.651  52.420  42.241  1.00  0.00     0.279 HD
HETATM   15  C   UNL     1      30.631  52.614  42.682  1.00  0.00     0.254 C 
HETATM   16  C   UNL     1      30.167  52.766  41.217  1.00  0.00     0.150 C 
ENDBRANCH   1   9
BRANCH   2  17
HETATM   17  N   UNL     1      29.129  52.169  37.884  1.00  0.00    -0.113 N 
HETATM   18  O   UNL     1      28.778  53.355  37.862  1.00  0.00    -0.532 OA
HETATM   19  O   UNL     1      30.012  51.662  37.181  1.00  0.00    -0.532 OA
ENDBRANCH   2  17
TORSDOF 2
ENDMDL
MODEL 5
REMARK VINA RESULT:      -6.4     13.311     14.213
REMARK  2 active torsions:
REMARK  status: ('A' for Active; 'I' for Inactive)
REMARK    1  A    between atoms: N_6  and  C_7 
REMARK    2  A    between atoms: C_8  and  N_9 
ROOT
HETATM    1  C   UNL     1      30.653  51.217  41.040  1.00  0.00     0.066 A 
HETATM    2  C   UNL     1      31.564  50.514  40.213  1.00  0.00     0.130 A 
HETATM    3  C   UNL     1      32.922  50.345  40.529  1.00  0.00     0.060 A 
HETATM    4  C   UNL     1      33.411  50.906  41.702  1.00  0.00     0.052 A 
HETATM    5 BR   UNL     1      35.229  50.687  42.158  1.00  0.00    -0.048 Br
HETATM    6  C   UNL     1      32.554  51.628  42.526  1.00  0.00     0.136 A 
HETATM    7  F   UNL     1      32.996  52.179  43.666  1.00  0.00    -0.205 F 
HETATM    8  C   UNL     1      31.203  51.785  42.201  1.00  0.00     0.075 A 
ENDROOT
BRANCH   1   9
HETATM    9  N   UNL     1      29.296  51.344  40.788  1.00  0.00    -0.376 N 
HETATM   10  C   UNL     1      28.330  50.341  41.260  1.00  0.00     0.150 C 
HETATM   11  C   UNL     1      27.600  49.683  40.071  1.00  0.00     0.254 C 
HETATM   12  N   UNL     1      26.990  50.749  39.160  1.00  0.00    -0.072 N 
HETATM   13  C   UNL     1      26.240  50.140  38.013  1.00  0.00     0.269 C 
HETATM   14  H   UNL     1      26.315  51.280  39.727  1.00  0.00     0.279 HD
HETATM   15  C   UNL     1      28.049  51.743  38.683  1.00  0.00     0.254 C 
HETATM   16  C   UNL     1      28.783  52.385  39.880  1.00  0.00     0.150 C 
ENDBRANCH   1   9
BRANCH   2  17
HETATM   17  N   UNL     1      31.125  49.974  38.942  1.00  0.00    -0.113 N 
HETATM   18  O   UNL     1      30.710  48.808  38.928  1.00  0.00    -0.532 OA
HETATM   19  O   UNL     1      31.234  50.715  37.957  1.00  0.00    -0.532 OA
ENDBRANCH   2  17
TORSDOF 2
ENDMDL
MODEL 6
REMARK VINA RESULT:      -6.3      2.192      2.906
REMARK  2 active torsions:
REMARK  status: ('A' for Active; 'I' for Inactive)
REMARK    1  A    between atoms: N_6  and  C_7 
REMARK    2  A    between atoms: C_8  and  N_9 
ROOT
HETATM    1  C   UNL     1      26.558  44.992  52.665  1.00  0.00     0.066 A 
HETATM    2  C   UNL     1      27.482  44.191  51.949  1.00  0.00     0.130 A 
HETATM    3  C   UNL     1      28.658  43.674  52.516  1.00  0.00     0.060 A 
HETATM    4  C   UNL     1      28.948  43.970  53.841  1.00  0.00     0.052 A 
HETATM    5 BR   UNL     1      30.516  43.280  54.633  1.00  0.00    -0.048 Br
HETATM    6  C   UNL     1      28.080  44.776  54.570  1.00  0.00     0.136 A 
HETATM    7  F   UNL     1      28.333  45.078  55.852  1.00  0.00    -0.205 F 
HETATM    8  C   UNL     1      26.911  45.282  53.993  1.00  0.00     0.075 A 
ENDROOT
BRANCH   1   9
HETATM    9  N   UNL     1      25.360  45.463  52.154  1.00  0.00    -0.376 N 
HETATM   10  C   UNL     1      24.229  44.558  51.891  1.00  0.00     0.150 C 
HETATM   11  C   UNL     1      23.864  44.561  50.392  1.00  0.00     0.254 C 
HETATM   12  N   UNL     1      23.641  45.991  49.897  1.00  0.00    -0.072 N 
HETATM   13  C   UNL     1      23.247  46.026  48.451  1.00  0.00     0.269 C 
HETATM   14  H   UNL     1      22.860  46.380  50.442  1.00  0.00     0.279 HD
HETATM   15  C   UNL     1      24.859  46.870  50.176  1.00  0.00     0.254 C 
HETATM   16  C   UNL     1      25.225  46.850  51.676  1.00  0.00     0.150 C 
ENDBRANCH   1   9
BRANCH   2  17
HETATM   17  N   UNL     1      27.267  43.915  50.542  1.00  0.00    -0.113 N 
HETATM   18  O   UNL     1      27.484  44.832  49.740  1.00  0.00    -0.532 OA
HETATM   19  O   UNL     1      26.845  42.787  50.257  1.00  0.00    -0.532 OA
ENDBRANCH   2  17
TORSDOF 2
ENDMDL
MODEL 7
REMARK VINA RESULT:      -6.2     12.338     13.127
REMARK  2 active torsions:
REMARK  status: ('A' for Active; 'I' for Inactive)
REMARK    1  A    between atoms: N_6  and  C_7 
REMARK    2  A    between atoms: C_8  and  N_9 
ROOT
HETATM    1  C   UNL     1      29.323  50.155  41.040  1.00  0.00     0.066 A 
HETATM    2  C   UNL     1      29.534  51.528  41.319  1.00  0.00     0.130 A 
HETATM    3  C   UNL     1      30.554  51.997  42.162  1.00  0.00     0.060 A 
HETATM    4  C   UNL     1      31.395  51.076  42.772  1.00  0.00     0.052 A 
HETATM    5 BR   UNL     1      32.782  51.678  43.902  1.00  0.00    -0.048 Br
HETATM    6  C   UNL     1      31.203  49.717  42.545  1.00  0.00     0.136 A 
HETATM    7  F   UNL     1      32.000  48.804  43.119  1.00  0.00    -0.205 F 
HETATM    8  C   UNL     1      30.185  49.264  41.700  1.00  0.00     0.075 A 
ENDROOT
BRANCH   1   9
HETATM    9  N   UNL     1      28.368  49.666  40.163  1.00  0.00    -0.376 N 
HETATM   10  C   UNL     1      27.034  49.260  40.631  1.00  0.00     0.150 C 
HETATM   11  C   UNL     1      26.791  47.762  40.355  1.00  0.00     0.254 C 
HETATM   12  N   UNL     1      27.057  47.437  38.885  1.00  0.00    -0.072 N 
HETATM   13  C   UNL     1      26.794  45.993  38.576  1.00  0.00     0.269 C 
HETATM   14  H   UNL     1      26.400  47.999  38.328  1.00  0.00     0.279 HD
HETATM   15  C   UNL     1      28.467  47.858  38.471  1.00  0.00     0.254 C 
HETATM   16  C   UNL     1      28.704  49.356  38.763  1.00  0.00     0.150 C 
ENDBRANCH   1   9
BRANCH   2  17
HETATM   17  N   UNL     1      28.639  52.528  40.770  1.00  0.00    -0.113 N 
HETATM   18  O   UNL     1      28.963  53.060  39.701  1.00  0.00    -0.532 OA
HETATM   19  O   UNL     1      27.632  52.796  41.438  1.00  0.00    -0.532 OA
ENDBRANCH   2  17
TORSDOF 2
ENDMDL
MODEL 8
REMARK VINA RESULT:      -6.2      2.723      3.546
REMARK  2 active torsions:
REMARK  status: ('A' for Active; 'I' for Inactive)
REMARK    1  A    between atoms: N_6  and  C_7 
REMARK    2  A    between atoms: C_8  and  N_9 
ROOT
HETATM    1  C   UNL     1      27.009  45.301  53.241  1.00  0.00     0.066 A 
HETATM    2  C   UNL     1      27.977  44.371  53.693  1.00  0.00     0.130 A 
HETATM    3  C   UNL     1      28.724  44.543  54.869  1.00  0.00     0.060 A 
HETATM    4  C   UNL     1      28.522  45.689  55.628  1.00  0.00     0.052 A 
HETATM    5 BR   UNL     1      29.504  45.943  57.220  1.00  0.00    -0.048 Br
HETATM    6  C   UNL     1      27.600  46.639  55.203  1.00  0.00     0.136 A 
HETATM    7  F   UNL     1      27.382  47.755  55.915  1.00  0.00    -0.205 F 
HETATM    8  C   UNL     1      26.861  46.453  54.030  1.00  0.00     0.075 A 
ENDROOT
BRANCH   1   9
HETATM    9  N   UNL     1      26.212  45.127  52.121  1.00  0.00    -0.376 N 
HETATM   10  C   UNL     1      24.954  44.366  52.183  1.00  0.00     0.150 C 
HETATM   11  C   UNL     1      25.013  43.136  51.255  1.00  0.00     0.254 C 
HETATM   12  N   UNL     1      25.415  43.551  49.839  1.00  0.00    -0.072 N 
HETATM   13  C   UNL     1      25.445  42.381  48.902  1.00  0.00     0.269 C 
HETATM   14  H   UNL     1      24.696  44.203  49.500  1.00  0.00     0.279 HD
HETATM   15  C   UNL     1      26.740  44.312  49.840  1.00  0.00     0.254 C 
HETATM   16  C   UNL     1      26.676  45.534  50.783  1.00  0.00     0.150 C 
ENDBRANCH   1   9
BRANCH   2  17
HETATM   17  N   UNL     1      28.283  43.195  52.900  1.00  0.00    -0.113 N 
HETATM   18  O   UNL     1      27.625  42.171  53.121  1.00  0.00    -0.532 OA
HETATM   19  O   UNL     1      29.208  43.301  52.086  1.00  0.00    -0.532 OA
ENDBRANCH   2  17
TORSDOF 2
ENDMDL
MODEL 9
REMARK VINA RESULT:      -5.9     13.228     14.268
REMARK  2 active torsions:
REMARK  status: ('A' for Active; 'I' for Inactive)
REMARK    1  A    between atoms: N_6  and  C_7 
REMARK    2  A    between atoms: C_8  and  N_9 
ROOT
HETATM    1  C   UNL     1      30.308  50.557  40.758  1.00  0.00     0.066 A 
HETATM    2  C   UNL     1      28.996  50.937  40.383  1.00  0.00     0.130 A 
HETATM    3  C   UNL     1      28.011  50.019  39.983  1.00  0.00     0.060 A 
HETATM    4  C   UNL     1      28.334  48.669  39.934  1.00  0.00     0.052 A 
HETATM    5 BR   UNL     1      27.028  47.411  39.411  1.00  0.00    -0.048 Br
HETATM    6  C   UNL     1      29.621  48.260  40.269  1.00  0.00     0.136 A 
HETATM    7  F   UNL     1      29.962  46.963  40.233  1.00  0.00    -0.205 F 
HETATM    8  C   UNL     1      30.591  49.185  40.668  1.00  0.00     0.075 A 
ENDROOT
BRANCH   1   9
HETATM    9  N   UNL     1      31.280  51.431  41.218  1.00  0.00    -0.376 N 
HETATM   10  C   UNL     1      32.329  51.950  40.327  1.00  0.00     0.150 C 
HETATM   11  C   UNL     1      33.727  51.517  40.818  1.00  0.00     0.254 C 
HETATM   12  N   UNL     1      33.920  51.895  42.287  1.00  0.00    -0.072 N 
HETATM   13  C   UNL     1      35.284  51.521  42.785  1.00  0.00     0.269 C 
HETATM   14  H   UNL     1      33.836  52.919  42.349  1.00  0.00     0.279 HD
HETATM   15  C   UNL     1      32.814  51.304  43.161  1.00  0.00     0.254 C 
HETATM   16  C   UNL     1      31.420  51.732  42.654  1.00  0.00     0.150 C 
ENDBRANCH   1   9
BRANCH   2  17
HETATM   17  N   UNL     1      28.627  52.338  40.342  1.00  0.00    -0.113 N 
HETATM   18  O   UNL     1      28.068  52.812  41.340  1.00  0.00    -0.532 OA
HETATM   19  O   UNL     1      28.870  52.945  39.292  1.00  0.00    -0.532 OA
ENDBRANCH   2  17
TORSDOF 2
ENDMDL
MODEL 10
REMARK VINA RESULT:      -5.9     13.766     15.217
REMARK  2 active torsions:
REMARK  status: ('A' for Active; 'I' for Inactive)
REMARK    1  A    between atoms: N_6  and  C_7 
REMARK    2  A    between atoms: C_8  and  N_9 
ROOT
HETATM    1  C   UNL     1      31.842  50.550  41.035  1.00  0.00     0.066 A 
HETATM    2  C   UNL     1      31.858  51.489  39.975  1.00  0.00     0.130 A 
HETATM    3  C   UNL     1      30.723  51.812  39.212  1.00  0.00     0.060 A 
HETATM    4  C   UNL     1      29.524  51.171  39.492  1.00  0.00     0.052 A 
HETATM    5 BR   UNL     1      27.981  51.592  38.491  1.00  0.00    -0.048 Br
HETATM    6  C   UNL     1      29.475  50.222  40.507  1.00  0.00     0.136 A 
HETATM    7  F   UNL     1      28.330  49.587  40.802  1.00  0.00    -0.205 F 
HETATM    8  C   UNL     1      30.611  49.912  41.261  1.00  0.00     0.075 A 
ENDROOT
BRANCH   1   9
HETATM    9  N   UNL     1      32.927  50.258  41.846  1.00  0.00    -0.376 N 
HETATM   10  C   UNL     1      33.138  50.955  43.125  1.00  0.00     0.150 C 
HETATM   11  C   UNL     1      34.471  51.732  43.110  1.00  0.00     0.254 C 
HETATM   12  N   UNL     1      35.624  50.812  42.708  1.00  0.00    -0.072 N 
HETATM   13  C   UNL     1      36.940  51.530  42.720  1.00  0.00     0.269 C 
HETATM   14  H   UNL     1      35.672  50.063  43.411  1.00  0.00     0.279 HD
HETATM   15  C   UNL     1      35.355  50.142  41.361  1.00  0.00     0.254 C 
HETATM   16  C   UNL     1      34.013  49.378  41.382  1.00  0.00     0.150 C 
ENDBRANCH   1   9
BRANCH   2  17
HETATM   17  N   UNL     1      33.099  52.131  39.590  1.00  0.00    -0.113 N 
HETATM   18  O   UNL     1      33.426  53.156  40.202  1.00  0.00    -0.532 OA
HETATM   19  O   UNL     1      33.719  51.620  38.649  1.00  0.00    -0.532 OA
ENDBRANCH   2  17
TORSDOF 2
ENDMDL
