MODEL 1
REMARK VINA RESULT:      -9.3      0.000      0.000
REMARK  3 active torsions:
REMARK  status: ('A' for Active; 'I' for Inactive)
REMARK    1  A    between atoms: O_2  and  C_3 
REMARK    2  A    between atoms: C_9  and  C_10 
REMARK       I    between atoms: C_10  and  N_11 
REMARK    3  A    between atoms: N_11  and  C_12 
ROOT
HETATM    1  C   UNL     1      30.719  44.297  56.423  1.00  0.00     0.068 A 
HETATM    2  C   UNL     1      29.723  45.257  56.223  1.00  0.00     0.044 A 
HETATM    3  C   UNL     1      28.837  45.158  55.142  1.00  0.00    -0.043 A 
HETATM    4  C   UNL     1      28.978  44.087  54.231  1.00  0.00    -0.001 A 
HETATM    5  C   UNL     1      28.017  44.035  53.142  1.00  0.00     0.069 A 
HETATM    6  C   UNL     1      26.884  44.814  53.066  1.00  0.00     0.007 A 
HETATM    7  C   UNL     1      26.229  44.422  51.873  1.00  0.00     0.153 A 
HETATM    8  N   UNL     1      26.942  43.467  51.228  1.00  0.00    -0.168 NA
HETATM    9  N   UNL     1      28.014  43.262  52.023  1.00  0.00    -0.276 N 
HETATM   10  H   UNL     1      28.703  42.577  51.734  1.00  0.00     0.189 HD
HETATM   11  C   UNL     1      26.534  45.785  54.138  1.00  0.00     0.048 C 
HETATM   12  C   UNL     1      27.800  46.249  54.901  1.00  0.00     0.044 C 
HETATM   13  C   UNL     1      29.976  43.133  54.426  1.00  0.00     0.017 A 
HETATM   14  C   UNL     1      30.843  43.237  55.522  1.00  0.00     0.037 A 
ENDROOT
BRANCH   7  15
HETATM   15  C   UNL     1      24.941  44.910  51.338  1.00  0.00     0.277 C 
HETATM   16  N   UNL     1      25.126  45.939  50.436  1.00  0.00    -0.322 N 
HETATM   17  H   UNL     1      26.106  46.184  50.309  1.00  0.00     0.169 HD
HETATM   18  O   UNL     1      23.869  44.422  51.679  1.00  0.00    -0.266 OA
BRANCH  16  19
HETATM   19  C   UNL     1      24.162  46.639  49.691  1.00  0.00     0.037 A 
HETATM   20  C   UNL     1      23.972  48.018  49.767  1.00  0.00     0.071 A 
HETATM   21  C   UNL     1      22.981  48.621  48.994  1.00  0.00     0.118 A 
HETATM   22  F   UNL     1      22.801  49.946  49.073  1.00  0.00    -0.206 F 
HETATM   23  C   UNL     1      22.174  47.877  48.143  1.00  0.00     0.042 A 
HETATM   24  C   UNL     1      22.359  46.500  48.059  1.00  0.00     0.005 A 
HETATM   25  C   UNL     1      23.349  45.885  48.831  1.00  0.00     0.029 A 
ENDBRANCH  16  19
ENDBRANCH   7  15
BRANCH   1  26
HETATM   26  O   UNL     1      31.503  44.510  57.524  1.00  0.00    -0.356 OA
HETATM   27  C   UNL     1      30.950  45.303  58.566  1.00  0.00     0.210 C 
ENDBRANCH   1  26
TORSDOF 3
ENDMDL
MODEL 2
REMARK VINA RESULT:      -9.3      4.615      6.220
REMARK  3 active torsions:
REMARK  status: ('A' for Active; 'I' for Inactive)
REMARK    1  A    between atoms: O_2  and  C_3 
REMARK    2  A    between atoms: C_9  and  C_10 
REMARK       I    between atoms: C_10  and  N_11 
REMARK    3  A    between atoms: N_11  and  C_12 
ROOT
HETATM    1  C   UNL     1      29.717  45.744  56.613  1.00  0.00     0.068 A 
HETATM    2  C   UNL     1      30.225  44.657  55.895  1.00  0.00     0.044 A 
HETATM    3  C   UNL     1      29.524  44.128  54.804  1.00  0.00    -0.043 A 
HETATM    4  C   UNL     1      28.275  44.686  54.448  1.00  0.00    -0.001 A 
HETATM    5  C   UNL     1      27.609  44.100  53.297  1.00  0.00     0.069 A 
HETATM    6  C   UNL     1      28.197  43.207  52.429  1.00  0.00     0.007 A 
HETATM    7  C   UNL     1      27.215  42.921  51.450  1.00  0.00     0.153 A 
HETATM    8  N   UNL     1      26.064  43.584  51.721  1.00  0.00    -0.168 NA
HETATM    9  N   UNL     1      26.341  44.282  52.843  1.00  0.00    -0.276 N 
HETATM   10  H   UNL     1      25.610  44.861  53.242  1.00  0.00     0.189 HD
HETATM   11  C   UNL     1      29.612  42.777  52.596  1.00  0.00     0.048 C 
HETATM   12  C   UNL     1      30.059  42.900  54.073  1.00  0.00     0.044 C 
HETATM   13  C   UNL     1      27.765  45.766  55.169  1.00  0.00     0.017 A 
HETATM   14  C   UNL     1      28.487  46.294  56.247  1.00  0.00     0.037 A 
ENDROOT
BRANCH   7  15
HETATM   15  C   UNL     1      27.340  42.056  50.259  1.00  0.00     0.277 C 
HETATM   16  N   UNL     1      27.551  40.738  50.610  1.00  0.00    -0.322 N 
HETATM   17  H   UNL     1      27.595  40.599  51.618  1.00  0.00     0.169 HD
HETATM   18  O   UNL     1      27.251  42.503  49.119  1.00  0.00    -0.266 OA
BRANCH  16  19
HETATM   19  C   UNL     1      27.685  39.616  49.776  1.00  0.00     0.037 A 
HETATM   20  C   UNL     1      26.656  38.712  49.518  1.00  0.00     0.071 A 
HETATM   21  C   UNL     1      26.889  37.621  48.682  1.00  0.00     0.118 A 
HETATM   22  F   UNL     1      25.897  36.754  48.440  1.00  0.00    -0.206 F 
HETATM   23  C   UNL     1      28.130  37.413  48.094  1.00  0.00     0.042 A 
HETATM   24  C   UNL     1      29.163  38.312  48.344  1.00  0.00     0.005 A 
HETATM   25  C   UNL     1      28.940  39.409  49.182  1.00  0.00     0.029 A 
ENDBRANCH  16  19
ENDBRANCH   7  15
BRANCH   1  26
HETATM   26  O   UNL     1      30.511  46.167  57.644  1.00  0.00    -0.356 OA
HETATM   27  C   UNL     1      31.007  45.169  58.527  1.00  0.00     0.210 C 
ENDBRANCH   1  26
TORSDOF 3
ENDMDL
MODEL 3
REMARK VINA RESULT:      -8.7      4.102      5.755
REMARK  3 active torsions:
REMARK  status: ('A' for Active; 'I' for Inactive)
REMARK    1  A    between atoms: O_2  and  C_3 
REMARK    2  A    between atoms: C_9  and  C_10 
REMARK       I    between atoms: C_10  and  N_11 
REMARK    3  A    between atoms: N_11  and  C_12 
ROOT
HETATM    1  C   UNL     1      26.728  42.213  51.181  1.00  0.00     0.068 A 
HETATM    2  C   UNL     1      25.391  42.391  50.817  1.00  0.00     0.044 A 
HETATM    3  C   UNL     1      24.896  43.664  50.503  1.00  0.00    -0.043 A 
HETATM    4  C   UNL     1      25.760  44.779  50.585  1.00  0.00    -0.001 A 
HETATM    5  C   UNL     1      25.187  46.067  50.230  1.00  0.00     0.069 A 
HETATM    6  C   UNL     1      23.958  46.234  49.632  1.00  0.00     0.007 A 
HETATM    7  C   UNL     1      23.812  47.629  49.440  1.00  0.00     0.153 A 
HETATM    8  N   UNL     1      24.889  48.294  49.926  1.00  0.00    -0.168 NA
HETATM    9  N   UNL     1      25.694  47.318  50.396  1.00  0.00    -0.276 N 
HETATM   10  H   UNL     1      26.577  47.584  50.818  1.00  0.00     0.189 HD
HETATM   11  C   UNL     1      23.104  45.070  49.272  1.00  0.00     0.048 C 
HETATM   12  C   UNL     1      23.419  43.851  50.173  1.00  0.00     0.044 C 
HETATM   13  C   UNL     1      27.093  44.602  50.955  1.00  0.00     0.017 A 
HETATM   14  C   UNL     1      27.575  43.321  51.250  1.00  0.00     0.037 A 
ENDROOT
BRANCH   7  15
HETATM   15  C   UNL     1      22.694  48.348  48.794  1.00  0.00     0.277 C 
HETATM   16  N   UNL     1      21.843  48.905  49.728  1.00  0.00    -0.322 N 
HETATM   17  H   UNL     1      22.128  48.714  50.687  1.00  0.00     0.169 HD
HETATM   18  O   UNL     1      22.586  48.419  47.574  1.00  0.00    -0.266 OA
BRANCH  16  19
HETATM   19  C   UNL     1      20.696  49.687  49.517  1.00  0.00     0.037 A 
HETATM   20  C   UNL     1      20.720  50.972  48.974  1.00  0.00     0.071 A 
HETATM   21  C   UNL     1      19.528  51.675  48.812  1.00  0.00     0.118 A 
HETATM   22  F   UNL     1      19.558  52.910  48.293  1.00  0.00    -0.206 F 
HETATM   23  C   UNL     1      18.307  51.122  49.178  1.00  0.00     0.042 A 
HETATM   24  C   UNL     1      18.273  49.840  49.717  1.00  0.00     0.005 A 
HETATM   25  C   UNL     1      19.464  49.126  49.886  1.00  0.00     0.029 A 
ENDBRANCH  16  19
ENDBRANCH   7  15
BRANCH   1  26
HETATM   26  O   UNL     1      27.078  40.917  51.448  1.00  0.00    -0.356 OA
HETATM   27  C   UNL     1      28.167  40.378  50.710  1.00  0.00     0.210 C 
ENDBRANCH   1  26
TORSDOF 3
ENDMDL
MODEL 4
REMARK VINA RESULT:      -8.4      3.328      3.884
REMARK  3 active torsions:
REMARK  status: ('A' for Active; 'I' for Inactive)
REMARK    1  A    between atoms: O_2  and  C_3 
REMARK    2  A    between atoms: C_9  and  C_10 
REMARK       I    between atoms: C_10  and  N_11 
REMARK    3  A    between atoms: N_11  and  C_12 
ROOT
HETATM    1  C   UNL     1      30.029  45.135  56.248  1.00  0.00     0.068 A 
HETATM    2  C   UNL     1      28.891  45.392  55.480  1.00  0.00     0.044 A 
HETATM    3  C   UNL     1      28.497  44.511  54.464  1.00  0.00    -0.043 A 
HETATM    4  C   UNL     1      29.284  43.367  54.199  1.00  0.00    -0.001 A 
HETATM    5  C   UNL     1      28.811  42.488  53.143  1.00  0.00     0.069 A 
HETATM    6  C   UNL     1      27.572  42.582  52.549  1.00  0.00     0.007 A 
HETATM    7  C   UNL     1      27.518  41.526  51.607  1.00  0.00     0.153 A 
HETATM    8  N   UNL     1      28.682  40.832  51.599  1.00  0.00    -0.168 NA
HETATM    9  N   UNL     1      29.436  41.444  52.537  1.00  0.00    -0.276 N 
HETATM   10  H   UNL     1      30.372  41.091  52.708  1.00  0.00     0.189 HD
HETATM   11  C   UNL     1      26.583  43.611  52.971  1.00  0.00     0.048 C 
HETATM   12  C   UNL     1      27.291  44.840  53.591  1.00  0.00     0.044 C 
HETATM   13  C   UNL     1      30.424  43.114  54.962  1.00  0.00     0.017 A 
HETATM   14  C   UNL     1      30.793  43.996  55.985  1.00  0.00     0.037 A 
ENDROOT
BRANCH   7  15
HETATM   15  C   UNL     1      26.392  41.144  50.730  1.00  0.00     0.277 C 
HETATM   16  N   UNL     1      25.977  42.204  49.947  1.00  0.00    -0.322 N 
HETATM   17  H   UNL     1      26.508  43.055  50.120  1.00  0.00     0.169 HD
HETATM   18  O   UNL     1      25.925  40.009  50.729  1.00  0.00    -0.266 OA
BRANCH  16  19
HETATM   19  C   UNL     1      24.969  42.234  48.971  1.00  0.00     0.037 A 
HETATM   20  C   UNL     1      25.043  41.553  47.755  1.00  0.00     0.071 A 
HETATM   21  C   UNL     1      23.993  41.652  46.844  1.00  0.00     0.118 A 
HETATM   22  F   UNL     1      24.071  40.999  45.677  1.00  0.00    -0.206 F 
HETATM   23  C   UNL     1      22.866  42.417  47.119  1.00  0.00     0.042 A 
HETATM   24  C   UNL     1      22.782  43.097  48.330  1.00  0.00     0.005 A 
HETATM   25  C   UNL     1      23.831  43.005  49.251  1.00  0.00     0.029 A 
ENDBRANCH  16  19
ENDBRANCH   7  15
BRANCH   1  26
HETATM   26  O   UNL     1      30.288  46.070  57.214  1.00  0.00    -0.356 OA
HETATM   27  C   UNL     1      30.767  45.591  58.464  1.00  0.00     0.210 C 
ENDBRANCH   1  26
TORSDOF 3
ENDMDL
MODEL 5
REMARK VINA RESULT:      -8.3      5.193      9.141
REMARK  3 active torsions:
REMARK  status: ('A' for Active; 'I' for Inactive)
REMARK    1  A    between atoms: O_2  and  C_3 
REMARK    2  A    between atoms: C_9  and  C_10 
REMARK       I    between atoms: C_10  and  N_11 
REMARK    3  A    between atoms: N_11  and  C_12 
ROOT
HETATM    1  C   UNL     1      26.176  39.416  46.798  1.00  0.00     0.068 A 
HETATM    2  C   UNL     1      25.535  40.253  47.716  1.00  0.00     0.044 A 
HETATM    3  C   UNL     1      26.120  40.538  48.957  1.00  0.00    -0.043 A 
HETATM    4  C   UNL     1      27.359  39.944  49.288  1.00  0.00    -0.001 A 
HETATM    5  C   UNL     1      27.917  40.293  50.584  1.00  0.00     0.069 A 
HETATM    6  C   UNL     1      27.437  41.300  51.392  1.00  0.00     0.007 A 
HETATM    7  C   UNL     1      28.282  41.315  52.528  1.00  0.00     0.153 A 
HETATM    8  N   UNL     1      29.221  40.341  52.438  1.00  0.00    -0.168 NA
HETATM    9  N   UNL     1      28.966  39.746  51.253  1.00  0.00    -0.276 N 
HETATM   10  H   UNL     1      29.553  38.969  50.969  1.00  0.00     0.189 HD
HETATM   11  C   UNL     1      26.287  42.148  50.978  1.00  0.00     0.048 C 
HETATM   12  C   UNL     1      25.377  41.398  49.973  1.00  0.00     0.044 C 
HETATM   13  C   UNL     1      27.995  39.103  48.375  1.00  0.00     0.017 A 
HETATM   14  C   UNL     1      27.404  38.843  47.132  1.00  0.00     0.037 A 
ENDROOT
BRANCH   7  15
HETATM   15  C   UNL     1      28.239  42.234  53.684  1.00  0.00     0.277 C 
HETATM   16  N   UNL     1      29.499  42.691  54.015  1.00  0.00    -0.322 N 
HETATM   17  H   UNL     1      30.229  42.308  53.416  1.00  0.00     0.169 HD
HETATM   18  O   UNL     1      27.186  42.529  54.241  1.00  0.00    -0.266 OA
BRANCH  16  19
HETATM   19  C   UNL     1      29.870  43.598  55.021  1.00  0.00     0.037 A 
HETATM   20  C   UNL     1      30.834  43.331  55.992  1.00  0.00     0.071 A 
HETATM   21  C   UNL     1      31.127  44.293  56.957  1.00  0.00     0.118 A 
HETATM   22  F   UNL     1      32.053  44.030  57.889  1.00  0.00    -0.206 F 
HETATM   23  C   UNL     1      30.477  45.521  56.974  1.00  0.00     0.042 A 
HETATM   24  C   UNL     1      29.514  45.797  56.008  1.00  0.00     0.005 A 
HETATM   25  C   UNL     1      29.213  44.838  55.036  1.00  0.00     0.029 A 
ENDBRANCH  16  19
ENDBRANCH   7  15
BRANCH   1  26
HETATM   26  O   UNL     1      25.499  39.237  45.622  1.00  0.00    -0.356 OA
HETATM   27  C   UNL     1      24.085  39.112  45.704  1.00  0.00     0.210 C 
ENDBRANCH   1  26
TORSDOF 3
ENDMDL
MODEL 6
REMARK VINA RESULT:      -8.2      3.760      8.589
REMARK  3 active torsions:
REMARK  status: ('A' for Active; 'I' for Inactive)
REMARK    1  A    between atoms: O_2  and  C_3 
REMARK    2  A    between atoms: C_9  and  C_10 
REMARK       I    between atoms: C_10  and  N_11 
REMARK    3  A    between atoms: N_11  and  C_12 
ROOT
HETATM    1  C   UNL     1      23.975  42.498  49.122  1.00  0.00     0.068 A 
HETATM    2  C   UNL     1      25.205  42.333  49.765  1.00  0.00     0.044 A 
HETATM    3  C   UNL     1      25.687  43.306  50.651  1.00  0.00    -0.043 A 
HETATM    4  C   UNL     1      24.927  44.477  50.870  1.00  0.00    -0.001 A 
HETATM    5  C   UNL     1      25.477  45.437  51.813  1.00  0.00     0.069 A 
HETATM    6  C   UNL     1      26.548  45.187  52.641  1.00  0.00     0.007 A 
HETATM    7  C   UNL     1      26.726  46.367  53.404  1.00  0.00     0.153 A 
HETATM    8  N   UNL     1      25.824  47.311  53.040  1.00  0.00    -0.168 NA
HETATM    9  N   UNL     1      25.091  46.713  52.077  1.00  0.00    -0.276 N 
HETATM   10  H   UNL     1      24.341  47.242  51.644  1.00  0.00     0.189 HD
HETATM   11  C   UNL     1      27.234  43.867  52.650  1.00  0.00     0.048 C 
HETATM   12  C   UNL     1      27.060  43.142  51.293  1.00  0.00     0.044 C 
HETATM   13  C   UNL     1      23.703  44.644  50.223  1.00  0.00     0.017 A 
HETATM   14  C   UNL     1      23.228  43.655  49.353  1.00  0.00     0.037 A 
ENDROOT
BRANCH   7  15
HETATM   15  C   UNL     1      27.709  46.619  54.478  1.00  0.00     0.277 C 
HETATM   16  N   UNL     1      28.208  45.440  54.994  1.00  0.00    -0.322 N 
HETATM   17  H   UNL     1      27.806  44.614  54.555  1.00  0.00     0.169 HD
HETATM   18  O   UNL     1      28.015  47.756  54.825  1.00  0.00    -0.266 OA
BRANCH  16  19
HETATM   19  C   UNL     1      29.179  45.259  55.992  1.00  0.00     0.037 A 
HETATM   20  C   UNL     1      30.257  44.381  55.879  1.00  0.00     0.071 A 
HETATM   21  C   UNL     1      31.164  44.263  56.930  1.00  0.00     0.118 A 
HETATM   22  F   UNL     1      32.196  43.417  56.817  1.00  0.00    -0.206 F 
HETATM   23  C   UNL     1      31.020  45.005  58.096  1.00  0.00     0.042 A 
HETATM   24  C   UNL     1      29.949  45.885  58.217  1.00  0.00     0.005 A 
HETATM   25  C   UNL     1      29.032  46.010  57.168  1.00  0.00     0.029 A 
ENDBRANCH  16  19
ENDBRANCH   7  15
BRANCH   1  26
HETATM   26  O   UNL     1      23.621  41.466  48.295  1.00  0.00    -0.356 OA
HETATM   27  C   UNL     1      24.674  40.656  47.788  1.00  0.00     0.210 C 
ENDBRANCH   1  26
TORSDOF 3
ENDMDL
MODEL 7
REMARK VINA RESULT:      -8.2      4.259     10.732
REMARK  3 active torsions:
REMARK  status: ('A' for Active; 'I' for Inactive)
REMARK    1  A    between atoms: O_2  and  C_3 
REMARK    2  A    between atoms: C_9  and  C_10 
REMARK       I    between atoms: C_10  and  N_11 
REMARK    3  A    between atoms: N_11  and  C_12 
ROOT
HETATM    1  C   UNL     1      18.270  51.403  46.931  1.00  0.00     0.068 A 
HETATM    2  C   UNL     1      19.133  51.719  47.984  1.00  0.00     0.044 A 
HETATM    3  C   UNL     1      20.132  50.823  48.386  1.00  0.00    -0.043 A 
HETATM    4  C   UNL     1      20.244  49.575  47.733  1.00  0.00    -0.001 A 
HETATM    5  C   UNL     1      21.312  48.700  48.188  1.00  0.00     0.069 A 
HETATM    6  C   UNL     1      22.323  49.085  49.041  1.00  0.00     0.007 A 
HETATM    7  C   UNL     1      23.149  47.946  49.193  1.00  0.00     0.153 A 
HETATM    8  N   UNL     1      22.653  46.898  48.491  1.00  0.00    -0.168 NA
HETATM    9  N   UNL     1      21.544  47.392  47.901  1.00  0.00    -0.276 N 
HETATM   10  H   UNL     1      20.995  46.773  47.315  1.00  0.00     0.189 HD
HETATM   11  C   UNL     1      22.414  50.476  49.561  1.00  0.00     0.048 C 
HETATM   12  C   UNL     1      21.022  51.154  49.580  1.00  0.00     0.044 C 
HETATM   13  C   UNL     1      19.378  49.257  46.686  1.00  0.00     0.017 A 
HETATM   14  C   UNL     1      18.396  50.171  46.286  1.00  0.00     0.037 A 
ENDROOT
BRANCH   7  15
HETATM   15  C   UNL     1      24.403  47.826  49.967  1.00  0.00     0.277 C 
HETATM   16  N   UNL     1      24.303  46.857  50.945  1.00  0.00    -0.322 N 
HETATM   17  H   UNL     1      23.389  46.409  50.967  1.00  0.00     0.169 HD
HETATM   18  O   UNL     1      25.385  48.521  49.724  1.00  0.00    -0.266 OA
BRANCH  16  19
HETATM   19  C   UNL     1      25.280  46.423  51.856  1.00  0.00     0.037 A 
HETATM   20  C   UNL     1      26.025  45.255  51.700  1.00  0.00     0.071 A 
HETATM   21  C   UNL     1      26.967  44.903  52.664  1.00  0.00     0.118 A 
HETATM   22  F   UNL     1      27.678  43.778  52.510  1.00  0.00    -0.206 F 
HETATM   23  C   UNL     1      27.185  45.694  53.785  1.00  0.00     0.042 A 
HETATM   24  C   UNL     1      26.448  46.863  53.948  1.00  0.00     0.005 A 
HETATM   25  C   UNL     1      25.500  47.225  52.987  1.00  0.00     0.029 A 
ENDBRANCH  16  19
ENDBRANCH   7  15
BRANCH   1  26
HETATM   26  O   UNL     1      17.352  52.374  46.636  1.00  0.00    -0.356 OA
HETATM   27  C   UNL     1      17.059  52.589  45.262  1.00  0.00     0.210 C 
ENDBRANCH   1  26
TORSDOF 3
ENDMDL
MODEL 8
REMARK VINA RESULT:      -8.2      3.341      8.682
REMARK  3 active torsions:
REMARK  status: ('A' for Active; 'I' for Inactive)
REMARK    1  A    between atoms: O_2  and  C_3 
REMARK    2  A    between atoms: C_9  and  C_10 
REMARK       I    between atoms: C_10  and  N_11 
REMARK    3  A    between atoms: N_11  and  C_12 
ROOT
HETATM    1  C   UNL     1      22.545  47.316  48.179  1.00  0.00     0.068 A 
HETATM    2  C   UNL     1      23.509  47.761  49.088  1.00  0.00     0.044 A 
HETATM    3  C   UNL     1      24.308  46.849  49.790  1.00  0.00    -0.043 A 
HETATM    4  C   UNL     1      24.112  45.463  49.591  1.00  0.00    -0.001 A 
HETATM    5  C   UNL     1      24.985  44.573  50.338  1.00  0.00     0.069 A 
HETATM    6  C   UNL     1      26.097  44.983  51.040  1.00  0.00     0.007 A 
HETATM    7  C   UNL     1      26.663  43.804  51.583  1.00  0.00     0.153 A 
HETATM    8  N   UNL     1      25.915  42.721  51.257  1.00  0.00    -0.168 NA
HETATM    9  N   UNL     1      24.912  43.227  50.508  1.00  0.00    -0.276 N 
HETATM   10  H   UNL     1      24.212  42.588  50.147  1.00  0.00     0.189 HD
HETATM   11  C   UNL     1      26.516  46.410  51.071  1.00  0.00     0.048 C 
HETATM   12  C   UNL     1      25.308  47.348  50.828  1.00  0.00     0.044 C 
HETATM   13  C   UNL     1      23.146  45.019  48.688  1.00  0.00     0.017 A 
HETATM   14  C   UNL     1      22.367  45.944  47.982  1.00  0.00     0.037 A 
ENDROOT
BRANCH   7  15
HETATM   15  C   UNL     1      27.897  43.670  52.384  1.00  0.00     0.277 C 
HETATM   16  N   UNL     1      27.836  44.426  53.538  1.00  0.00    -0.322 N 
HETATM   17  H   UNL     1      26.965  44.946  53.625  1.00  0.00     0.169 HD
HETATM   18  O   UNL     1      28.829  42.956  52.027  1.00  0.00    -0.266 OA
BRANCH  16  19
HETATM   19  C   UNL     1      28.786  44.538  54.566  1.00  0.00     0.037 A 
HETATM   20  C   UNL     1      29.792  43.602  54.801  1.00  0.00     0.071 A 
HETATM   21  C   UNL     1      30.683  43.795  55.855  1.00  0.00     0.118 A 
HETATM   22  F   UNL     1      31.646  42.891  56.077  1.00  0.00    -0.206 F 
HETATM   23  C   UNL     1      30.594  44.908  56.682  1.00  0.00     0.042 A 
HETATM   24  C   UNL     1      29.594  45.849  56.454  1.00  0.00     0.005 A 
HETATM   25  C   UNL     1      28.694  45.663  55.400  1.00  0.00     0.029 A 
ENDBRANCH  16  19
ENDBRANCH   7  15
BRANCH   1  26
HETATM   26  O   UNL     1      21.847  48.314  47.555  1.00  0.00    -0.356 OA
HETATM   27  C   UNL     1      21.816  49.580  48.200  1.00  0.00     0.210 C 
ENDBRANCH   1  26
TORSDOF 3
ENDMDL
MODEL 9
REMARK VINA RESULT:      -8.2      5.094      9.008
REMARK  3 active torsions:
REMARK  status: ('A' for Active; 'I' for Inactive)
REMARK    1  A    between atoms: O_2  and  C_3 
REMARK    2  A    between atoms: C_9  and  C_10 
REMARK       I    between atoms: C_10  and  N_11 
REMARK    3  A    between atoms: N_11  and  C_12 
ROOT
HETATM    1  C   UNL     1      27.298  39.381  47.284  1.00  0.00     0.068 A 
HETATM    2  C   UNL     1      27.992  39.190  48.481  1.00  0.00     0.044 A 
HETATM    3  C   UNL     1      27.982  40.171  49.481  1.00  0.00    -0.043 A 
HETATM    4  C   UNL     1      27.283  41.379  49.256  1.00  0.00    -0.001 A 
HETATM    5  C   UNL     1      27.300  42.347  50.340  1.00  0.00     0.069 A 
HETATM    6  C   UNL     1      27.758  42.083  51.612  1.00  0.00     0.007 A 
HETATM    7  C   UNL     1      27.566  43.280  52.344  1.00  0.00     0.153 A 
HETATM    8  N   UNL     1      27.042  44.246  51.551  1.00  0.00    -0.168 NA
HETATM    9  N   UNL     1      26.898  43.646  50.350  1.00  0.00    -0.276 N 
HETATM   10  H   UNL     1      26.519  44.189  49.583  1.00  0.00     0.189 HD
HETATM   11  C   UNL     1      28.267  40.738  51.992  1.00  0.00     0.048 C 
HETATM   12  C   UNL     1      28.800  39.976  50.754  1.00  0.00     0.044 C 
HETATM   13  C   UNL     1      26.595  41.572  48.058  1.00  0.00     0.017 A 
HETATM   14  C   UNL     1      26.601  40.574  47.076  1.00  0.00     0.037 A 
ENDROOT
BRANCH   7  15
HETATM   15  C   UNL     1      27.845  43.529  53.773  1.00  0.00     0.277 C 
HETATM   16  N   UNL     1      29.191  43.741  53.997  1.00  0.00    -0.322 N 
HETATM   17  H   UNL     1      29.749  43.677  53.147  1.00  0.00     0.169 HD
HETATM   18  O   UNL     1      26.954  43.543  54.617  1.00  0.00    -0.266 OA
BRANCH  16  19
HETATM   19  C   UNL     1      29.846  44.041  55.203  1.00  0.00     0.037 A 
HETATM   20  C   UNL     1      30.806  43.220  55.792  1.00  0.00     0.071 A 
HETATM   21  C   UNL     1      31.394  43.600  56.997  1.00  0.00     0.118 A 
HETATM   22  F   UNL     1      32.314  42.806  57.560  1.00  0.00    -0.206 F 
HETATM   23  C   UNL     1      31.044  44.787  57.629  1.00  0.00     0.042 A 
HETATM   24  C   UNL     1      30.088  45.614  57.047  1.00  0.00     0.005 A 
HETATM   25  C   UNL     1      29.492  45.241  55.839  1.00  0.00     0.029 A 
ENDBRANCH  16  19
ENDBRANCH   7  15
BRANCH   1  26
HETATM   26  O   UNL     1      27.382  38.337  46.403  1.00  0.00    -0.356 OA
HETATM   27  C   UNL     1      27.205  38.639  45.025  1.00  0.00     0.210 C 
ENDBRANCH   1  26
TORSDOF 3
ENDMDL
MODEL 10
REMARK VINA RESULT:      -8.1     16.399     17.828
REMARK  3 active torsions:
REMARK  status: ('A' for Active; 'I' for Inactive)
REMARK    1  A    between atoms: O_2  and  C_3 
REMARK    2  A    between atoms: C_9  and  C_10 
REMARK       I    between atoms: C_10  and  N_11 
REMARK    3  A    between atoms: N_11  and  C_12 
ROOT
HETATM    1  C   UNL     1      39.757  39.316  63.977  1.00  0.00     0.068 A 
HETATM    2  C   UNL     1      40.188  40.541  63.459  1.00  0.00     0.044 A 
HETATM    3  C   UNL     1      39.430  41.704  63.644  1.00  0.00    -0.043 A 
HETATM    4  C   UNL     1      38.201  41.625  64.338  1.00  0.00    -0.001 A 
HETATM    5  C   UNL     1      37.473  42.871  64.508  1.00  0.00     0.069 A 
HETATM    6  C   UNL     1      37.990  44.118  64.233  1.00  0.00     0.007 A 
HETATM    7  C   UNL     1      36.966  45.038  64.565  1.00  0.00     0.153 A 
HETATM    8  N   UNL     1      35.859  44.386  64.995  1.00  0.00    -0.168 NA
HETATM    9  N   UNL     1      36.203  43.082  64.945  1.00  0.00    -0.276 N 
HETATM   10  H   UNL     1      35.515  42.391  65.224  1.00  0.00     0.189 HD
HETATM   11  C   UNL     1      39.385  44.292  63.745  1.00  0.00     0.048 C 
HETATM   12  C   UNL     1      39.880  43.019  63.015  1.00  0.00     0.044 C 
HETATM   13  C   UNL     1      37.768  40.401  64.849  1.00  0.00     0.017 A 
HETATM   14  C   UNL     1      38.546  39.251  64.670  1.00  0.00     0.037 A 
ENDROOT
BRANCH   7  15
HETATM   15  C   UNL     1      37.013  46.514  64.505  1.00  0.00     0.277 C 
HETATM   16  N   UNL     1      37.719  47.042  65.568  1.00  0.00    -0.322 N 
HETATM   17  H   UNL     1      38.069  46.328  66.204  1.00  0.00     0.169 HD
HETATM   18  O   UNL     1      36.481  47.144  63.597  1.00  0.00    -0.266 OA
BRANCH  16  19
HETATM   19  C   UNL     1      38.015  48.386  65.846  1.00  0.00     0.037 A 
HETATM   20  C   UNL     1      37.273  49.181  66.719  1.00  0.00     0.071 A 
HETATM   21  C   UNL     1      37.639  50.509  66.924  1.00  0.00     0.118 A 
HETATM   22  F   UNL     1      36.921  51.269  67.762  1.00  0.00    -0.206 F 
HETATM   23  C   UNL     1      38.735  51.065  66.275  1.00  0.00     0.042 A 
HETATM   24  C   UNL     1      39.482  50.280  65.403  1.00  0.00     0.005 A 
HETATM   25  C   UNL     1      39.122  48.945  65.190  1.00  0.00     0.029 A 
ENDBRANCH  16  19
ENDBRANCH   7  15
BRANCH   1  26
HETATM   26  O   UNL     1      40.601  38.266  63.734  1.00  0.00    -0.356 OA
HETATM   27  C   UNL     1      41.802  38.216  64.493  1.00  0.00     0.210 C 
ENDBRANCH   1  26
TORSDOF 3
ENDMDL
