MODEL 1
REMARK VINA RESULT:      -9.3      0.000      0.000
REMARK  7 active torsions:
REMARK  status: ('A' for Active; 'I' for Inactive)
REMARK    1  A    between atoms: N_3  and  N_4 
REMARK       I    between atoms: N_4  and  C_5 
REMARK    2  A    between atoms: C_5  and  C_6 
REMARK    3  A    between atoms: C_9  and  O_10 
REMARK    4  A    between atoms: O_10  and  C_11 
REMARK    5  A    between atoms: C_11  and  C_12 
REMARK       I    between atoms: C_12  and  N_13 
REMARK    6  A    between atoms: N_13  and  C_14 
REMARK    7  A    between atoms: C_16  and  O_17 
ROOT
HETATM    1  C   UNL     1      26.266  45.034  52.954  1.00  0.00     0.033 A 
HETATM    2  C   UNL     1      26.200  46.402  52.666  1.00  0.00     0.020 A 
HETATM    3  C   UNL     1      25.383  46.852  51.624  1.00  0.00     0.038 A 
HETATM    4  C   UNL     1      24.644  45.946  50.857  1.00  0.00     0.069 A 
HETATM    5  C   UNL     1      24.693  44.585  51.164  1.00  0.00     0.038 A 
HETATM    6  C   UNL     1      25.498  44.131  52.213  1.00  0.00     0.020 A 
ENDROOT
BRANCH   4   7
HETATM    7  O   UNL     1      23.886  46.503  49.863  1.00  0.00    -0.342 OA
BRANCH   7   8
HETATM    8  C   UNL     1      24.028  47.913  49.704  1.00  0.00     0.278 C 
BRANCH   8   9
HETATM    9  C   UNL     1      22.866  48.508  48.905  1.00  0.00     0.246 C 
HETATM   10  N   UNL     1      22.058  49.333  49.667  1.00  0.00    -0.325 N 
HETATM   11  H   UNL     1      22.388  49.502  50.612  1.00  0.00     0.169 HD
HETATM   12  O   UNL     1      22.690  48.187  47.732  1.00  0.00    -0.271 OA
BRANCH  10  13
HETATM   13  C   UNL     1      20.857  49.965  49.285  1.00  0.00     0.037 A 
HETATM   14  C   UNL     1      19.606  49.340  49.304  1.00  0.00     0.066 A 
HETATM   15  C   UNL     1      18.454  50.037  48.923  1.00  0.00     0.070 A 
HETATM   16  C   UNL     1      18.559  51.371  48.527  1.00  0.00     0.037 A 
HETATM   17  C   UNL     1      19.798  52.005  48.502  1.00  0.00     0.005 A 
HETATM   18  C   UNL     1      20.944  51.303  48.878  1.00  0.00     0.029 A 
BRANCH  15  19
HETATM   19  O   UNL     1      17.180  49.535  48.900  1.00  0.00    -0.356 OA
HETATM   20  C   UNL     1      17.041  48.151  48.593  1.00  0.00     0.210 C 
ENDBRANCH  15  19
ENDBRANCH  10  13
ENDBRANCH   8   9
ENDBRANCH   7   8
ENDBRANCH   4   7
BRANCH   1  21
HETATM   21  C   UNL     1      27.119  44.506  54.050  1.00  0.00     0.270 C 
HETATM   22  N   UNL     1      28.413  44.968  54.051  1.00  0.00    -0.259 N 
HETATM   23  H   UNL     1      28.818  45.480  53.282  1.00  0.00     0.191 HD
HETATM   24  O   UNL     1      26.651  43.690  54.833  1.00  0.00    -0.266 OA
BRANCH  22  25
HETATM   25  N   UNL     1      29.303  44.457  54.922  1.00  0.00    -0.263 N 
HETATM   26  C   UNL     1      29.617  45.061  56.108  1.00  0.00     0.030 A 
HETATM   27  C   UNL     1      28.877  46.225  56.655  1.00  0.00     0.070 C 
HETATM   28  C   UNL     1      30.691  44.361  56.631  1.00  0.00     0.028 A 
HETATM   29  C   UNL     1      31.033  43.342  55.706  1.00  0.00     0.028 A 
HETATM   30  C   UNL     1      30.165  43.435  54.633  1.00  0.00     0.030 A 
HETATM   31  C   UNL     1      30.082  42.607  53.404  1.00  0.00     0.070 C 
ENDBRANCH  22  25
ENDBRANCH   1  21
TORSDOF 7
ENDMDL
MODEL 2
REMARK VINA RESULT:      -8.9      1.711     10.868
REMARK  7 active torsions:
REMARK  status: ('A' for Active; 'I' for Inactive)
REMARK    1  A    between atoms: N_3  and  N_4 
REMARK       I    between atoms: N_4  and  C_5 
REMARK    2  A    between atoms: C_5  and  C_6 
REMARK    3  A    between atoms: C_9  and  O_10 
REMARK    4  A    between atoms: O_10  and  C_11 
REMARK    5  A    between atoms: C_11  and  C_12 
REMARK       I    between atoms: C_12  and  N_13 
REMARK    6  A    between atoms: N_13  and  C_14 
REMARK    7  A    between atoms: C_16  and  O_17 
ROOT
HETATM    1  C   UNL     1      23.191  46.560  49.291  1.00  0.00     0.033 A 
HETATM    2  C   UNL     1      22.769  45.231  49.160  1.00  0.00     0.020 A 
HETATM    3  C   UNL     1      23.508  44.208  49.763  1.00  0.00     0.038 A 
HETATM    4  C   UNL     1      24.672  44.497  50.481  1.00  0.00     0.069 A 
HETATM    5  C   UNL     1      25.076  45.826  50.629  1.00  0.00     0.038 A 
HETATM    6  C   UNL     1      24.334  46.854  50.040  1.00  0.00     0.020 A 
ENDROOT
BRANCH   4   7
HETATM    7  O   UNL     1      25.312  43.414  51.021  1.00  0.00    -0.342 OA
BRANCH   7   8
HETATM    8  C   UNL     1      26.725  43.547  51.161  1.00  0.00     0.278 C 
BRANCH   8   9
HETATM    9  C   UNL     1      27.132  43.681  52.630  1.00  0.00     0.246 C 
HETATM   10  N   UNL     1      28.465  44.015  52.790  1.00  0.00    -0.325 N 
HETATM   11  H   UNL     1      28.965  44.210  51.927  1.00  0.00     0.169 HD
HETATM   12  O   UNL     1      26.325  43.437  53.523  1.00  0.00    -0.271 OA
BRANCH  10  13
HETATM   13  C   UNL     1      29.195  44.126  53.991  1.00  0.00     0.037 A 
HETATM   14  C   UNL     1      29.036  45.171  54.907  1.00  0.00     0.066 A 
HETATM   15  C   UNL     1      29.787  45.206  56.086  1.00  0.00     0.070 A 
HETATM   16  C   UNL     1      30.701  44.185  56.349  1.00  0.00     0.037 A 
HETATM   17  C   UNL     1      30.871  43.140  55.445  1.00  0.00     0.005 A 
HETATM   18  C   UNL     1      30.122  43.112  54.268  1.00  0.00     0.029 A 
BRANCH  15  19
HETATM   19  O   UNL     1      29.720  46.172  57.055  1.00  0.00    -0.356 OA
HETATM   20  C   UNL     1      29.955  45.755  58.396  1.00  0.00     0.210 C 
ENDBRANCH  15  19
ENDBRANCH  10  13
ENDBRANCH   8   9
ENDBRANCH   7   8
ENDBRANCH   4   7
BRANCH   1  21
HETATM   21  C   UNL     1      22.443  47.682  48.669  1.00  0.00     0.270 C 
HETATM   22  N   UNL     1      21.921  48.592  49.557  1.00  0.00    -0.259 N 
HETATM   23  H   UNL     1      21.885  48.435  50.553  1.00  0.00     0.191 HD
HETATM   24  O   UNL     1      22.304  47.709  47.453  1.00  0.00    -0.266 OA
BRANCH  22  25
HETATM   25  N   UNL     1      21.120  49.577  49.109  1.00  0.00    -0.263 N 
HETATM   26  C   UNL     1      21.587  50.803  48.726  1.00  0.00     0.030 A 
HETATM   27  C   UNL     1      23.029  51.116  48.570  1.00  0.00     0.070 C 
HETATM   28  C   UNL     1      20.474  51.599  48.519  1.00  0.00     0.028 A 
HETATM   29  C   UNL     1      19.327  50.824  48.824  1.00  0.00     0.028 A 
HETATM   30  C   UNL     1      19.756  49.567  49.213  1.00  0.00     0.030 A 
HETATM   31  C   UNL     1      18.967  48.379  49.625  1.00  0.00     0.070 C 
ENDBRANCH  22  25
ENDBRANCH   1  21
TORSDOF 7
ENDMDL
MODEL 3
REMARK VINA RESULT:      -8.7      1.651      2.245
REMARK  7 active torsions:
REMARK  status: ('A' for Active; 'I' for Inactive)
REMARK    1  A    between atoms: N_3  and  N_4 
REMARK       I    between atoms: N_4  and  C_5 
REMARK    2  A    between atoms: C_5  and  C_6 
REMARK    3  A    between atoms: C_9  and  O_10 
REMARK    4  A    between atoms: O_10  and  C_11 
REMARK    5  A    between atoms: C_11  and  C_12 
REMARK       I    between atoms: C_12  and  N_13 
REMARK    6  A    between atoms: N_13  and  C_14 
REMARK    7  A    between atoms: C_16  and  O_17 
ROOT
HETATM    1  C   UNL     1      26.361  44.146  52.025  1.00  0.00     0.033 A 
HETATM    2  C   UNL     1      25.051  43.680  51.867  1.00  0.00     0.020 A 
HETATM    3  C   UNL     1      24.406  43.832  50.635  1.00  0.00     0.038 A 
HETATM    4  C   UNL     1      25.052  44.459  49.565  1.00  0.00     0.069 A 
HETATM    5  C   UNL     1      26.368  44.900  49.720  1.00  0.00     0.038 A 
HETATM    6  C   UNL     1      27.022  44.739  50.944  1.00  0.00     0.020 A 
ENDROOT
BRANCH   4   7
HETATM    7  O   UNL     1      24.319  44.554  48.413  1.00  0.00    -0.342 OA
BRANCH   7   8
HETATM    8  C   UNL     1      22.933  44.839  48.593  1.00  0.00     0.278 C 
BRANCH   8   9
HETATM    9  C   UNL     1      22.576  46.235  48.078  1.00  0.00     0.246 C 
HETATM   10  N   UNL     1      22.628  47.201  49.067  1.00  0.00    -0.325 N 
HETATM   11  H   UNL     1      22.975  46.878  49.965  1.00  0.00     0.169 HD
HETATM   12  O   UNL     1      22.224  46.397  46.912  1.00  0.00    -0.271 OA
BRANCH  10  13
HETATM   13  C   UNL     1      22.273  48.562  48.971  1.00  0.00     0.037 A 
HETATM   14  C   UNL     1      20.967  49.041  49.125  1.00  0.00     0.066 A 
HETATM   15  C   UNL     1      20.693  50.409  49.030  1.00  0.00     0.070 A 
HETATM   16  C   UNL     1      21.735  51.303  48.784  1.00  0.00     0.037 A 
HETATM   17  C   UNL     1      23.039  50.840  48.626  1.00  0.00     0.005 A 
HETATM   18  C   UNL     1      23.306  49.473  48.717  1.00  0.00     0.029 A 
BRANCH  15  19
HETATM   19  O   UNL     1      19.462  50.994  49.162  1.00  0.00    -0.356 OA
HETATM   20  C   UNL     1      19.287  52.267  48.550  1.00  0.00     0.210 C 
ENDBRANCH  15  19
ENDBRANCH  10  13
ENDBRANCH   8   9
ENDBRANCH   7   8
ENDBRANCH   4   7
BRANCH   1  21
HETATM   21  C   UNL     1      27.090  44.010  53.313  1.00  0.00     0.270 C 
HETATM   22  N   UNL     1      28.287  44.681  53.374  1.00  0.00    -0.259 N 
HETATM   23  H   UNL     1      28.735  45.087  52.567  1.00  0.00     0.191 HD
HETATM   24  O   UNL     1      26.620  43.302  54.194  1.00  0.00    -0.266 OA
BRANCH  22  25
HETATM   25  N   UNL     1      29.086  44.521  54.446  1.00  0.00    -0.263 N 
HETATM   26  C   UNL     1      29.164  45.435  55.461  1.00  0.00     0.030 A 
HETATM   27  C   UNL     1      28.242  46.590  55.594  1.00  0.00     0.070 C 
HETATM   28  C   UNL     1      30.213  45.033  56.269  1.00  0.00     0.028 A 
HETATM   29  C   UNL     1      30.784  43.871  55.689  1.00  0.00     0.028 A 
HETATM   30  C   UNL     1      30.077  43.582  54.536  1.00  0.00     0.030 A 
HETATM   31  C   UNL     1      30.254  42.473  53.565  1.00  0.00     0.070 C 
ENDBRANCH  22  25
ENDBRANCH   1  21
TORSDOF 7
ENDMDL
MODEL 4
REMARK VINA RESULT:      -8.1      4.475     12.596
REMARK  7 active torsions:
REMARK  status: ('A' for Active; 'I' for Inactive)
REMARK    1  A    between atoms: N_3  and  N_4 
REMARK       I    between atoms: N_4  and  C_5 
REMARK    2  A    between atoms: C_5  and  C_6 
REMARK    3  A    between atoms: C_9  and  O_10 
REMARK    4  A    between atoms: O_10  and  C_11 
REMARK    5  A    between atoms: C_11  and  C_12 
REMARK       I    between atoms: C_12  and  N_13 
REMARK    6  A    between atoms: N_13  and  C_14 
REMARK    7  A    between atoms: C_16  and  O_17 
ROOT
HETATM    1  C   UNL     1      17.582  51.817  49.258  1.00  0.00     0.033 A 
HETATM    2  C   UNL     1      18.619  52.480  48.591  1.00  0.00     0.020 A 
HETATM    3  C   UNL     1      19.938  52.041  48.751  1.00  0.00     0.038 A 
HETATM    4  C   UNL     1      20.231  50.956  49.583  1.00  0.00     0.069 A 
HETATM    5  C   UNL     1      19.192  50.282  50.227  1.00  0.00     0.038 A 
HETATM    6  C   UNL     1      17.871  50.708  50.060  1.00  0.00     0.020 A 
ENDROOT
BRANCH   4   7
HETATM    7  O   UNL     1      21.556  50.622  49.664  1.00  0.00    -0.342 OA
BRANCH   7   8
HETATM    8  C   UNL     1      22.335  50.929  48.509  1.00  0.00     0.278 C 
BRANCH   8   9
HETATM    9  C   UNL     1      23.423  49.879  48.270  1.00  0.00     0.246 C 
HETATM   10  N   UNL     1      23.590  49.026  49.347  1.00  0.00    -0.325 N 
HETATM   11  H   UNL     1      22.921  49.151  50.101  1.00  0.00     0.169 HD
HETATM   12  O   UNL     1      24.085  49.895  47.236  1.00  0.00    -0.271 OA
BRANCH  10  13
HETATM   13  C   UNL     1      24.556  48.012  49.510  1.00  0.00     0.037 A 
HETATM   14  C   UNL     1      24.245  46.663  49.708  1.00  0.00     0.066 A 
HETATM   15  C   UNL     1      25.260  45.710  49.848  1.00  0.00     0.070 A 
HETATM   16  C   UNL     1      26.594  46.114  49.785  1.00  0.00     0.037 A 
HETATM   17  C   UNL     1      26.917  47.455  49.591  1.00  0.00     0.005 A 
HETATM   18  C   UNL     1      25.901  48.401  49.456  1.00  0.00     0.029 A 
BRANCH  15  19
HETATM   19  O   UNL     1      25.081  44.367  50.045  1.00  0.00    -0.356 OA
HETATM   20  C   UNL     1      25.984  43.494  49.373  1.00  0.00     0.210 C 
ENDBRANCH  15  19
ENDBRANCH  10  13
ENDBRANCH   8   9
ENDBRANCH   7   8
ENDBRANCH   4   7
BRANCH   1  21
HETATM   21  C   UNL     1      16.166  52.244  49.122  1.00  0.00     0.270 C 
HETATM   22  N   UNL     1      15.983  53.594  48.943  1.00  0.00    -0.259 N 
HETATM   23  H   UNL     1      16.718  54.273  49.069  1.00  0.00     0.191 HD
HETATM   24  O   UNL     1      15.277  51.408  49.215  1.00  0.00    -0.266 OA
BRANCH  22  25
HETATM   25  N   UNL     1      14.737  54.102  48.936  1.00  0.00    -0.263 N 
HETATM   26  C   UNL     1      14.035  54.371  50.078  1.00  0.00     0.030 A 
HETATM   27  C   UNL     1      14.632  54.326  51.435  1.00  0.00     0.070 C 
HETATM   28  C   UNL     1      12.747  54.688  49.680  1.00  0.00     0.028 A 
HETATM   29  C   UNL     1      12.690  54.567  48.269  1.00  0.00     0.028 A 
HETATM   30  C   UNL     1      13.941  54.176  47.825  1.00  0.00     0.030 A 
HETATM   31  C   UNL     1      14.423  53.919  46.446  1.00  0.00     0.070 C 
ENDBRANCH  22  25
ENDBRANCH   1  21
TORSDOF 7
ENDMDL
MODEL 5
REMARK VINA RESULT:      -8.1      1.823      2.199
REMARK  7 active torsions:
REMARK  status: ('A' for Active; 'I' for Inactive)
REMARK    1  A    between atoms: N_3  and  N_4 
REMARK       I    between atoms: N_4  and  C_5 
REMARK    2  A    between atoms: C_5  and  C_6 
REMARK    3  A    between atoms: C_9  and  O_10 
REMARK    4  A    between atoms: O_10  and  C_11 
REMARK    5  A    between atoms: C_11  and  C_12 
REMARK       I    between atoms: C_12  and  N_13 
REMARK    6  A    between atoms: N_13  and  C_14 
REMARK    7  A    between atoms: C_16  and  O_17 
ROOT
HETATM    1  C   UNL     1      25.730  44.654  52.385  1.00  0.00     0.033 A 
HETATM    2  C   UNL     1      25.632  45.953  51.871  1.00  0.00     0.020 A 
HETATM    3  C   UNL     1      24.768  46.211  50.802  1.00  0.00     0.038 A 
HETATM    4  C   UNL     1      24.014  45.181  50.231  1.00  0.00     0.069 A 
HETATM    5  C   UNL     1      24.096  43.893  50.762  1.00  0.00     0.038 A 
HETATM    6  C   UNL     1      24.948  43.631  51.839  1.00  0.00     0.020 A 
ENDROOT
BRANCH   4   7
HETATM    7  O   UNL     1      23.209  45.554  49.189  1.00  0.00    -0.342 OA
BRANCH   7   8
HETATM    8  C   UNL     1      22.167  44.635  48.863  1.00  0.00     0.278 C 
BRANCH   8   9
HETATM    9  C   UNL     1      20.845  45.358  48.599  1.00  0.00     0.246 C 
HETATM   10  N   UNL     1      20.949  46.732  48.725  1.00  0.00    -0.325 N 
HETATM   11  H   UNL     1      21.891  47.077  48.885  1.00  0.00     0.169 HD
HETATM   12  O   UNL     1      19.821  44.718  48.371  1.00  0.00    -0.271 OA
BRANCH  10  13
HETATM   13  C   UNL     1      19.920  47.692  48.646  1.00  0.00     0.037 A 
HETATM   14  C   UNL     1      19.420  48.203  47.443  1.00  0.00     0.066 A 
HETATM   15  C   UNL     1      18.386  49.146  47.444  1.00  0.00     0.070 A 
HETATM   16  C   UNL     1      17.849  49.574  48.658  1.00  0.00     0.037 A 
HETATM   17  C   UNL     1      18.339  49.076  49.862  1.00  0.00     0.005 A 
HETATM   18  C   UNL     1      19.373  48.139  49.856  1.00  0.00     0.029 A 
BRANCH  15  19
HETATM   19  O   UNL     1      17.817  49.715  46.336  1.00  0.00    -0.356 OA
HETATM   20  C   UNL     1      18.160  51.070  46.063  1.00  0.00     0.210 C 
ENDBRANCH  15  19
ENDBRANCH  10  13
ENDBRANCH   8   9
ENDBRANCH   7   8
ENDBRANCH   4   7
BRANCH   1  21
HETATM   21  C   UNL     1      26.633  44.328  53.519  1.00  0.00     0.270 C 
HETATM   22  N   UNL     1      27.933  44.745  53.362  1.00  0.00    -0.259 N 
HETATM   23  H   UNL     1      28.303  45.084  52.488  1.00  0.00     0.191 HD
HETATM   24  O   UNL     1      26.194  43.696  54.471  1.00  0.00    -0.266 OA
BRANCH  22  25
HETATM   25  N   UNL     1      28.860  44.390  54.271  1.00  0.00    -0.263 N 
HETATM   26  C   UNL     1      29.216  45.187  55.324  1.00  0.00     0.030 A 
HETATM   27  C   UNL     1      28.488  46.425  55.695  1.00  0.00     0.070 C 
HETATM   28  C   UNL     1      30.315  44.588  55.914  1.00  0.00     0.028 A 
HETATM   29  C   UNL     1      30.630  43.427  55.162  1.00  0.00     0.028 A 
HETATM   30  C   UNL     1      29.719  43.335  54.124  1.00  0.00     0.030 A 
HETATM   31  C   UNL     1      29.595  42.311  53.058  1.00  0.00     0.070 C 
ENDBRANCH  22  25
ENDBRANCH   1  21
TORSDOF 7
ENDMDL
MODEL 6
REMARK VINA RESULT:      -8.0      4.582     12.954
REMARK  7 active torsions:
REMARK  status: ('A' for Active; 'I' for Inactive)
REMARK    1  A    between atoms: N_3  and  N_4 
REMARK       I    between atoms: N_4  and  C_5 
REMARK    2  A    between atoms: C_5  and  C_6 
REMARK    3  A    between atoms: C_9  and  O_10 
REMARK    4  A    between atoms: O_10  and  C_11 
REMARK    5  A    between atoms: C_11  and  C_12 
REMARK       I    between atoms: C_12  and  N_13 
REMARK    6  A    between atoms: N_13  and  C_14 
REMARK    7  A    between atoms: C_16  and  O_17 
ROOT
HETATM    1  C   UNL     1      16.712  51.992  49.476  1.00  0.00     0.033 A 
HETATM    2  C   UNL     1      17.953  52.429  49.955  1.00  0.00     0.020 A 
HETATM    3  C   UNL     1      19.073  51.601  49.833  1.00  0.00     0.038 A 
HETATM    4  C   UNL     1      18.963  50.334  49.251  1.00  0.00     0.069 A 
HETATM    5  C   UNL     1      17.729  49.912  48.752  1.00  0.00     0.038 A 
HETATM    6  C   UNL     1      16.609  50.741  48.859  1.00  0.00     0.020 A 
ENDROOT
BRANCH   4   7
HETATM    7  O   UNL     1      20.126  49.614  49.191  1.00  0.00    -0.342 OA
BRANCH   7   8
HETATM    8  C   UNL     1      20.603  49.334  47.876  1.00  0.00     0.278 C 
BRANCH   8   9
HETATM    9  C   UNL     1      21.972  48.650  47.911  1.00  0.00     0.246 C 
HETATM   10  N   UNL     1      22.882  49.312  48.717  1.00  0.00    -0.325 N 
HETATM   11  H   UNL     1      22.502  50.097  49.238  1.00  0.00     0.169 HD
HETATM   12  O   UNL     1      22.190  47.660  47.218  1.00  0.00    -0.271 OA
BRANCH  10  13
HETATM   13  C   UNL     1      24.248  49.020  48.905  1.00  0.00     0.037 A 
HETATM   14  C   UNL     1      24.718  47.918  49.628  1.00  0.00     0.066 A 
HETATM   15  C   UNL     1      26.091  47.685  49.760  1.00  0.00     0.070 A 
HETATM   16  C   UNL     1      26.997  48.560  49.161  1.00  0.00     0.037 A 
HETATM   17  C   UNL     1      26.543  49.662  48.440  1.00  0.00     0.005 A 
HETATM   18  C   UNL     1      25.172  49.892  48.315  1.00  0.00     0.029 A 
BRANCH  15  19
HETATM   19  O   UNL     1      26.669  46.646  50.440  1.00  0.00    -0.356 OA
HETATM   20  C   UNL     1      26.832  45.424  49.727  1.00  0.00     0.210 C 
ENDBRANCH  15  19
ENDBRANCH  10  13
ENDBRANCH   8   9
ENDBRANCH   7   8
ENDBRANCH   4   7
BRANCH   1  21
HETATM   21  C   UNL     1      15.492  52.833  49.582  1.00  0.00     0.270 C 
HETATM   22  N   UNL     1      15.634  54.120  49.122  1.00  0.00    -0.259 N 
HETATM   23  H   UNL     1      16.527  54.531  48.896  1.00  0.00     0.191 HD
HETATM   24  O   UNL     1      14.483  52.362  50.090  1.00  0.00    -0.266 OA
BRANCH  22  25
HETATM   25  N   UNL     1      14.630  55.001  49.288  1.00  0.00    -0.263 N 
HETATM   26  C   UNL     1      13.796  55.382  48.274  1.00  0.00     0.030 A 
HETATM   27  C   UNL     1      13.774  54.725  46.943  1.00  0.00     0.070 C 
HETATM   28  C   UNL     1      13.034  56.427  48.766  1.00  0.00     0.028 A 
HETATM   29  C   UNL     1      13.459  56.684  50.094  1.00  0.00     0.028 A 
HETATM   30  C   UNL     1      14.476  55.795  50.392  1.00  0.00     0.030 A 
HETATM   31  C   UNL     1      15.258  55.630  51.643  1.00  0.00     0.070 C 
ENDBRANCH  22  25
ENDBRANCH   1  21
TORSDOF 7
ENDMDL
MODEL 7
REMARK VINA RESULT:      -7.9      1.617      2.440
REMARK  7 active torsions:
REMARK  status: ('A' for Active; 'I' for Inactive)
REMARK    1  A    between atoms: N_3  and  N_4 
REMARK       I    between atoms: N_4  and  C_5 
REMARK    2  A    between atoms: C_5  and  C_6 
REMARK    3  A    between atoms: C_9  and  O_10 
REMARK    4  A    between atoms: O_10  and  C_11 
REMARK    5  A    between atoms: C_11  and  C_12 
REMARK       I    between atoms: C_12  and  N_13 
REMARK    6  A    between atoms: N_13  and  C_14 
REMARK    7  A    between atoms: C_16  and  O_17 
ROOT
HETATM    1  C   UNL     1      26.382  44.346  51.514  1.00  0.00     0.033 A 
HETATM    2  C   UNL     1      25.663  43.306  50.913  1.00  0.00     0.020 A 
HETATM    3  C   UNL     1      24.448  43.582  50.278  1.00  0.00     0.038 A 
HETATM    4  C   UNL     1      23.937  44.883  50.251  1.00  0.00     0.069 A 
HETATM    5  C   UNL     1      24.670  45.921  50.830  1.00  0.00     0.038 A 
HETATM    6  C   UNL     1      25.891  45.654  51.455  1.00  0.00     0.020 A 
ENDROOT
BRANCH   4   7
HETATM    7  O   UNL     1      22.739  45.028  49.605  1.00  0.00    -0.342 OA
BRANCH   7   8
HETATM    8  C   UNL     1      22.828  45.276  48.203  1.00  0.00     0.278 C 
BRANCH   8   9
HETATM    9  C   UNL     1      22.230  46.637  47.835  1.00  0.00     0.246 C 
HETATM   10  N   UNL     1      22.051  47.459  48.934  1.00  0.00    -0.325 N 
HETATM   11  H   UNL     1      22.415  47.092  49.808  1.00  0.00     0.169 HD
HETATM   12  O   UNL     1      21.905  46.880  46.676  1.00  0.00    -0.271 OA
BRANCH  10  13
HETATM   13  C   UNL     1      21.444  48.730  48.977  1.00  0.00     0.037 A 
HETATM   14  C   UNL     1      20.117  48.948  49.365  1.00  0.00     0.066 A 
HETATM   15  C   UNL     1      19.586  50.242  49.397  1.00  0.00     0.070 A 
HETATM   16  C   UNL     1      20.393  51.323  49.042  1.00  0.00     0.037 A 
HETATM   17  C   UNL     1      21.715  51.120  48.652  1.00  0.00     0.005 A 
HETATM   18  C   UNL     1      22.237  49.827  48.618  1.00  0.00     0.029 A 
BRANCH  15  19
HETATM   19  O   UNL     1      18.309  50.579  49.757  1.00  0.00    -0.356 OA
HETATM   20  C   UNL     1      17.264  50.162  48.883  1.00  0.00     0.210 C 
ENDBRANCH  15  19
ENDBRANCH  10  13
ENDBRANCH   8   9
ENDBRANCH   7   8
ENDBRANCH   4   7
BRANCH   1  21
HETATM   21  C   UNL     1      27.677  44.105  52.202  1.00  0.00     0.270 C 
HETATM   22  N   UNL     1      27.609  44.090  53.575  1.00  0.00    -0.259 N 
HETATM   23  H   UNL     1      26.797  44.392  54.091  1.00  0.00     0.191 HD
HETATM   24  O   UNL     1      28.695  43.980  51.535  1.00  0.00    -0.266 OA
BRANCH  22  25
HETATM   25  N   UNL     1      28.742  44.008  54.296  1.00  0.00    -0.263 N 
HETATM   26  C   UNL     1      29.412  42.833  54.501  1.00  0.00     0.030 A 
HETATM   27  C   UNL     1      29.084  41.571  53.794  1.00  0.00     0.070 C 
HETATM   28  C   UNL     1      30.397  43.102  55.435  1.00  0.00     0.028 A 
HETATM   29  C   UNL     1      30.276  44.464  55.811  1.00  0.00     0.028 A 
HETATM   30  C   UNL     1      29.218  45.006  55.102  1.00  0.00     0.030 A 
HETATM   31  C   UNL     1      28.676  46.388  55.112  1.00  0.00     0.070 C 
ENDBRANCH  22  25
ENDBRANCH   1  21
TORSDOF 7
ENDMDL
MODEL 8
REMARK VINA RESULT:      -7.8      2.353      3.463
REMARK  7 active torsions:
REMARK  status: ('A' for Active; 'I' for Inactive)
REMARK    1  A    between atoms: N_3  and  N_4 
REMARK       I    between atoms: N_4  and  C_5 
REMARK    2  A    between atoms: C_5  and  C_6 
REMARK    3  A    between atoms: C_9  and  O_10 
REMARK    4  A    between atoms: O_10  and  C_11 
REMARK    5  A    between atoms: C_11  and  C_12 
REMARK       I    between atoms: C_12  and  N_13 
REMARK    6  A    between atoms: N_13  and  C_14 
REMARK    7  A    between atoms: C_16  and  O_17 
ROOT
HETATM    1  C   UNL     1      25.434  43.933  50.922  1.00  0.00     0.033 A 
HETATM    2  C   UNL     1      24.654  42.772  50.893  1.00  0.00     0.020 A 
HETATM    3  C   UNL     1      23.388  42.802  50.298  1.00  0.00     0.038 A 
HETATM    4  C   UNL     1      22.889  43.986  49.747  1.00  0.00     0.069 A 
HETATM    5  C   UNL     1      23.680  45.136  49.755  1.00  0.00     0.038 A 
HETATM    6  C   UNL     1      24.951  45.108  50.336  1.00  0.00     0.020 A 
ENDROOT
BRANCH   4   7
HETATM    7  O   UNL     1      21.638  43.894  49.198  1.00  0.00    -0.342 OA
BRANCH   7   8
HETATM    8  C   UNL     1      21.393  44.757  48.089  1.00  0.00     0.278 C 
BRANCH   8   9
HETATM    9  C   UNL     1      20.035  45.453  48.209  1.00  0.00     0.246 C 
HETATM   10  N   UNL     1      20.128  46.830  48.118  1.00  0.00    -0.325 N 
HETATM   11  H   UNL     1      21.055  47.184  47.898  1.00  0.00     0.169 HD
HETATM   12  O   UNL     1      19.020  44.799  48.431  1.00  0.00    -0.271 OA
BRANCH  10  13
HETATM   13  C   UNL     1      19.101  47.782  48.279  1.00  0.00     0.037 A 
HETATM   14  C   UNL     1      19.103  48.772  49.268  1.00  0.00     0.066 A 
HETATM   15  C   UNL     1      18.054  49.693  49.358  1.00  0.00     0.070 A 
HETATM   16  C   UNL     1      16.999  49.622  48.447  1.00  0.00     0.037 A 
HETATM   17  C   UNL     1      16.984  48.641  47.459  1.00  0.00     0.005 A 
HETATM   18  C   UNL     1      18.031  47.722  47.377  1.00  0.00     0.029 A 
BRANCH  15  19
HETATM   19  O   UNL     1      17.945  50.701  50.278  1.00  0.00    -0.356 OA
HETATM   20  C   UNL     1      17.181  51.840  49.895  1.00  0.00     0.210 C 
ENDBRANCH  15  19
ENDBRANCH  10  13
ENDBRANCH   8   9
ENDBRANCH   7   8
ENDBRANCH   4   7
BRANCH   1  21
HETATM   21  C   UNL     1      26.784  43.954  51.542  1.00  0.00     0.270 C 
HETATM   22  N   UNL     1      26.826  43.539  52.851  1.00  0.00    -0.259 N 
HETATM   23  H   UNL     1      26.001  43.400  53.414  1.00  0.00     0.191 HD
HETATM   24  O   UNL     1      27.736  44.361  50.890  1.00  0.00    -0.266 OA
BRANCH  22  25
HETATM   25  N   UNL     1      27.975  43.639  53.545  1.00  0.00    -0.263 N 
HETATM   26  C   UNL     1      28.837  42.591  53.715  1.00  0.00     0.030 A 
HETATM   27  C   UNL     1      28.707  41.300  52.996  1.00  0.00     0.070 C 
HETATM   28  C   UNL     1      29.787  43.010  54.630  1.00  0.00     0.028 A 
HETATM   29  C   UNL     1      29.449  44.328  55.030  1.00  0.00     0.028 A 
HETATM   30  C   UNL     1      28.297  44.693  54.355  1.00  0.00     0.030 A 
HETATM   31  C   UNL     1      27.532  45.964  54.401  1.00  0.00     0.070 C 
ENDBRANCH  22  25
ENDBRANCH   1  21
TORSDOF 7
ENDMDL
MODEL 9
REMARK VINA RESULT:      -7.5      2.361      3.176
REMARK  7 active torsions:
REMARK  status: ('A' for Active; 'I' for Inactive)
REMARK    1  A    between atoms: N_3  and  N_4 
REMARK       I    between atoms: N_4  and  C_5 
REMARK    2  A    between atoms: C_5  and  C_6 
REMARK    3  A    between atoms: C_9  and  O_10 
REMARK    4  A    between atoms: O_10  and  C_11 
REMARK    5  A    between atoms: C_11  and  C_12 
REMARK       I    between atoms: C_12  and  N_13 
REMARK    6  A    between atoms: N_13  and  C_14 
REMARK    7  A    between atoms: C_16  and  O_17 
ROOT
HETATM    1  C   UNL     1      24.699  45.421  50.667  1.00  0.00     0.033 A 
HETATM    2  C   UNL     1      25.255  46.701  50.778  1.00  0.00     0.020 A 
HETATM    3  C   UNL     1      24.796  47.728  49.947  1.00  0.00     0.038 A 
HETATM    4  C   UNL     1      23.799  47.485  48.997  1.00  0.00     0.069 A 
HETATM    5  C   UNL     1      23.231  46.213  48.908  1.00  0.00     0.038 A 
HETATM    6  C   UNL     1      23.676  45.186  49.744  1.00  0.00     0.020 A 
ENDROOT
BRANCH   4   7
HETATM    7  O   UNL     1      23.436  48.566  48.240  1.00  0.00    -0.342 OA
BRANCH   7   8
HETATM    8  C   UNL     1      23.610  49.836  48.866  1.00  0.00     0.278 C 
BRANCH   8   9
HETATM    9  C   UNL     1      22.268  50.451  49.269  1.00  0.00     0.246 C 
HETATM   10  N   UNL     1      21.318  50.371  48.267  1.00  0.00    -0.325 N 
HETATM   11  H   UNL     1      21.604  49.847  47.445  1.00  0.00     0.169 HD
HETATM   12  O   UNL     1      22.140  51.001  50.360  1.00  0.00    -0.271 OA
BRANCH  10  13
HETATM   13  C   UNL     1      20.017  50.914  48.258  1.00  0.00     0.037 A 
HETATM   14  C   UNL     1      19.379  51.428  49.392  1.00  0.00     0.066 A 
HETATM   15  C   UNL     1      18.089  51.964  49.303  1.00  0.00     0.070 A 
HETATM   16  C   UNL     1      17.439  51.987  48.068  1.00  0.00     0.037 A 
HETATM   17  C   UNL     1      18.062  51.476  46.933  1.00  0.00     0.005 A 
HETATM   18  C   UNL     1      19.347  50.939  47.028  1.00  0.00     0.029 A 
BRANCH  15  19
HETATM   19  O   UNL     1      17.365  52.494  50.337  1.00  0.00    -0.356 OA
HETATM   20  C   UNL     1      16.226  53.274  49.990  1.00  0.00     0.210 C 
ENDBRANCH  15  19
ENDBRANCH  10  13
ENDBRANCH   8   9
ENDBRANCH   7   8
ENDBRANCH   4   7
BRANCH   1  21
HETATM   21  C   UNL     1      25.152  44.295  51.525  1.00  0.00     0.270 C 
HETATM   22  N   UNL     1      26.513  44.207  51.694  1.00  0.00    -0.259 N 
HETATM   23  H   UNL     1      27.173  44.739  51.149  1.00  0.00     0.191 HD
HETATM   24  O   UNL     1      24.323  43.518  51.980  1.00  0.00    -0.266 OA
BRANCH  22  25
HETATM   25  N   UNL     1      27.036  43.152  52.347  1.00  0.00    -0.263 N 
HETATM   26  C   UNL     1      27.406  43.198  53.662  1.00  0.00     0.030 A 
HETATM   27  C   UNL     1      27.090  44.335  54.562  1.00  0.00     0.070 C 
HETATM   28  C   UNL     1      28.071  42.013  53.923  1.00  0.00     0.028 A 
HETATM   29  C   UNL     1      28.120  41.271  52.716  1.00  0.00     0.028 A 
HETATM   30  C   UNL     1      27.486  42.014  51.736  1.00  0.00     0.030 A 
HETATM   31  C   UNL     1      27.250  41.696  50.306  1.00  0.00     0.070 C 
ENDBRANCH  22  25
ENDBRANCH   1  21
TORSDOF 7
ENDMDL
MODEL 10
REMARK VINA RESULT:      -7.5      6.786      8.928
REMARK  7 active torsions:
REMARK  status: ('A' for Active; 'I' for Inactive)
REMARK    1  A    between atoms: N_3  and  N_4 
REMARK       I    between atoms: N_4  and  C_5 
REMARK    2  A    between atoms: C_5  and  C_6 
REMARK    3  A    between atoms: C_9  and  O_10 
REMARK    4  A    between atoms: O_10  and  C_11 
REMARK    5  A    between atoms: C_11  and  C_12 
REMARK       I    between atoms: C_12  and  N_13 
REMARK    6  A    between atoms: N_13  and  C_14 
REMARK    7  A    between atoms: C_16  and  O_17 
ROOT
HETATM    1  C   UNL     1      27.669  42.310  52.642  1.00  0.00     0.033 A 
HETATM    2  C   UNL     1      28.504  41.207  52.428  1.00  0.00     0.020 A 
HETATM    3  C   UNL     1      28.386  40.468  51.246  1.00  0.00     0.038 A 
HETATM    4  C   UNL     1      27.431  40.811  50.284  1.00  0.00     0.069 A 
HETATM    5  C   UNL     1      26.618  41.927  50.490  1.00  0.00     0.038 A 
HETATM    6  C   UNL     1      26.740  42.677  51.663  1.00  0.00     0.020 A 
ENDROOT
BRANCH   4   7
HETATM    7  O   UNL     1      27.408  40.012  49.173  1.00  0.00    -0.342 OA
BRANCH   7   8
HETATM    8  C   UNL     1      26.612  40.495  48.091  1.00  0.00     0.278 C 
BRANCH   8   9
HETATM    9  C   UNL     1      27.480  40.950  46.916  1.00  0.00     0.246 C 
HETATM   10  N   UNL     1      26.826  40.863  45.700  1.00  0.00    -0.325 N 
HETATM   11  H   UNL     1      25.847  40.599  45.758  1.00  0.00     0.169 HD
HETATM   12  O   UNL     1      28.649  41.279  47.098  1.00  0.00    -0.271 OA
BRANCH  10  13
HETATM   13  C   UNL     1      27.348  41.106  44.413  1.00  0.00     0.037 A 
HETATM   14  C   UNL     1      28.622  40.701  43.999  1.00  0.00     0.066 A 
HETATM   15  C   UNL     1      29.067  40.967  42.699  1.00  0.00     0.070 A 
HETATM   16  C   UNL     1      28.227  41.639  41.810  1.00  0.00     0.037 A 
HETATM   17  C   UNL     1      26.958  42.049  42.211  1.00  0.00     0.005 A 
HETATM   18  C   UNL     1      26.521  41.785  43.510  1.00  0.00     0.029 A 
BRANCH  15  19
HETATM   19  O   UNL     1      30.286  40.622  42.181  1.00  0.00    -0.356 OA
HETATM   20  C   UNL     1      30.610  39.236  42.168  1.00  0.00     0.210 C 
ENDBRANCH  15  19
ENDBRANCH  10  13
ENDBRANCH   8   9
ENDBRANCH   7   8
ENDBRANCH   4   7
BRANCH   1  21
HETATM   21  C   UNL     1      27.754  43.126  53.880  1.00  0.00     0.270 C 
HETATM   22  N   UNL     1      28.784  44.035  53.905  1.00  0.00    -0.259 N 
HETATM   23  H   UNL     1      29.534  44.039  53.231  1.00  0.00     0.191 HD
HETATM   24  O   UNL     1      26.958  42.922  54.788  1.00  0.00    -0.266 OA
BRANCH  22  25
HETATM   25  N   UNL     1      29.028  44.735  55.029  1.00  0.00    -0.263 N 
HETATM   26  C   UNL     1      28.423  45.928  55.310  1.00  0.00     0.030 A 
HETATM   27  C   UNL     1      27.295  46.480  54.519  1.00  0.00     0.070 C 
HETATM   28  C   UNL     1      29.058  46.435  56.431  1.00  0.00     0.028 A 
HETATM   29  C   UNL     1      30.085  45.527  56.792  1.00  0.00     0.028 A 
HETATM   30  C   UNL     1      30.063  44.480  55.886  1.00  0.00     0.030 A 
HETATM   31  C   UNL     1      30.915  43.267  55.815  1.00  0.00     0.070 C 
ENDBRANCH  22  25
ENDBRANCH   1  21
TORSDOF 7
ENDMDL
