MODEL 1
REMARK VINA RESULT:      -8.4      0.000      0.000
REMARK  6 active torsions:
REMARK  status: ('A' for Active; 'I' for Inactive)
REMARK    1  A    between atoms: C_2  and  C_3 
REMARK    2  A    between atoms: C_4  and  O_5 
REMARK    3  A    between atoms: C_6  and  C_7 
REMARK       I    between atoms: C_7  and  N_8 
REMARK    4  A    between atoms: N_8  and  C_9 
REMARK    5  A    between atoms: C_9  and  C_10 
REMARK    6  A    between atoms: C_10  and  C_11 
ROOT
HETATM    1  C   UNL     1      26.923  45.715  53.720  1.00  0.00     0.254 C 
HETATM    2  N   UNL     1      26.647  45.752  52.376  1.00  0.00    -0.356 N 
HETATM    3  O   UNL     1      26.256  46.336  54.542  1.00  0.00    -0.268 OA
HETATM    4  H   UNL     1      27.228  45.182  51.765  1.00  0.00     0.162 HD
ENDROOT
BRANCH   1   5
HETATM    5  C   UNL     1      28.083  44.866  54.157  1.00  0.00     0.065 A 
HETATM    6  C   UNL     1      28.944  45.173  55.231  1.00  0.00     0.087 A 
HETATM    7  C   UNL     1      29.999  44.305  55.581  1.00  0.00    -0.024 A 
HETATM    8  C   UNL     1      30.200  43.146  54.814  1.00  0.00     0.010 A 
HETATM    9  C   UNL     1      29.365  42.842  53.740  1.00  0.00     0.002 A 
HETATM   10  C   UNL     1      28.311  43.694  53.419  1.00  0.00     0.020 A 
BRANCH   6  11
HETATM   11  O   UNL     1      28.743  46.332  55.941  1.00  0.00    -0.359 OA
HETATM   12  H   UNL     1      28.865  46.157  56.889  1.00  0.00     0.218 HD
ENDBRANCH   6  11
BRANCH   7  13
HETATM   13  C   UNL     1      30.930  44.557  56.744  1.00  0.00     0.037 C 
HETATM   14  C   UNL     1      31.716  43.311  57.129  1.00  0.00     0.010 C 
ENDBRANCH   7  13
ENDBRANCH   1   5
BRANCH   2  15
HETATM   15  C   UNL     1      25.530  46.495  51.829  1.00  0.00     0.136 C 
BRANCH  15  16
HETATM   16  C   UNL     1      25.446  46.442  50.273  1.00  0.00    -0.004 C 
HETATM   17  C   UNL     1      26.417  45.347  49.783  1.00  0.00     0.021 C 
HETATM   18  C   UNL     1      24.008  46.005  49.902  1.00  0.00     0.021 C 
BRANCH  16  19
HETATM   19  C   UNL     1      25.856  47.766  49.595  1.00  0.00    -0.046 A 
HETATM   20  C   UNL     1      24.898  48.646  49.069  1.00  0.00     0.027 A 
HETATM   21  C   UNL     1      25.308  49.831  48.471  1.00  0.00     0.116 A 
HETATM   22  N   UNL     1      26.595  50.214  48.367  1.00  0.00    -0.273 NA
HETATM   23  C   UNL     1      27.509  49.379  48.898  1.00  0.00     0.116 A 
HETATM   24  C   UNL     1      27.196  48.173  49.511  1.00  0.00     0.027 A 
ENDBRANCH  16  19
ENDBRANCH  15  16
ENDBRANCH   2  15
TORSDOF 6
ENDMDL
MODEL 2
REMARK VINA RESULT:      -8.2      1.055      1.618
REMARK  6 active torsions:
REMARK  status: ('A' for Active; 'I' for Inactive)
REMARK    1  A    between atoms: C_2  and  C_3 
REMARK    2  A    between atoms: C_4  and  O_5 
REMARK    3  A    between atoms: C_6  and  C_7 
REMARK       I    between atoms: C_7  and  N_8 
REMARK    4  A    between atoms: N_8  and  C_9 
REMARK    5  A    between atoms: C_9  and  C_10 
REMARK    6  A    between atoms: C_10  and  C_11 
ROOT
HETATM    1  C   UNL     1      27.000  45.073  53.337  1.00  0.00     0.254 C 
HETATM    2  N   UNL     1      26.172  44.288  52.575  1.00  0.00    -0.356 N 
HETATM    3  O   UNL     1      26.721  46.234  53.622  1.00  0.00    -0.268 OA
HETATM    4  H   UNL     1      26.461  43.326  52.412  1.00  0.00     0.162 HD
ENDROOT
BRANCH   1   5
HETATM    5  C   UNL     1      28.276  44.449  53.825  1.00  0.00     0.065 A 
HETATM    6  C   UNL     1      28.936  44.798  55.022  1.00  0.00     0.087 A 
HETATM    7  C   UNL     1      30.123  44.143  55.409  1.00  0.00    -0.024 A 
HETATM    8  C   UNL     1      30.658  43.161  54.560  1.00  0.00     0.010 A 
HETATM    9  C   UNL     1      30.023  42.820  53.367  1.00  0.00     0.002 A 
HETATM   10  C   UNL     1      28.837  43.457  53.007  1.00  0.00     0.020 A 
BRANCH   6  11
HETATM   11  O   UNL     1      28.406  45.787  55.815  1.00  0.00    -0.359 OA
HETATM   12  H   UNL     1      29.063  46.057  56.478  1.00  0.00     0.218 HD
ENDBRANCH   6  11
BRANCH   7  13
HETATM   13  C   UNL     1      30.855  44.442  56.697  1.00  0.00     0.037 C 
HETATM   14  C   UNL     1      31.740  43.285  57.135  1.00  0.00     0.010 C 
ENDBRANCH   7  13
ENDBRANCH   1   5
BRANCH   2  15
HETATM   15  C   UNL     1      24.893  44.755  52.079  1.00  0.00     0.136 C 
BRANCH  15  16
HETATM   16  C   UNL     1      24.847  44.926  50.531  1.00  0.00    -0.004 C 
HETATM   17  C   UNL     1      25.993  44.086  49.927  1.00  0.00     0.021 C 
HETATM   18  C   UNL     1      23.507  44.328  50.038  1.00  0.00     0.021 C 
BRANCH  16  19
HETATM   19  C   UNL     1      25.048  46.386  50.073  1.00  0.00    -0.046 A 
HETATM   20  C   UNL     1      26.326  46.962  50.001  1.00  0.00     0.027 A 
HETATM   21  C   UNL     1      26.464  48.278  49.578  1.00  0.00     0.116 A 
HETATM   22  N   UNL     1      25.432  49.061  49.210  1.00  0.00    -0.273 NA
HETATM   23  C   UNL     1      24.211  48.495  49.254  1.00  0.00     0.116 A 
HETATM   24  C   UNL     1      23.973  47.190  49.666  1.00  0.00     0.027 A 
ENDBRANCH  16  19
ENDBRANCH  15  16
ENDBRANCH   2  15
TORSDOF 6
ENDMDL
MODEL 3
REMARK VINA RESULT:      -8.1      2.381      7.906
REMARK  6 active torsions:
REMARK  status: ('A' for Active; 'I' for Inactive)
REMARK    1  A    between atoms: C_2  and  C_3 
REMARK    2  A    between atoms: C_4  and  O_5 
REMARK    3  A    between atoms: C_6  and  C_7 
REMARK       I    between atoms: C_7  and  N_8 
REMARK    4  A    between atoms: N_8  and  C_9 
REMARK    5  A    between atoms: C_9  and  C_10 
REMARK    6  A    between atoms: C_10  and  C_11 
ROOT
HETATM    1  C   UNL     1      25.319  46.310  50.671  1.00  0.00     0.254 C 
HETATM    2  N   UNL     1      26.368  46.056  51.519  1.00  0.00    -0.356 N 
HETATM    3  O   UNL     1      24.346  45.565  50.592  1.00  0.00    -0.268 OA
HETATM    4  H   UNL     1      27.120  46.741  51.549  1.00  0.00     0.162 HD
ENDROOT
BRANCH   1   5
HETATM    5  C   UNL     1      25.400  47.556  49.837  1.00  0.00     0.065 A 
HETATM    6  C   UNL     1      24.288  48.253  49.322  1.00  0.00     0.087 A 
HETATM    7  C   UNL     1      24.460  49.429  48.563  1.00  0.00    -0.024 A 
HETATM    8  C   UNL     1      25.766  49.872  48.296  1.00  0.00     0.010 A 
HETATM    9  C   UNL     1      26.873  49.182  48.786  1.00  0.00     0.002 A 
HETATM   10  C   UNL     1      26.689  48.036  49.556  1.00  0.00     0.020 A 
BRANCH   6  11
HETATM   11  O   UNL     1      23.024  47.776  49.572  1.00  0.00    -0.359 OA
HETATM   12  H   UNL     1      22.394  48.188  48.957  1.00  0.00     0.218 HD
ENDBRANCH   6  11
BRANCH   7  13
HETATM   13  C   UNL     1      23.309  50.242  48.017  1.00  0.00     0.037 C 
HETATM   14  C   UNL     1      22.762  51.222  49.045  1.00  0.00     0.010 C 
ENDBRANCH   7  13
ENDBRANCH   1   5
BRANCH   2  15
HETATM   15  C   UNL     1      26.393  44.912  52.409  1.00  0.00     0.136 C 
BRANCH  15  16
HETATM   16  C   UNL     1      26.387  45.295  53.919  1.00  0.00    -0.004 C 
HETATM   17  C   UNL     1      26.029  46.793  54.027  1.00  0.00     0.021 C 
HETATM   18  C   UNL     1      25.254  44.485  54.597  1.00  0.00     0.021 C 
BRANCH  16  19
HETATM   19  C   UNL     1      27.753  45.091  54.606  1.00  0.00    -0.046 A 
HETATM   20  C   UNL     1      28.545  43.963  54.340  1.00  0.00     0.027 A 
HETATM   21  C   UNL     1      29.772  43.819  54.975  1.00  0.00     0.116 A 
HETATM   22  N   UNL     1      30.278  44.715  55.844  1.00  0.00    -0.273 NA
HETATM   23  C   UNL     1      29.526  45.809  56.076  1.00  0.00     0.116 A 
HETATM   24  C   UNL     1      28.287  46.038  55.492  1.00  0.00     0.027 A 
ENDBRANCH  16  19
ENDBRANCH  15  16
ENDBRANCH   2  15
TORSDOF 6
ENDMDL
MODEL 4
REMARK VINA RESULT:      -7.9      1.538      2.393
REMARK  6 active torsions:
REMARK  status: ('A' for Active; 'I' for Inactive)
REMARK    1  A    between atoms: C_2  and  C_3 
REMARK    2  A    between atoms: C_4  and  O_5 
REMARK    3  A    between atoms: C_6  and  C_7 
REMARK       I    between atoms: C_7  and  N_8 
REMARK    4  A    between atoms: N_8  and  C_9 
REMARK    5  A    between atoms: C_9  and  C_10 
REMARK    6  A    between atoms: C_10  and  C_11 
ROOT
HETATM    1  C   UNL     1      27.006  45.516  53.697  1.00  0.00     0.254 C 
HETATM    2  N   UNL     1      26.636  45.426  52.378  1.00  0.00    -0.356 N 
HETATM    3  O   UNL     1      26.379  46.192  54.508  1.00  0.00    -0.268 OA
HETATM    4  H   UNL     1      27.190  44.818  51.779  1.00  0.00     0.162 HD
ENDROOT
BRANCH   1   5
HETATM    5  C   UNL     1      28.219  44.739  54.122  1.00  0.00     0.065 A 
HETATM    6  C   UNL     1      29.006  45.033  55.254  1.00  0.00     0.087 A 
HETATM    7  C   UNL     1      30.120  44.234  55.587  1.00  0.00    -0.024 A 
HETATM    8  C   UNL     1      30.453  43.161  54.745  1.00  0.00     0.010 A 
HETATM    9  C   UNL     1      29.692  42.872  53.614  1.00  0.00     0.002 A 
HETATM   10  C   UNL     1      28.580  43.653  53.310  1.00  0.00     0.020 A 
BRANCH   6  11
HETATM   11  O   UNL     1      28.674  46.110  56.040  1.00  0.00    -0.359 OA
HETATM   12  H   UNL     1      28.840  46.933  55.549  1.00  0.00     0.218 HD
ENDBRANCH   6  11
BRANCH   7  13
HETATM   13  C   UNL     1      30.979  44.472  56.807  1.00  0.00     0.037 C 
HETATM   14  C   UNL     1      31.819  43.254  57.163  1.00  0.00     0.010 C 
ENDBRANCH   7  13
ENDBRANCH   1   5
BRANCH   2  15
HETATM   15  C   UNL     1      25.462  46.090  51.850  1.00  0.00     0.136 C 
BRANCH  15  16
HETATM   16  C   UNL     1      25.582  46.468  50.342  1.00  0.00    -0.004 C 
HETATM   17  C   UNL     1      26.396  47.776  50.245  1.00  0.00     0.021 C 
HETATM   18  C   UNL     1      26.396  45.347  49.648  1.00  0.00     0.021 C 
BRANCH  16  19
HETATM   19  C   UNL     1      24.219  46.715  49.665  1.00  0.00    -0.046 A 
HETATM   20  C   UNL     1      23.459  45.658  49.140  1.00  0.00     0.027 A 
HETATM   21  C   UNL     1      22.233  45.923  48.543  1.00  0.00     0.116 A 
HETATM   22  N   UNL     1      21.699  47.155  48.437  1.00  0.00    -0.273 NA
HETATM   23  C   UNL     1      22.419  48.162  48.967  1.00  0.00     0.116 A 
HETATM   24  C   UNL     1      23.655  47.997  49.580  1.00  0.00     0.027 A 
ENDBRANCH  16  19
ENDBRANCH  15  16
ENDBRANCH   2  15
TORSDOF 6
ENDMDL
MODEL 5
REMARK VINA RESULT:      -7.8      1.694      2.491
REMARK  6 active torsions:
REMARK  status: ('A' for Active; 'I' for Inactive)
REMARK    1  A    between atoms: C_2  and  C_3 
REMARK    2  A    between atoms: C_4  and  O_5 
REMARK    3  A    between atoms: C_6  and  C_7 
REMARK       I    between atoms: C_7  and  N_8 
REMARK    4  A    between atoms: N_8  and  C_9 
REMARK    5  A    between atoms: C_9  and  C_10 
REMARK    6  A    between atoms: C_10  and  C_11 
ROOT
HETATM    1  C   UNL     1      26.201  45.615  53.225  1.00  0.00     0.254 C 
HETATM    2  N   UNL     1      26.059  46.804  52.553  1.00  0.00    -0.356 N 
HETATM    3  O   UNL     1      25.413  44.685  53.083  1.00  0.00    -0.268 OA
HETATM    4  H   UNL     1      26.774  47.512  52.702  1.00  0.00     0.162 HD
ENDROOT
BRANCH   1   5
HETATM    5  C   UNL     1      27.378  45.488  54.149  1.00  0.00     0.065 A 
HETATM    6  C   UNL     1      28.301  44.422  54.134  1.00  0.00     0.087 A 
HETATM    7  C   UNL     1      29.390  44.397  55.030  1.00  0.00    -0.024 A 
HETATM    8  C   UNL     1      29.516  45.437  55.965  1.00  0.00     0.010 A 
HETATM    9  C   UNL     1      28.600  46.486  56.000  1.00  0.00     0.002 A 
HETATM   10  C   UNL     1      27.543  46.513  55.094  1.00  0.00     0.020 A 
BRANCH   6  11
HETATM   11  O   UNL     1      28.132  43.402  53.230  1.00  0.00    -0.359 OA
HETATM   12  H   UNL     1      27.190  43.169  53.176  1.00  0.00     0.218 HD
ENDBRANCH   6  11
BRANCH   7  13
HETATM   13  C   UNL     1      30.434  43.305  55.038  1.00  0.00     0.037 C 
HETATM   14  C   UNL     1      31.202  43.255  56.351  1.00  0.00     0.010 C 
ENDBRANCH   7  13
ENDBRANCH   1   5
BRANCH   2  15
HETATM   15  C   UNL     1      24.993  47.039  51.600  1.00  0.00     0.136 C 
BRANCH  15  16
HETATM   16  C   UNL     1      25.494  47.224  50.135  1.00  0.00    -0.004 C 
HETATM   17  C   UNL     1      26.834  47.987  50.186  1.00  0.00     0.021 C 
HETATM   18  C   UNL     1      25.769  45.814  49.558  1.00  0.00     0.021 C 
BRANCH  16  19
HETATM   19  C   UNL     1      24.524  48.043  49.259  1.00  0.00    -0.046 A 
HETATM   20  C   UNL     1      23.235  47.575  48.958  1.00  0.00     0.027 A 
HETATM   21  C   UNL     1      22.390  48.345  48.170  1.00  0.00     0.116 A 
HETATM   22  N   UNL     1      22.722  49.550  47.668  1.00  0.00    -0.273 NA
HETATM   23  C   UNL     1      23.950  50.008  47.982  1.00  0.00     0.116 A 
HETATM   24  C   UNL     1      24.865  49.308  48.759  1.00  0.00     0.027 A 
ENDBRANCH  16  19
ENDBRANCH  15  16
ENDBRANCH   2  15
TORSDOF 6
ENDMDL
MODEL 6
REMARK VINA RESULT:      -7.5      5.508      8.273
REMARK  6 active torsions:
REMARK  status: ('A' for Active; 'I' for Inactive)
REMARK    1  A    between atoms: C_2  and  C_3 
REMARK    2  A    between atoms: C_4  and  O_5 
REMARK    3  A    between atoms: C_6  and  C_7 
REMARK       I    between atoms: C_7  and  N_8 
REMARK    4  A    between atoms: N_8  and  C_9 
REMARK    5  A    between atoms: C_9  and  C_10 
REMARK    6  A    between atoms: C_10  and  C_11 
ROOT
HETATM    1  C   UNL     1      23.432  50.143  48.178  1.00  0.00     0.254 C 
HETATM    2  N   UNL     1      22.421  50.448  49.055  1.00  0.00    -0.356 N 
HETATM    3  O   UNL     1      23.389  50.460  46.993  1.00  0.00    -0.268 OA
HETATM    4  H   UNL     1      22.549  50.178  50.027  1.00  0.00     0.162 HD
ENDROOT
BRANCH   1   5
HETATM    5  C   UNL     1      24.616  49.403  48.730  1.00  0.00     0.065 A 
HETATM    6  C   UNL     1      24.539  48.291  49.594  1.00  0.00     0.087 A 
HETATM    7  C   UNL     1      25.707  47.647  50.049  1.00  0.00    -0.024 A 
HETATM    8  C   UNL     1      26.955  48.159  49.656  1.00  0.00     0.010 A 
HETATM    9  C   UNL     1      27.043  49.268  48.817  1.00  0.00     0.002 A 
HETATM   10  C   UNL     1      25.882  49.881  48.354  1.00  0.00     0.020 A 
BRANCH   6  11
HETATM   11  O   UNL     1      23.304  47.834  49.988  1.00  0.00    -0.359 OA
HETATM   12  H   UNL     1      23.286  47.744  50.955  1.00  0.00     0.218 HD
ENDBRANCH   6  11
BRANCH   7  13
HETATM   13  C   UNL     1      25.690  46.428  50.942  1.00  0.00     0.037 C 
HETATM   14  C   UNL     1      25.781  46.796  52.416  1.00  0.00     0.010 C 
ENDBRANCH   7  13
ENDBRANCH   1   5
BRANCH   2  15
HETATM   15  C   UNL     1      21.244  51.196  48.659  1.00  0.00     0.136 C 
BRANCH  15  16
HETATM   16  C   UNL     1      19.955  50.326  48.558  1.00  0.00    -0.004 C 
HETATM   17  C   UNL     1      19.963  49.626  47.182  1.00  0.00     0.021 C 
HETATM   18  C   UNL     1      20.049  49.231  49.649  1.00  0.00     0.021 C 
BRANCH  16  19
HETATM   19  C   UNL     1      18.655  51.149  48.655  1.00  0.00    -0.046 A 
HETATM   20  C   UNL     1      17.823  51.339  47.540  1.00  0.00     0.027 A 
HETATM   21  C   UNL     1      16.657  52.082  47.671  1.00  0.00     0.116 A 
HETATM   22  N   UNL     1      16.247  52.641  48.826  1.00  0.00    -0.273 NA
HETATM   23  C   UNL     1      17.034  52.432  49.899  1.00  0.00     0.116 A 
HETATM   24  C   UNL     1      18.219  51.707  49.866  1.00  0.00     0.027 A 
ENDBRANCH  16  19
ENDBRANCH  15  16
ENDBRANCH   2  15
TORSDOF 6
ENDMDL
MODEL 7
REMARK VINA RESULT:      -7.3      2.588      3.822
REMARK  6 active torsions:
REMARK  status: ('A' for Active; 'I' for Inactive)
REMARK    1  A    between atoms: C_2  and  C_3 
REMARK    2  A    between atoms: C_4  and  O_5 
REMARK    3  A    between atoms: C_6  and  C_7 
REMARK       I    between atoms: C_7  and  N_8 
REMARK    4  A    between atoms: N_8  and  C_9 
REMARK    5  A    between atoms: C_9  and  C_10 
REMARK    6  A    between atoms: C_10  and  C_11 
ROOT
HETATM    1  C   UNL     1      27.231  45.145  53.515  1.00  0.00     0.254 C 
HETATM    2  N   UNL     1      26.668  44.117  52.800  1.00  0.00    -0.356 N 
HETATM    3  O   UNL     1      26.788  46.289  53.477  1.00  0.00    -0.268 OA
HETATM    4  H   UNL     1      27.076  43.192  52.912  1.00  0.00     0.162 HD
ENDROOT
BRANCH   1   5
HETATM    5  C   UNL     1      28.423  44.813  54.367  1.00  0.00     0.065 A 
HETATM    6  C   UNL     1      28.833  45.547  55.499  1.00  0.00     0.087 A 
HETATM    7  C   UNL     1      29.957  45.148  56.250  1.00  0.00    -0.024 A 
HETATM    8  C   UNL     1      30.686  44.025  55.826  1.00  0.00     0.010 A 
HETATM    9  C   UNL     1      30.301  43.303  54.699  1.00  0.00     0.002 A 
HETATM   10  C   UNL     1      29.173  43.691  53.979  1.00  0.00     0.020 A 
BRANCH   6  11
HETATM   11  O   UNL     1      28.119  46.661  55.869  1.00  0.00    -0.359 OA
HETATM   12  H   UNL     1      28.256  47.366  55.215  1.00  0.00     0.218 HD
ENDBRANCH   6  11
BRANCH   7  13
HETATM   13  C   UNL     1      30.423  45.868  57.494  1.00  0.00     0.037 C 
HETATM   14  C   UNL     1      31.165  44.943  58.448  1.00  0.00     0.010 C 
ENDBRANCH   7  13
ENDBRANCH   1   5
BRANCH   2  15
HETATM   15  C   UNL     1      25.490  44.295  51.975  1.00  0.00     0.136 C 
BRANCH  15  16
HETATM   16  C   UNL     1      25.748  44.056  50.457  1.00  0.00    -0.004 C 
HETATM   17  C   UNL     1      26.200  45.396  49.837  1.00  0.00     0.021 C 
HETATM   18  C   UNL     1      26.924  43.056  50.339  1.00  0.00     0.021 C 
BRANCH  16  19
HETATM   19  C   UNL     1      24.494  43.588  49.691  1.00  0.00    -0.046 A 
HETATM   20  C   UNL     1      23.425  44.461  49.432  1.00  0.00     0.027 A 
HETATM   21  C   UNL     1      22.315  44.002  48.734  1.00  0.00     0.116 A 
HETATM   22  N   UNL     1      22.191  42.747  48.263  1.00  0.00    -0.273 NA
HETATM   23  C   UNL     1      23.231  41.920  48.490  1.00  0.00     0.116 A 
HETATM   24  C   UNL     1      24.379  42.287  49.180  1.00  0.00     0.027 A 
ENDBRANCH  16  19
ENDBRANCH  15  16
ENDBRANCH   2  15
TORSDOF 6
ENDMDL
MODEL 8
REMARK VINA RESULT:      -7.3      2.211      3.243
REMARK  6 active torsions:
REMARK  status: ('A' for Active; 'I' for Inactive)
REMARK    1  A    between atoms: C_2  and  C_3 
REMARK    2  A    between atoms: C_4  and  O_5 
REMARK    3  A    between atoms: C_6  and  C_7 
REMARK       I    between atoms: C_7  and  N_8 
REMARK    4  A    between atoms: N_8  and  C_9 
REMARK    5  A    between atoms: C_9  and  C_10 
REMARK    6  A    between atoms: C_10  and  C_11 
ROOT
HETATM    1  C   UNL     1      27.926  43.523  52.751  1.00  0.00     0.254 C 
HETATM    2  N   UNL     1      26.609  43.194  52.549  1.00  0.00    -0.356 N 
HETATM    3  O   UNL     1      28.824  43.105  52.025  1.00  0.00    -0.268 OA
HETATM    4  H   UNL     1      25.923  43.609  53.176  1.00  0.00     0.162 HD
ENDROOT
BRANCH   1   5
HETATM    5  C   UNL     1      28.234  44.433  53.906  1.00  0.00     0.065 A 
HETATM    6  C   UNL     1      29.274  44.228  54.836  1.00  0.00     0.087 A 
HETATM    7  C   UNL     1      29.501  45.148  55.880  1.00  0.00    -0.024 A 
HETATM    8  C   UNL     1      28.645  46.255  55.999  1.00  0.00     0.010 A 
HETATM    9  C   UNL     1      27.605  46.459  55.095  1.00  0.00     0.002 A 
HETATM   10  C   UNL     1      27.406  45.556  54.053  1.00  0.00     0.020 A 
BRANCH   6  11
HETATM   11  O   UNL     1      30.073  43.117  54.714  1.00  0.00    -0.359 OA
HETATM   12  H   UNL     1      29.547  42.318  54.888  1.00  0.00     0.218 HD
ENDBRANCH   6  11
BRANCH   7  13
HETATM   13  C   UNL     1      30.621  45.006  56.884  1.00  0.00     0.037 C 
HETATM   14  C   UNL     1      30.358  45.804  58.153  1.00  0.00     0.010 C 
ENDBRANCH   7  13
ENDBRANCH   1   5
BRANCH   2  15
HETATM   15  C   UNL     1      26.173  42.361  51.446  1.00  0.00     0.136 C 
BRANCH  15  16
HETATM   16  C   UNL     1      25.340  43.128  50.375  1.00  0.00    -0.004 C 
HETATM   17  C   UNL     1      25.768  42.613  48.984  1.00  0.00     0.021 C 
HETATM   18  C   UNL     1      23.853  42.750  50.587  1.00  0.00     0.021 C 
BRANCH  16  19
HETATM   19  C   UNL     1      25.572  44.653  50.399  1.00  0.00    -0.046 A 
HETATM   20  C   UNL     1      26.623  45.245  49.682  1.00  0.00     0.027 A 
HETATM   21  C   UNL     1      26.794  46.623  49.725  1.00  0.00     0.116 A 
HETATM   22  N   UNL     1      25.994  47.458  50.415  1.00  0.00    -0.273 NA
HETATM   23  C   UNL     1      24.971  46.888  51.080  1.00  0.00     0.116 A 
HETATM   24  C   UNL     1      24.721  45.522  51.099  1.00  0.00     0.027 A 
ENDBRANCH  16  19
ENDBRANCH  15  16
ENDBRANCH   2  15
TORSDOF 6
ENDMDL
MODEL 9
REMARK VINA RESULT:      -7.1      4.392      6.681
REMARK  6 active torsions:
REMARK  status: ('A' for Active; 'I' for Inactive)
REMARK    1  A    between atoms: C_2  and  C_3 
REMARK    2  A    between atoms: C_4  and  O_5 
REMARK    3  A    between atoms: C_6  and  C_7 
REMARK       I    between atoms: C_7  and  N_8 
REMARK    4  A    between atoms: N_8  and  C_9 
REMARK    5  A    between atoms: C_9  and  C_10 
REMARK    6  A    between atoms: C_10  and  C_11 
ROOT
HETATM    1  C   UNL     1      27.639  43.691  51.186  1.00  0.00     0.254 C 
HETATM    2  N   UNL     1      27.754  42.379  50.799  1.00  0.00    -0.356 N 
HETATM    3  O   UNL     1      27.201  44.559  50.436  1.00  0.00    -0.268 OA
HETATM    4  H   UNL     1      28.094  41.716  51.491  1.00  0.00     0.162 HD
ENDROOT
BRANCH   1   5
HETATM    5  C   UNL     1      28.066  44.031  52.585  1.00  0.00     0.065 A 
HETATM    6  C   UNL     1      29.173  43.463  53.248  1.00  0.00     0.087 A 
HETATM    7  C   UNL     1      29.510  43.857  54.559  1.00  0.00    -0.024 A 
HETATM    8  C   UNL     1      28.698  44.802  55.208  1.00  0.00     0.010 A 
HETATM    9  C   UNL     1      27.591  45.357  54.568  1.00  0.00     0.002 A 
HETATM   10  C   UNL     1      27.283  44.978  53.264  1.00  0.00     0.020 A 
BRANCH   6  11
HETATM   11  O   UNL     1      29.929  42.516  52.600  1.00  0.00    -0.359 OA
HETATM   12  H   UNL     1      29.755  41.641  52.987  1.00  0.00     0.218 HD
ENDBRANCH   6  11
BRANCH   7  13
HETATM   13  C   UNL     1      30.706  43.316  55.309  1.00  0.00     0.037 C 
HETATM   14  C   UNL     1      31.046  44.160  56.529  1.00  0.00     0.010 C 
ENDBRANCH   7  13
ENDBRANCH   1   5
BRANCH   2  15
HETATM   15  C   UNL     1      27.336  41.911  49.492  1.00  0.00     0.136 C 
BRANCH  15  16
HETATM   16  C   UNL     1      26.957  40.400  49.461  1.00  0.00    -0.004 C 
HETATM   17  C   UNL     1      26.010  40.124  50.649  1.00  0.00     0.021 C 
HETATM   18  C   UNL     1      26.166  40.148  48.153  1.00  0.00     0.021 C 
BRANCH  16  19
HETATM   19  C   UNL     1      28.173  39.463  49.606  1.00  0.00    -0.046 A 
HETATM   20  C   UNL     1      28.797  38.893  48.486  1.00  0.00     0.027 A 
HETATM   21  C   UNL     1      29.894  38.059  48.659  1.00  0.00     0.116 A 
HETATM   22  N   UNL     1      30.426  37.757  49.859  1.00  0.00    -0.273 NA
HETATM   23  C   UNL     1      29.841  38.328  50.930  1.00  0.00     0.116 A 
HETATM   24  C   UNL     1      28.739  39.171  50.856  1.00  0.00     0.027 A 
ENDBRANCH  16  19
ENDBRANCH  15  16
ENDBRANCH   2  15
TORSDOF 6
ENDMDL
MODEL 10
REMARK VINA RESULT:      -7.1      3.523      4.636
REMARK  6 active torsions:
REMARK  status: ('A' for Active; 'I' for Inactive)
REMARK    1  A    between atoms: C_2  and  C_3 
REMARK    2  A    between atoms: C_4  and  O_5 
REMARK    3  A    between atoms: C_6  and  C_7 
REMARK       I    between atoms: C_7  and  N_8 
REMARK    4  A    between atoms: N_8  and  C_9 
REMARK    5  A    between atoms: C_9  and  C_10 
REMARK    6  A    between atoms: C_10  and  C_11 
ROOT
HETATM    1  C   UNL     1      26.858  44.930  53.115  1.00  0.00     0.254 C 
HETATM    2  N   UNL     1      26.339  43.690  52.836  1.00  0.00    -0.356 N 
HETATM    3  O   UNL     1      26.475  45.944  52.539  1.00  0.00    -0.268 OA
HETATM    4  H   UNL     1      26.688  42.905  53.381  1.00  0.00     0.162 HD
ENDROOT
BRANCH   1   5
HETATM    5  C   UNL     1      27.921  45.004  54.173  1.00  0.00     0.065 A 
HETATM    6  C   UNL     1      28.904  44.018  54.396  1.00  0.00     0.087 A 
HETATM    7  C   UNL     1      29.877  44.182  55.404  1.00  0.00    -0.024 A 
HETATM    8  C   UNL     1      29.824  45.331  56.209  1.00  0.00     0.010 A 
HETATM    9  C   UNL     1      28.847  46.304  56.008  1.00  0.00     0.002 A 
HETATM   10  C   UNL     1      27.907  46.143  54.994  1.00  0.00     0.020 A 
BRANCH   6  11
HETATM   11  O   UNL     1      28.909  42.888  53.614  1.00  0.00    -0.359 OA
HETATM   12  H   UNL     1      28.322  43.019  52.851  1.00  0.00     0.218 HD
ENDBRANCH   6  11
BRANCH   7  13
HETATM   13  C   UNL     1      30.979  43.182  55.666  1.00  0.00     0.037 C 
HETATM   14  C   UNL     1      31.569  43.332  57.060  1.00  0.00     0.010 C 
ENDBRANCH   7  13
ENDBRANCH   1   5
BRANCH   2  15
HETATM   15  C   UNL     1      25.279  43.487  51.869  1.00  0.00     0.136 C 
BRANCH  15  16
HETATM   16  C   UNL     1      25.734  42.713  50.595  1.00  0.00    -0.004 C 
HETATM   17  C   UNL     1      26.790  43.575  49.870  1.00  0.00     0.021 C 
HETATM   18  C   UNL     1      26.425  41.410  51.068  1.00  0.00     0.021 C 
BRANCH  16  19
HETATM   19  C   UNL     1      24.586  42.447  49.601  1.00  0.00    -0.046 A 
HETATM   20  C   UNL     1      24.523  41.259  48.856  1.00  0.00     0.027 A 
HETATM   21  C   UNL     1      23.468  41.054  47.975  1.00  0.00     0.116 A 
HETATM   22  N   UNL     1      22.466  41.934  47.785  1.00  0.00    -0.273 NA
HETATM   23  C   UNL     1      22.517  43.061  48.522  1.00  0.00     0.116 A 
HETATM   24  C   UNL     1      23.531  43.355  49.425  1.00  0.00     0.027 A 
ENDBRANCH  16  19
ENDBRANCH  15  16
ENDBRANCH   2  15
TORSDOF 6
ENDMDL
