MODEL 1
REMARK VINA RESULT:      -8.0      0.000      0.000
REMARK  6 active torsions:
REMARK  status: ('A' for Active; 'I' for Inactive)
REMARK    1  A    between atoms: C_4  and  C_5 
REMARK    2  A    between atoms: C_5  and  N_6 
REMARK    3  A    between atoms: C_5  and  C_10 
REMARK    4  A    between atoms: C_10  and  N_11 
REMARK       I    between atoms: N_11  and  C_12 
REMARK       I    between atoms: C_12  and  N_13 
REMARK    5  A    between atoms: N_13  and  C_14 
REMARK    6  A    between atoms: C_17  and  N_18 
ROOT
HETATM    1  N   UNL     1      28.750  40.564  49.666  1.00  0.00    -0.340 N 
HETATM    2  C   UNL     1      28.779  39.568  50.583  1.00  0.00     0.320 C 
HETATM    3  N   UNL     1      29.036  39.887  51.874  1.00  0.00    -0.309 N 
HETATM    4  O   UNL     1      28.668  38.389  50.243  1.00  0.00    -0.247 OA
HETATM    5  H   UNL     1      29.178  41.439  49.946  1.00  0.00     0.164 HD
HETATM    6  H   UNL     1      29.289  39.075  52.428  1.00  0.00     0.170 HD
ENDROOT
BRANCH   1   7
HETATM    7  C   UNL     1      28.364  40.401  48.261  1.00  0.00     0.164 C 
BRANCH   7   8
HETATM    8  C   UNL     1      27.066  41.146  47.807  1.00  0.00     0.261 C 
BRANCH   8   9
HETATM    9  C   UNL     1      26.454  41.908  48.940  1.00  0.00     0.085 A 
HETATM   10  O   UNL     1      27.127  43.010  49.380  1.00  0.00    -0.318 OA
HETATM   11  C   UNL     1      26.420  43.525  50.426  1.00  0.00     0.049 A 
HETATM   12  C   UNL     1      26.979  44.723  51.087  1.00  0.00     0.076 C 
HETATM   13  C   UNL     1      25.285  42.774  50.643  1.00  0.00     0.035 A 
HETATM   14  C   UNL     1      25.305  41.731  49.685  1.00  0.00     0.037 A 
ENDBRANCH   8   9
BRANCH   8  15
HETATM   15  N   UNL     1      26.077  40.216  47.098  1.00  0.00    -0.067 N 
HETATM   16  H   UNL     1      25.156  40.461  47.513  1.00  0.00     0.280 HD
HETATM   17  C   UNL     1      25.900  40.430  45.625  1.00  0.00     0.270 C 
HETATM   18  C   UNL     1      26.302  38.772  47.419  1.00  0.00     0.270 C 
ENDBRANCH   8  15
ENDBRANCH   7   8
ENDBRANCH   1   7
BRANCH   3  19
HETATM   19  C   UNL     1      28.875  41.080  52.606  1.00  0.00     0.036 A 
HETATM   20  C   UNL     1      27.748  41.400  53.361  1.00  0.00     0.032 A 
HETATM   21  C   UNL     1      27.698  42.589  54.107  1.00  0.00     0.032 A 
HETATM   22  C   UNL     1      28.785  43.470  54.126  1.00  0.00     0.040 A 
HETATM   23  C   UNL     1      29.917  43.146  53.366  1.00  0.00     0.032 A 
HETATM   24  C   UNL     1      29.963  41.958  52.627  1.00  0.00     0.032 A 
BRANCH  22  25
HETATM   25  N   UNL     1      28.763  44.682  54.886  1.00  0.00    -0.309 N 
HETATM   26  C   UNL     1      29.582  45.097  55.939  1.00  0.00     0.106 A 
HETATM   27  C   UNL     1      30.819  44.423  56.409  1.00  0.00     0.091 C 
HETATM   28  N   UNL     1      29.184  46.259  56.425  1.00  0.00    -0.246 NA
HETATM   29  C   UNL     1      28.136  46.655  55.656  1.00  0.00     0.136 A 
HETATM   30  C   UNL     1      27.871  45.720  54.689  1.00  0.00     0.118 A 
ENDBRANCH  22  25
ENDBRANCH   3  19
TORSDOF 6
ENDMDL
MODEL 2
REMARK VINA RESULT:      -7.9      2.713      4.307
REMARK  6 active torsions:
REMARK  status: ('A' for Active; 'I' for Inactive)
REMARK    1  A    between atoms: C_4  and  C_5 
REMARK    2  A    between atoms: C_5  and  N_6 
REMARK    3  A    between atoms: C_5  and  C_10 
REMARK    4  A    between atoms: C_10  and  N_11 
REMARK       I    between atoms: N_11  and  C_12 
REMARK       I    between atoms: C_12  and  N_13 
REMARK    5  A    between atoms: N_13  and  C_14 
REMARK    6  A    between atoms: C_17  and  N_18 
ROOT
HETATM    1  N   UNL     1      27.106  43.982  50.624  1.00  0.00    -0.340 N 
HETATM    2  C   UNL     1      27.268  42.641  50.717  1.00  0.00     0.320 C 
HETATM    3  N   UNL     1      28.197  42.162  51.579  1.00  0.00    -0.309 N 
HETATM    4  O   UNL     1      26.656  41.875  49.972  1.00  0.00    -0.247 OA
HETATM    5  H   UNL     1      27.858  44.549  51.000  1.00  0.00     0.164 HD
HETATM    6  H   UNL     1      28.425  41.190  51.397  1.00  0.00     0.170 HD
ENDROOT
BRANCH   1   7
HETATM    7  C   UNL     1      26.064  44.650  49.838  1.00  0.00     0.164 C 
BRANCH   7   8
HETATM    8  C   UNL     1      25.493  45.981  50.431  1.00  0.00     0.261 C 
BRANCH   8   9
HETATM    9  C   UNL     1      25.631  46.014  51.921  1.00  0.00     0.085 A 
HETATM   10  O   UNL     1      25.072  44.982  52.617  1.00  0.00    -0.318 OA
HETATM   11  C   UNL     1      25.282  45.228  53.941  1.00  0.00     0.049 A 
HETATM   12  C   UNL     1      24.735  44.244  54.899  1.00  0.00     0.076 C 
HETATM   13  C   UNL     1      25.992  46.398  54.096  1.00  0.00     0.035 A 
HETATM   14  C   UNL     1      26.219  46.906  52.794  1.00  0.00     0.037 A 
ENDBRANCH   8   9
BRANCH   8  15
HETATM   15  N   UNL     1      24.070  46.272  49.946  1.00  0.00    -0.067 N 
HETATM   16  H   UNL     1      23.485  46.166  50.799  1.00  0.00     0.280 HD
HETATM   17  C   UNL     1      23.800  47.668  49.471  1.00  0.00     0.270 C 
HETATM   18  C   UNL     1      23.566  45.254  48.973  1.00  0.00     0.270 C 
ENDBRANCH   8  15
ENDBRANCH   7   8
ENDBRANCH   1   7
BRANCH   3  19
HETATM   19  C   UNL     1      28.779  42.702  52.743  1.00  0.00     0.036 A 
HETATM   20  C   UNL     1      30.148  42.886  52.931  1.00  0.00     0.032 A 
HETATM   21  C   UNL     1      30.636  43.487  54.104  1.00  0.00     0.032 A 
HETATM   22  C   UNL     1      29.760  43.932  55.100  1.00  0.00     0.040 A 
HETATM   23  C   UNL     1      28.385  43.745  54.908  1.00  0.00     0.032 A 
HETATM   24  C   UNL     1      27.903  43.149  53.736  1.00  0.00     0.032 A 
BRANCH  22  25
HETATM   25  N   UNL     1      30.231  44.556  56.298  1.00  0.00    -0.309 N 
HETATM   26  C   UNL     1      31.132  44.093  57.259  1.00  0.00     0.106 A 
HETATM   27  C   UNL     1      31.970  42.870  57.161  1.00  0.00     0.091 C 
HETATM   28  N   UNL     1      31.244  44.946  58.261  1.00  0.00    -0.246 NA
HETATM   29  C   UNL     1      30.466  46.014  57.941  1.00  0.00     0.136 A 
HETATM   30  C   UNL     1      29.852  45.814  56.732  1.00  0.00     0.118 A 
ENDBRANCH  22  25
ENDBRANCH   3  19
TORSDOF 6
ENDMDL
MODEL 3
REMARK VINA RESULT:      -7.8      7.625     10.236
REMARK  6 active torsions:
REMARK  status: ('A' for Active; 'I' for Inactive)
REMARK    1  A    between atoms: C_4  and  C_5 
REMARK    2  A    between atoms: C_5  and  N_6 
REMARK    3  A    between atoms: C_5  and  C_10 
REMARK    4  A    between atoms: C_10  and  N_11 
REMARK       I    between atoms: N_11  and  C_12 
REMARK       I    between atoms: C_12  and  N_13 
REMARK    5  A    between atoms: N_13  and  C_14 
REMARK    6  A    between atoms: C_17  and  N_18 
ROOT
HETATM    1  N   UNL     1      25.257  48.373  49.449  1.00  0.00    -0.340 N 
HETATM    2  C   UNL     1      25.717  49.359  48.643  1.00  0.00     0.320 C 
HETATM    3  N   UNL     1      24.817  50.115  47.970  1.00  0.00    -0.309 N 
HETATM    4  O   UNL     1      26.924  49.509  48.451  1.00  0.00    -0.247 OA
HETATM    5  H   UNL     1      24.296  48.089  49.300  1.00  0.00     0.164 HD
HETATM    6  H   UNL     1      25.245  50.640  47.214  1.00  0.00     0.170 HD
ENDROOT
BRANCH   1   7
HETATM    7  C   UNL     1      26.090  47.556  50.337  1.00  0.00     0.164 C 
BRANCH   7   8
HETATM    8  C   UNL     1      25.334  46.562  51.279  1.00  0.00     0.261 C 
BRANCH   8   9
HETATM    9  C   UNL     1      25.928  46.558  52.652  1.00  0.00     0.085 A 
HETATM   10  O   UNL     1      25.725  47.669  53.418  1.00  0.00    -0.318 OA
HETATM   11  C   UNL     1      26.373  47.467  54.600  1.00  0.00     0.049 A 
HETATM   12  C   UNL     1      26.314  48.563  55.590  1.00  0.00     0.076 C 
HETATM   13  C   UNL     1      26.969  46.225  54.605  1.00  0.00     0.035 A 
HETATM   14  C   UNL     1      26.683  45.637  53.350  1.00  0.00     0.037 A 
ENDBRANCH   8   9
BRANCH   8  15
HETATM   15  N   UNL     1      25.206  45.164  50.668  1.00  0.00    -0.067 N 
HETATM   16  H   UNL     1      25.368  44.521  51.470  1.00  0.00     0.280 HD
HETATM   17  C   UNL     1      23.852  44.785  50.147  1.00  0.00     0.270 C 
HETATM   18  C   UNL     1      26.281  44.861  49.673  1.00  0.00     0.270 C 
ENDBRANCH   8  15
ENDBRANCH   7   8
ENDBRANCH   1   7
BRANCH   3  19
HETATM   19  C   UNL     1      23.462  50.416  48.212  1.00  0.00     0.036 A 
HETATM   20  C   UNL     1      22.420  50.142  47.327  1.00  0.00     0.032 A 
HETATM   21  C   UNL     1      21.089  50.426  47.677  1.00  0.00     0.032 A 
HETATM   22  C   UNL     1      20.777  50.970  48.927  1.00  0.00     0.040 A 
HETATM   23  C   UNL     1      21.826  51.245  49.814  1.00  0.00     0.032 A 
HETATM   24  C   UNL     1      23.151  50.958  49.462  1.00  0.00     0.032 A 
BRANCH  22  25
HETATM   25  N   UNL     1      19.429  51.258  49.312  1.00  0.00    -0.309 N 
HETATM   26  C   UNL     1      18.525  50.496  50.055  1.00  0.00     0.106 A 
HETATM   27  C   UNL     1      18.828  49.242  50.791  1.00  0.00     0.091 C 
HETATM   28  N   UNL     1      17.345  51.087  50.126  1.00  0.00    -0.246 NA
HETATM   29  C   UNL     1      17.477  52.278  49.484  1.00  0.00     0.136 A 
HETATM   30  C   UNL     1      18.750  52.421  48.996  1.00  0.00     0.118 A 
ENDBRANCH  22  25
ENDBRANCH   3  19
TORSDOF 6
ENDMDL
MODEL 4
REMARK VINA RESULT:      -7.4      5.963      7.648
REMARK  6 active torsions:
REMARK  status: ('A' for Active; 'I' for Inactive)
REMARK    1  A    between atoms: C_4  and  C_5 
REMARK    2  A    between atoms: C_5  and  N_6 
REMARK    3  A    between atoms: C_5  and  C_10 
REMARK    4  A    between atoms: C_10  and  N_11 
REMARK       I    between atoms: N_11  and  C_12 
REMARK       I    between atoms: C_12  and  N_13 
REMARK    5  A    between atoms: N_13  and  C_14 
REMARK    6  A    between atoms: C_17  and  N_18 
ROOT
HETATM    1  N   UNL     1      22.190  46.748  48.802  1.00  0.00    -0.340 N 
HETATM    2  C   UNL     1      22.714  45.543  48.473  1.00  0.00     0.320 C 
HETATM    3  N   UNL     1      23.924  45.205  48.979  1.00  0.00    -0.309 N 
HETATM    4  O   UNL     1      22.152  44.809  47.658  1.00  0.00    -0.247 OA
HETATM    5  H   UNL     1      22.839  47.425  49.186  1.00  0.00     0.164 HD
HETATM    6  H   UNL     1      24.342  44.423  48.486  1.00  0.00     0.170 HD
ENDROOT
BRANCH   1   7
HETATM    7  C   UNL     1      20.845  47.206  48.442  1.00  0.00     0.164 C 
BRANCH   7   8
HETATM    8  C   UNL     1      20.764  48.496  47.559  1.00  0.00     0.261 C 
BRANCH   8   9
HETATM    9  C   UNL     1      21.833  49.475  47.931  1.00  0.00     0.085 A 
HETATM   10  O   UNL     1      23.120  49.127  47.639  1.00  0.00    -0.318 OA
HETATM   11  C   UNL     1      23.921  50.134  48.089  1.00  0.00     0.049 A 
HETATM   12  C   UNL     1      25.378  49.963  47.902  1.00  0.00     0.076 C 
HETATM   13  C   UNL     1      23.155  51.134  48.645  1.00  0.00     0.035 A 
HETATM   14  C   UNL     1      21.808  50.712  48.544  1.00  0.00     0.037 A 
ENDBRANCH   8   9
BRANCH   8  15
HETATM   15  N   UNL     1      19.360  49.106  47.546  1.00  0.00    -0.067 N 
HETATM   16  H   UNL     1      19.529  50.132  47.579  1.00  0.00     0.280 HD
HETATM   17  C   UNL     1      18.552  48.894  46.302  1.00  0.00     0.270 C 
HETATM   18  C   UNL     1      18.571  48.780  48.774  1.00  0.00     0.270 C 
ENDBRANCH   8  15
ENDBRANCH   7   8
ENDBRANCH   1   7
BRANCH   3  19
HETATM   19  C   UNL     1      24.623  45.628  50.128  1.00  0.00     0.036 A 
HETATM   20  C   UNL     1      25.427  46.764  50.191  1.00  0.00     0.032 A 
HETATM   21  C   UNL     1      26.041  47.141  51.397  1.00  0.00     0.032 A 
HETATM   22  C   UNL     1      25.844  46.398  52.566  1.00  0.00     0.040 A 
HETATM   23  C   UNL     1      25.035  45.256  52.499  1.00  0.00     0.032 A 
HETATM   24  C   UNL     1      24.423  44.886  51.295  1.00  0.00     0.032 A 
BRANCH  22  25
HETATM   25  N   UNL     1      26.449  46.767  53.809  1.00  0.00    -0.309 N 
HETATM   26  C   UNL     1      27.435  46.119  54.556  1.00  0.00     0.106 A 
HETATM   27  C   UNL     1      28.233  44.943  54.126  1.00  0.00     0.091 C 
HETATM   28  N   UNL     1      27.667  46.752  55.692  1.00  0.00    -0.246 NA
HETATM   29  C   UNL     1      26.882  47.862  55.678  1.00  0.00     0.136 A 
HETATM   30  C   UNL     1      26.143  47.911  54.525  1.00  0.00     0.118 A 
ENDBRANCH  22  25
ENDBRANCH   3  19
TORSDOF 6
ENDMDL
MODEL 5
REMARK VINA RESULT:      -7.2     12.988     15.630
REMARK  6 active torsions:
REMARK  status: ('A' for Active; 'I' for Inactive)
REMARK    1  A    between atoms: C_4  and  C_5 
REMARK    2  A    between atoms: C_5  and  N_6 
REMARK    3  A    between atoms: C_5  and  C_10 
REMARK    4  A    between atoms: C_10  and  N_11 
REMARK       I    between atoms: N_11  and  C_12 
REMARK       I    between atoms: C_12  and  N_13 
REMARK    5  A    between atoms: N_13  and  C_14 
REMARK    6  A    between atoms: C_17  and  N_18 
ROOT
HETATM    1  N   UNL     1      31.499  52.143  40.081  1.00  0.00    -0.340 N 
HETATM    2  C   UNL     1      30.755  53.221  40.423  1.00  0.00     0.320 C 
HETATM    3  N   UNL     1      29.442  53.231  40.091  1.00  0.00    -0.309 N 
HETATM    4  O   UNL     1      31.274  54.212  40.940  1.00  0.00    -0.247 OA
HETATM    5  H   UNL     1      31.102  51.534  39.375  1.00  0.00     0.164 HD
HETATM    6  H   UNL     1      29.036  54.159  40.152  1.00  0.00     0.170 HD
ENDROOT
BRANCH   1   7
HETATM    7  C   UNL     1      32.894  51.926  40.476  1.00  0.00     0.164 C 
BRANCH   7   8
HETATM    8  C   UNL     1      33.264  50.481  40.950  1.00  0.00     0.261 C 
BRANCH   8   9
HETATM    9  C   UNL     1      32.071  49.578  40.916  1.00  0.00     0.085 A 
HETATM   10  O   UNL     1      31.596  49.227  39.686  1.00  0.00    -0.318 OA
HETATM   11  C   UNL     1      30.501  48.439  39.887  1.00  0.00     0.049 A 
HETATM   12  C   UNL     1      29.796  47.955  38.682  1.00  0.00     0.076 C 
HETATM   13  C   UNL     1      30.287  48.264  41.237  1.00  0.00     0.035 A 
HETATM   14  C   UNL     1      31.299  48.997  41.902  1.00  0.00     0.037 A 
ENDBRANCH   8   9
BRANCH   8  15
HETATM   15  N   UNL     1      33.989  50.478  42.298  1.00  0.00    -0.067 N 
HETATM   16  H   UNL     1      33.760  49.550  42.708  1.00  0.00     0.280 HD
HETATM   17  C   UNL     1      35.487  50.512  42.250  1.00  0.00     0.270 C 
HETATM   18  C   UNL     1      33.448  51.494  43.254  1.00  0.00     0.270 C 
ENDBRANCH   8  15
ENDBRANCH   7   8
ENDBRANCH   1   7
BRANCH   3  19
HETATM   19  C   UNL     1      28.522  52.195  39.829  1.00  0.00     0.036 A 
HETATM   20  C   UNL     1      28.115  51.802  38.556  1.00  0.00     0.032 A 
HETATM   21  C   UNL     1      27.236  50.719  38.387  1.00  0.00     0.032 A 
HETATM   22  C   UNL     1      26.766  49.998  39.490  1.00  0.00     0.040 A 
HETATM   23  C   UNL     1      27.177  50.396  40.769  1.00  0.00     0.032 A 
HETATM   24  C   UNL     1      28.056  51.475  40.932  1.00  0.00     0.032 A 
BRANCH  22  25
HETATM   25  N   UNL     1      25.879  48.884  39.344  1.00  0.00    -0.309 N 
HETATM   26  C   UNL     1      24.512  48.855  39.063  1.00  0.00     0.106 A 
HETATM   27  C   UNL     1      23.670  50.013  38.665  1.00  0.00     0.091 C 
HETATM   28  N   UNL     1      24.044  47.620  39.087  1.00  0.00    -0.246 NA
HETATM   29  C   UNL     1      25.113  46.813  39.320  1.00  0.00     0.136 A 
HETATM   30  C   UNL     1      26.255  47.558  39.457  1.00  0.00     0.118 A 
ENDBRANCH  22  25
ENDBRANCH   3  19
TORSDOF 6
ENDMDL
MODEL 6
REMARK VINA RESULT:      -7.2     13.983     15.329
REMARK  6 active torsions:
REMARK  status: ('A' for Active; 'I' for Inactive)
REMARK    1  A    between atoms: C_4  and  C_5 
REMARK    2  A    between atoms: C_5  and  N_6 
REMARK    3  A    between atoms: C_5  and  C_10 
REMARK    4  A    between atoms: C_10  and  N_11 
REMARK       I    between atoms: N_11  and  C_12 
REMARK       I    between atoms: C_12  and  N_13 
REMARK    5  A    between atoms: N_13  and  C_14 
REMARK    6  A    between atoms: C_17  and  N_18 
ROOT
HETATM    1  N   UNL     1      32.059  52.660  39.789  1.00  0.00    -0.340 N 
HETATM    2  C   UNL     1      32.428  51.722  38.885  1.00  0.00     0.320 C 
HETATM    3  N   UNL     1      33.720  51.315  38.867  1.00  0.00    -0.309 N 
HETATM    4  O   UNL     1      31.634  51.314  38.036  1.00  0.00    -0.247 OA
HETATM    5  H   UNL     1      32.813  53.188  40.215  1.00  0.00     0.164 HD
HETATM    6  H   UNL     1      33.955  50.819  38.013  1.00  0.00     0.170 HD
ENDROOT
BRANCH   1   7
HETATM    7  C   UNL     1      30.684  53.111  40.020  1.00  0.00     0.164 C 
BRANCH   7   8
HETATM    8  C   UNL     1      29.849  52.290  41.058  1.00  0.00     0.261 C 
BRANCH   8   9
HETATM    9  C   UNL     1      30.740  51.523  41.984  1.00  0.00     0.085 A 
HETATM   10  O   UNL     1      31.567  52.248  42.790  1.00  0.00    -0.318 OA
HETATM   11  C   UNL     1      32.303  51.360  43.516  1.00  0.00     0.049 A 
HETATM   12  C   UNL     1      33.299  51.925  44.452  1.00  0.00     0.076 C 
HETATM   13  C   UNL     1      31.936  50.071  43.198  1.00  0.00     0.035 A 
HETATM   14  C   UNL     1      30.927  50.174  42.210  1.00  0.00     0.037 A 
ENDBRANCH   8   9
BRANCH   8  15
HETATM   15  N   UNL     1      28.777  51.424  40.390  1.00  0.00    -0.067 N 
HETATM   16  H   UNL     1      29.252  50.513  40.229  1.00  0.00     0.280 HD
HETATM   17  C   UNL     1      27.579  51.086  41.225  1.00  0.00     0.270 C 
HETATM   18  C   UNL     1      28.380  51.926  39.039  1.00  0.00     0.270 C 
ENDBRANCH   8  15
ENDBRANCH   7   8
ENDBRANCH   1   7
BRANCH   3  19
HETATM   19  C   UNL     1      34.729  51.319  39.851  1.00  0.00     0.036 A 
HETATM   20  C   UNL     1      35.759  52.256  39.924  1.00  0.00     0.032 A 
HETATM   21  C   UNL     1      36.690  52.217  40.975  1.00  0.00     0.032 A 
HETATM   22  C   UNL     1      36.595  51.250  41.982  1.00  0.00     0.040 A 
HETATM   23  C   UNL     1      35.559  50.310  41.906  1.00  0.00     0.032 A 
HETATM   24  C   UNL     1      34.631  50.355  40.857  1.00  0.00     0.032 A 
BRANCH  22  25
HETATM   25  N   UNL     1      37.524  51.196  43.069  1.00  0.00    -0.309 N 
HETATM   26  C   UNL     1      37.693  52.064  44.150  1.00  0.00     0.106 A 
HETATM   27  C   UNL     1      36.798  53.188  44.525  1.00  0.00     0.091 C 
HETATM   28  N   UNL     1      38.719  51.700  44.899  1.00  0.00    -0.246 NA
HETATM   29  C   UNL     1      39.199  50.550  44.356  1.00  0.00     0.136 A 
HETATM   30  C   UNL     1      38.471  50.203  43.248  1.00  0.00     0.118 A 
ENDBRANCH  22  25
ENDBRANCH   3  19
TORSDOF 6
ENDMDL
MODEL 7
REMARK VINA RESULT:      -7.0      3.516      6.477
REMARK  6 active torsions:
REMARK  status: ('A' for Active; 'I' for Inactive)
REMARK    1  A    between atoms: C_4  and  C_5 
REMARK    2  A    between atoms: C_5  and  N_6 
REMARK    3  A    between atoms: C_5  and  C_10 
REMARK    4  A    between atoms: C_10  and  N_11 
REMARK       I    between atoms: N_11  and  C_12 
REMARK       I    between atoms: C_12  and  N_13 
REMARK    5  A    between atoms: N_13  and  C_14 
REMARK    6  A    between atoms: C_17  and  N_18 
ROOT
HETATM    1  N   UNL     1      26.912  41.756  52.093  1.00  0.00    -0.340 N 
HETATM    2  C   UNL     1      26.682  41.076  50.945  1.00  0.00     0.320 C 
HETATM    3  N   UNL     1      25.743  41.549  50.091  1.00  0.00    -0.309 N 
HETATM    4  O   UNL     1      27.242  40.002  50.722  1.00  0.00    -0.247 OA
HETATM    5  H   UNL     1      26.196  42.419  52.368  1.00  0.00     0.164 HD
HETATM    6  H   UNL     1      25.463  40.856  49.405  1.00  0.00     0.170 HD
ENDROOT
BRANCH   1   7
HETATM    7  C   UNL     1      27.975  41.447  53.054  1.00  0.00     0.164 C 
BRANCH   7   8
HETATM    8  C   UNL     1      28.161  42.460  54.232  1.00  0.00     0.261 C 
BRANCH   8   9
HETATM    9  C   UNL     1      27.017  43.421  54.307  1.00  0.00     0.085 A 
HETATM   10  O   UNL     1      27.028  44.467  53.432  1.00  0.00    -0.318 OA
HETATM   11  C   UNL     1      25.926  45.225  53.696  1.00  0.00     0.049 A 
HETATM   12  C   UNL     1      25.741  46.443  52.877  1.00  0.00     0.076 C 
HETATM   13  C   UNL     1      25.197  44.659  54.718  1.00  0.00     0.035 A 
HETATM   14  C   UNL     1      25.898  43.495  55.113  1.00  0.00     0.037 A 
ENDBRANCH   8   9
BRANCH   8  15
HETATM   15  N   UNL     1      29.529  43.148  54.199  1.00  0.00    -0.067 N 
HETATM   16  H   UNL     1      29.305  44.152  54.051  1.00  0.00     0.280 HD
HETATM   17  C   UNL     1      30.322  43.118  55.471  1.00  0.00     0.270 C 
HETATM   18  C   UNL     1      30.361  42.736  53.026  1.00  0.00     0.270 C 
ENDBRANCH   8  15
ENDBRANCH   7   8
ENDBRANCH   1   7
BRANCH   3  19
HETATM   19  C   UNL     1      25.209  42.837  49.889  1.00  0.00     0.036 A 
HETATM   20  C   UNL     1      23.882  43.191  50.130  1.00  0.00     0.032 A 
HETATM   21  C   UNL     1      23.450  44.516  49.954  1.00  0.00     0.032 A 
HETATM   22  C   UNL     1      24.344  45.515  49.554  1.00  0.00     0.040 A 
HETATM   23  C   UNL     1      25.676  45.157  49.313  1.00  0.00     0.032 A 
HETATM   24  C   UNL     1      26.104  43.835  49.491  1.00  0.00     0.032 A 
BRANCH  22  25
HETATM   25  N   UNL     1      23.931  46.874  49.379  1.00  0.00    -0.309 N 
HETATM   26  C   UNL     1      24.653  48.059  49.535  1.00  0.00     0.106 A 
HETATM   27  C   UNL     1      26.117  48.175  49.756  1.00  0.00     0.091 C 
HETATM   28  N   UNL     1      23.882  49.116  49.352  1.00  0.00    -0.246 NA
HETATM   29  C   UNL     1      22.655  48.639  49.009  1.00  0.00     0.136 A 
HETATM   30  C   UNL     1      22.662  47.268  48.994  1.00  0.00     0.118 A 
ENDBRANCH  22  25
ENDBRANCH   3  19
TORSDOF 6
ENDMDL
MODEL 8
REMARK VINA RESULT:      -7.0      4.960      7.889
REMARK  6 active torsions:
REMARK  status: ('A' for Active; 'I' for Inactive)
REMARK    1  A    between atoms: C_4  and  C_5 
REMARK    2  A    between atoms: C_5  and  N_6 
REMARK    3  A    between atoms: C_5  and  C_10 
REMARK    4  A    between atoms: C_10  and  N_11 
REMARK       I    between atoms: N_11  and  C_12 
REMARK       I    between atoms: C_12  and  N_13 
REMARK    5  A    between atoms: N_13  and  C_14 
REMARK    6  A    between atoms: C_17  and  N_18 
ROOT
HETATM    1  N   UNL     1      26.735  44.276  50.882  1.00  0.00    -0.340 N 
HETATM    2  C   UNL     1      26.461  43.756  49.662  1.00  0.00     0.320 C 
HETATM    3  N   UNL     1      25.346  44.175  49.017  1.00  0.00    -0.309 N 
HETATM    4  O   UNL     1      27.153  42.855  49.187  1.00  0.00    -0.247 OA
HETATM    5  H   UNL     1      25.966  44.742  51.350  1.00  0.00     0.164 HD
HETATM    6  H   UNL     1      25.090  43.559  48.252  1.00  0.00     0.170 HD
ENDROOT
BRANCH   1   7
HETATM    7  C   UNL     1      27.959  44.023  51.647  1.00  0.00     0.164 C 
BRANCH   7   8
HETATM    8  C   UNL     1      27.768  43.606  53.143  1.00  0.00     0.261 C 
BRANCH   8   9
HETATM    9  C   UNL     1      27.739  44.803  54.040  1.00  0.00     0.085 A 
HETATM   10  O   UNL     1      26.799  45.755  53.771  1.00  0.00    -0.318 OA
HETATM   11  C   UNL     1      26.972  46.759  54.677  1.00  0.00     0.049 A 
HETATM   12  C   UNL     1      26.070  47.925  54.562  1.00  0.00     0.076 C 
HETATM   13  C   UNL     1      28.000  46.446  55.539  1.00  0.00     0.035 A 
HETATM   14  C   UNL     1      28.495  45.184  55.130  1.00  0.00     0.037 A 
ENDBRANCH   8   9
BRANCH   8  15
HETATM   15  N   UNL     1      28.776  42.541  53.585  1.00  0.00    -0.067 N 
HETATM   16  H   UNL     1      28.841  42.665  54.615  1.00  0.00     0.280 HD
HETATM   17  C   UNL     1      28.362  41.113  53.399  1.00  0.00     0.270 C 
HETATM   18  C   UNL     1      30.153  42.786  53.053  1.00  0.00     0.270 C 
ENDBRANCH   8  15
ENDBRANCH   7   8
ENDBRANCH   1   7
BRANCH   3  19
HETATM   19  C   UNL     1      24.583  45.356  49.112  1.00  0.00     0.036 A 
HETATM   20  C   UNL     1      25.005  46.522  49.749  1.00  0.00     0.032 A 
HETATM   21  C   UNL     1      24.199  47.673  49.744  1.00  0.00     0.032 A 
HETATM   22  C   UNL     1      22.966  47.683  49.085  1.00  0.00     0.040 A 
HETATM   23  C   UNL     1      22.545  46.510  48.445  1.00  0.00     0.032 A 
HETATM   24  C   UNL     1      23.352  45.365  48.450  1.00  0.00     0.032 A 
BRANCH  22  25
HETATM   25  N   UNL     1      22.133  48.846  49.056  1.00  0.00    -0.309 N 
HETATM   26  C   UNL     1      22.426  50.152  48.658  1.00  0.00     0.106 A 
HETATM   27  C   UNL     1      23.668  50.608  47.984  1.00  0.00     0.091 C 
HETATM   28  N   UNL     1      21.396  50.955  48.856  1.00  0.00    -0.246 NA
HETATM   29  C   UNL     1      20.388  50.174  49.328  1.00  0.00     0.136 A 
HETATM   30  C   UNL     1      20.803  48.872  49.437  1.00  0.00     0.118 A 
ENDBRANCH  22  25
ENDBRANCH   3  19
TORSDOF 6
ENDMDL
MODEL 9
REMARK VINA RESULT:      -6.9      4.900      6.979
REMARK  6 active torsions:
REMARK  status: ('A' for Active; 'I' for Inactive)
REMARK    1  A    between atoms: C_4  and  C_5 
REMARK    2  A    between atoms: C_5  and  N_6 
REMARK    3  A    between atoms: C_5  and  C_10 
REMARK    4  A    between atoms: C_10  and  N_11 
REMARK       I    between atoms: N_11  and  C_12 
REMARK       I    between atoms: C_12  and  N_13 
REMARK    5  A    between atoms: N_13  and  C_14 
REMARK    6  A    between atoms: C_17  and  N_18 
ROOT
HETATM    1  N   UNL     1      23.058  46.353  48.370  1.00  0.00    -0.340 N 
HETATM    2  C   UNL     1      23.122  45.062  47.967  1.00  0.00     0.320 C 
HETATM    3  N   UNL     1      24.162  44.304  48.391  1.00  0.00    -0.309 N 
HETATM    4  O   UNL     1      22.310  44.610  47.159  1.00  0.00    -0.247 OA
HETATM    5  H   UNL     1      23.916  46.746  48.742  1.00  0.00     0.164 HD
HETATM    6  H   UNL     1      24.266  43.455  47.846  1.00  0.00     0.170 HD
ENDROOT
BRANCH   1   7
HETATM    7  C   UNL     1      21.940  47.262  48.104  1.00  0.00     0.164 C 
BRANCH   7   8
HETATM    8  C   UNL     1      22.192  48.778  48.397  1.00  0.00     0.261 C 
BRANCH   8   9
HETATM    9  C   UNL     1      23.656  49.085  48.442  1.00  0.00     0.085 A 
HETATM   10  O   UNL     1      24.419  48.340  49.293  1.00  0.00    -0.318 OA
HETATM   11  C   UNL     1      25.696  48.805  49.201  1.00  0.00     0.049 A 
HETATM   12  C   UNL     1      26.708  48.157  50.063  1.00  0.00     0.076 C 
HETATM   13  C   UNL     1      25.762  49.827  48.279  1.00  0.00     0.035 A 
HETATM   14  C   UNL     1      24.447  50.009  47.788  1.00  0.00     0.037 A 
ENDBRANCH   8   9
BRANCH   8  15
HETATM   15  N   UNL     1      21.431  49.268  49.632  1.00  0.00    -0.067 N 
HETATM   16  H   UNL     1      21.884  48.768  50.424  1.00  0.00     0.280 HD
HETATM   17  C   UNL     1      21.572  50.721  49.970  1.00  0.00     0.270 C 
HETATM   18  C   UNL     1      19.998  48.840  49.642  1.00  0.00     0.270 C 
ENDBRANCH   8  15
ENDBRANCH   7   8
ENDBRANCH   1   7
BRANCH   3  19
HETATM   19  C   UNL     1      25.010  44.399  49.513  1.00  0.00     0.036 A 
HETATM   20  C   UNL     1      26.395  44.533  49.448  1.00  0.00     0.032 A 
HETATM   21  C   UNL     1      27.156  44.679  50.620  1.00  0.00     0.032 A 
HETATM   22  C   UNL     1      26.541  44.714  51.876  1.00  0.00     0.040 A 
HETATM   23  C   UNL     1      25.147  44.579  51.937  1.00  0.00     0.032 A 
HETATM   24  C   UNL     1      24.393  44.437  50.766  1.00  0.00     0.032 A 
BRANCH  22  25
HETATM   25  N   UNL     1      27.292  44.873  53.083  1.00  0.00    -0.309 N 
HETATM   26  C   UNL     1      28.382  44.145  53.566  1.00  0.00     0.106 A 
HETATM   27  C   UNL     1      29.147  43.110  52.824  1.00  0.00     0.091 C 
HETATM   28  N   UNL     1      28.744  44.564  54.765  1.00  0.00    -0.246 NA
HETATM   29  C   UNL     1      27.937  45.618  55.060  1.00  0.00     0.136 A 
HETATM   30  C   UNL     1      27.054  45.846  54.037  1.00  0.00     0.118 A 
ENDBRANCH  22  25
ENDBRANCH   3  19
TORSDOF 6
ENDMDL
MODEL 10
REMARK VINA RESULT:      -6.9      6.892      9.570
REMARK  6 active torsions:
REMARK  status: ('A' for Active; 'I' for Inactive)
REMARK    1  A    between atoms: C_4  and  C_5 
REMARK    2  A    between atoms: C_5  and  N_6 
REMARK    3  A    between atoms: C_5  and  C_10 
REMARK    4  A    between atoms: C_10  and  N_11 
REMARK       I    between atoms: N_11  and  C_12 
REMARK       I    between atoms: C_12  and  N_13 
REMARK    5  A    between atoms: N_13  and  C_14 
REMARK    6  A    between atoms: C_17  and  N_18 
ROOT
HETATM    1  N   UNL     1      25.348  47.541  50.755  1.00  0.00    -0.340 N 
HETATM    2  C   UNL     1      25.859  48.158  49.663  1.00  0.00     0.320 C 
HETATM    3  N   UNL     1      25.000  48.695  48.764  1.00  0.00    -0.309 N 
HETATM    4  O   UNL     1      27.070  48.153  49.441  1.00  0.00    -0.247 OA
HETATM    5  H   UNL     1      24.368  47.287  50.705  1.00  0.00     0.164 HD
HETATM    6  H   UNL     1      25.450  48.899  47.877  1.00  0.00     0.170 HD
ENDROOT
BRANCH   1   7
HETATM    7  C   UNL     1      26.139  47.026  51.876  1.00  0.00     0.164 C 
BRANCH   7   8
HETATM    8  C   UNL     1      26.500  45.505  51.830  1.00  0.00     0.261 C 
BRANCH   8   9
HETATM    9  C   UNL     1      25.721  44.795  50.768  1.00  0.00     0.085 A 
HETATM   10  O   UNL     1      24.365  44.754  50.918  1.00  0.00    -0.318 OA
HETATM   11  C   UNL     1      23.865  44.039  49.871  1.00  0.00     0.049 A 
HETATM   12  C   UNL     1      22.400  43.840  49.836  1.00  0.00     0.076 C 
HETATM   13  C   UNL     1      24.888  43.641  49.039  1.00  0.00     0.035 A 
HETATM   14  C   UNL     1      26.086  44.128  49.615  1.00  0.00     0.037 A 
ENDBRANCH   8   9
BRANCH   8  15
HETATM   15  N   UNL     1      26.399  44.839  53.205  1.00  0.00    -0.067 N 
HETATM   16  H   UNL     1      25.375  44.736  53.362  1.00  0.00     0.280 HD
HETATM   17  C   UNL     1      26.941  43.445  53.313  1.00  0.00     0.270 C 
HETATM   18  C   UNL     1      26.900  45.709  54.313  1.00  0.00     0.270 C 
ENDBRANCH   8  15
ENDBRANCH   7   8
ENDBRANCH   1   7
BRANCH   3  19
HETATM   19  C   UNL     1      23.671  49.149  48.876  1.00  0.00     0.036 A 
HETATM   20  C   UNL     1      22.544  48.340  48.746  1.00  0.00     0.032 A 
HETATM   21  C   UNL     1      21.255  48.869  48.932  1.00  0.00     0.032 A 
HETATM   22  C   UNL     1      21.075  50.214  49.269  1.00  0.00     0.040 A 
HETATM   23  C   UNL     1      22.209  51.026  49.399  1.00  0.00     0.032 A 
HETATM   24  C   UNL     1      23.492  50.493  49.216  1.00  0.00     0.032 A 
BRANCH  22  25
HETATM   25  N   UNL     1      19.774  50.775  49.474  1.00  0.00    -0.309 N 
HETATM   26  C   UNL     1      18.687  50.282  50.200  1.00  0.00     0.106 A 
HETATM   27  C   UNL     1      18.694  49.101  51.101  1.00  0.00     0.091 C 
HETATM   28  N   UNL     1      17.634  51.070  50.078  1.00  0.00    -0.246 NA
HETATM   29  C   UNL     1      18.034  52.127  49.322  1.00  0.00     0.136 A 
HETATM   30  C   UNL     1      19.348  51.986  48.958  1.00  0.00     0.118 A 
ENDBRANCH  22  25
ENDBRANCH   3  19
TORSDOF 6
ENDMDL
