MODEL 1
REMARK VINA RESULT:      -8.5      0.000      0.000
REMARK  8 active torsions:
REMARK  status: ('A' for Active; 'I' for Inactive)
REMARK    1  A    between atoms: C_2  and  O_3 
REMARK    2  A    between atoms: O_3  and  C_4 
REMARK    3  A    between atoms: C_5  and  O_6 
REMARK    4  A    between atoms: O_6  and  C_7 
REMARK       I    between atoms: C_7  and  N_8 
REMARK    5  A    between atoms: C_18  and  C_19 
REMARK    6  A    between atoms: C_23  and  N_24 
REMARK    7  A    between atoms: C_31  and  C_32 
REMARK    8  A    between atoms: C_35  and  O_36 
ROOT
HETATM    1  C   UNL     1      26.953  44.142  53.198  1.00  0.00     0.105 C 
HETATM    2  C   UNL     1      27.451  45.276  54.101  1.00  0.00     0.067 C 
HETATM    3  C   UNL     1      26.515  46.444  54.368  1.00  0.00     0.020 C 
HETATM    4  N   UNL     1      25.739  47.412  54.589  1.00  0.00    -0.096 N 
HETATM    5  C   UNL     1      28.688  45.291  54.665  1.00  0.00     0.139 C 
HETATM    6  O   UNL     1      29.612  44.262  54.437  1.00  0.00    -0.279 OA
HETATM    7  C   UNL     1      29.271  43.351  53.537  1.00  0.00     0.175 A 
HETATM    8  C   UNL     1      28.079  43.206  52.864  1.00  0.00     0.040 A 
HETATM    9  N   UNL     1      30.107  42.386  53.090  1.00  0.00    -0.256 N 
HETATM   10  H   UNL     1      31.065  42.206  53.371  1.00  0.00     0.191 HD
HETATM   11  N   UNL     1      29.560  41.629  52.131  1.00  0.00    -0.172 NA
HETATM   12  C   UNL     1      28.311  42.113  51.969  1.00  0.00     0.099 A 
ENDROOT
BRANCH   1  13
HETATM   13  C   UNL     1      26.245  44.604  51.930  1.00  0.00    -0.040 C 
HETATM   14  C   UNL     1      24.995  44.131  51.498  1.00  0.00     0.030 C 
HETATM   15  C   UNL     1      24.332  44.758  50.438  1.00  0.00     0.048 C 
HETATM   16  C   UNL     1      24.952  45.798  49.742  1.00  0.00     0.131 C 
HETATM   17 BR   UNL     1      22.572  44.196  50.008  1.00  0.00    -0.048 Br
HETATM   18  C   UNL     1      26.276  46.155  50.027  1.00  0.00     0.104 C 
HETATM   19  C   UNL     1      26.889  45.591  51.146  1.00  0.00     0.048 C 
BRANCH  16  20
HETATM   20  O   UNL     1      24.250  46.459  48.724  1.00  0.00    -0.257 OA
BRANCH  20  21
HETATM   21  C   UNL     1      23.557  47.584  49.167  1.00  0.00     0.368 C 
HETATM   22  N   UNL     1      22.480  47.899  48.354  1.00  0.00    -0.324 N 
HETATM   23  C   UNL     1      21.850  46.945  47.446  1.00  0.00     0.154 C 
HETATM   24  C   UNL     1      21.634  49.040  48.689  1.00  0.00     0.154 C 
HETATM   25  C   UNL     1      20.491  46.516  48.019  1.00  0.00     0.187 C 
HETATM   26  O   UNL     1      19.656  47.658  48.288  1.00  0.00    -0.388 OA
HETATM   27  C   UNL     1      20.287  48.550  49.227  1.00  0.00     0.187 C 
HETATM   28  O   UNL     1      23.848  48.242  50.163  1.00  0.00    -0.238 OA
ENDBRANCH  20  21
ENDBRANCH  16  20
BRANCH  18  29
HETATM   29  O   UNL     1      26.852  47.084  49.204  1.00  0.00    -0.349 OA
BRANCH  29  30
HETATM   30  C   UNL     1      27.169  48.371  49.733  1.00  0.00     0.171 C 
HETATM   31  C   UNL     1      26.916  49.470  48.715  1.00  0.00     0.034 C 
ENDBRANCH  29  30
ENDBRANCH  18  29
ENDBRANCH   1  13
BRANCH   5  32
HETATM   32  N   UNL     1      29.180  46.270  55.497  1.00  0.00    -0.282 NA
HETATM   33  H   UNL     1      30.185  46.425  55.465  1.00  0.00     0.126 HD
HETATM   34  H   UNL     1      28.640  47.130  55.443  1.00  0.00     0.126 HD
ENDBRANCH   5  32
BRANCH  12  35
HETATM   35  C   UNL     1      27.465  41.558  50.910  1.00  0.00    -0.005 A 
HETATM   36  C   UNL     1      26.675  40.423  51.101  1.00  0.00     0.016 A 
HETATM   37  C   UNL     1      25.824  39.981  50.079  1.00  0.00     0.037 A 
HETATM   38  C   UNL     1      25.760  40.651  48.854  1.00  0.00     0.068 A 
HETATM   39  C   UNL     1      26.563  41.769  48.650  1.00  0.00     0.037 A 
HETATM   40  C   UNL     1      27.408  42.216  49.670  1.00  0.00     0.016 A 
BRANCH  38  41
HETATM   41  O   UNL     1      24.886  40.116  47.946  1.00  0.00    -0.356 OA
HETATM   42  C   UNL     1      23.690  40.846  47.701  1.00  0.00     0.210 C 
ENDBRANCH  38  41
ENDBRANCH  12  35
TORSDOF 8
ENDMDL
MODEL 2
REMARK VINA RESULT:      -8.0      1.398      2.398
REMARK  8 active torsions:
REMARK  status: ('A' for Active; 'I' for Inactive)
REMARK    1  A    between atoms: C_2  and  O_3 
REMARK    2  A    between atoms: O_3  and  C_4 
REMARK    3  A    between atoms: C_5  and  O_6 
REMARK    4  A    between atoms: O_6  and  C_7 
REMARK       I    between atoms: C_7  and  N_8 
REMARK    5  A    between atoms: C_18  and  C_19 
REMARK    6  A    between atoms: C_23  and  N_24 
REMARK    7  A    between atoms: C_31  and  C_32 
REMARK    8  A    between atoms: C_35  and  O_36 
ROOT
HETATM    1  C   UNL     1      27.223  44.367  53.728  1.00  0.00     0.105 C 
HETATM    2  C   UNL     1      27.853  45.361  54.709  1.00  0.00     0.067 C 
HETATM    3  C   UNL     1      27.013  46.538  55.175  1.00  0.00     0.020 C 
HETATM    4  N   UNL     1      26.316  47.515  55.562  1.00  0.00    -0.096 N 
HETATM    5  C   UNL     1      29.126  45.243  55.174  1.00  0.00     0.139 C 
HETATM    6  O   UNL     1      29.965  44.199  54.764  1.00  0.00    -0.279 OA
HETATM    7  C   UNL     1      29.505  43.417  53.797  1.00  0.00     0.175 A 
HETATM    8  C   UNL     1      28.262  43.416  53.207  1.00  0.00     0.040 A 
HETATM    9  N   UNL     1      30.246  42.467  53.183  1.00  0.00    -0.256 N 
HETATM   10  H   UNL     1      31.208  42.204  53.368  1.00  0.00     0.191 HD
HETATM   11  N   UNL     1      29.586  41.855  52.191  1.00  0.00    -0.172 NA
HETATM   12  C   UNL     1      28.362  42.422  52.181  1.00  0.00     0.099 A 
ENDROOT
BRANCH   1  13
HETATM   13  C   UNL     1      26.457  45.008  52.577  1.00  0.00    -0.040 C 
HETATM   14  C   UNL     1      26.947  46.053  51.778  1.00  0.00     0.030 C 
HETATM   15  C   UNL     1      26.261  46.437  50.621  1.00  0.00     0.048 C 
HETATM   16  C   UNL     1      25.035  45.847  50.307  1.00  0.00     0.131 C 
HETATM   17 BR   UNL     1      27.055  47.731  49.482  1.00  0.00    -0.048 Br
HETATM   18  C   UNL     1      24.432  44.945  51.191  1.00  0.00     0.104 C 
HETATM   19  C   UNL     1      25.168  44.499  52.288  1.00  0.00     0.048 C 
BRANCH  16  20
HETATM   20  O   UNL     1      24.391  46.197  49.110  1.00  0.00    -0.257 OA
BRANCH  20  21
HETATM   21  C   UNL     1      23.622  47.355  49.211  1.00  0.00     0.368 C 
HETATM   22  N   UNL     1      22.637  47.426  48.239  1.00  0.00    -0.324 N 
HETATM   23  C   UNL     1      22.141  46.263  47.510  1.00  0.00     0.154 C 
HETATM   24  C   UNL     1      21.729  48.568  48.215  1.00  0.00     0.154 C 
HETATM   25  C   UNL     1      20.737  45.902  48.018  1.00  0.00     0.187 C 
HETATM   26  O   UNL     1      19.847  47.031  47.931  1.00  0.00    -0.388 OA
HETATM   27  C   UNL     1      20.342  48.141  48.705  1.00  0.00     0.187 C 
HETATM   28  O   UNL     1      23.780  48.232  50.057  1.00  0.00    -0.238 OA
ENDBRANCH  20  21
ENDBRANCH  16  20
BRANCH  18  29
HETATM   29  O   UNL     1      23.169  44.525  50.873  1.00  0.00    -0.349 OA
BRANCH  29  30
HETATM   30  C   UNL     1      22.974  43.169  50.473  1.00  0.00     0.171 C 
HETATM   31  C   UNL     1      22.685  43.063  48.985  1.00  0.00     0.034 C 
ENDBRANCH  29  30
ENDBRANCH  18  29
ENDBRANCH   1  13
BRANCH   5  32
HETATM   32  N   UNL     1      29.735  46.092  56.069  1.00  0.00    -0.282 NA
HETATM   33  H   UNL     1      30.351  46.798  55.673  1.00  0.00     0.126 HD
HETATM   34  H   UNL     1      29.082  46.469  56.752  1.00  0.00     0.126 HD
ENDBRANCH   5  32
BRANCH  12  35
HETATM   35  C   UNL     1      27.410  42.039  51.135  1.00  0.00    -0.005 A 
HETATM   36  C   UNL     1      27.225  42.796  49.977  1.00  0.00     0.016 A 
HETATM   37  C   UNL     1      26.359  42.342  48.974  1.00  0.00     0.037 A 
HETATM   38  C   UNL     1      25.657  41.141  49.115  1.00  0.00     0.068 A 
HETATM   39  C   UNL     1      25.819  40.395  50.278  1.00  0.00     0.037 A 
HETATM   40  C   UNL     1      26.688  40.842  51.279  1.00  0.00     0.016 A 
BRANCH  38  41
HETATM   41  O   UNL     1      24.849  40.814  48.060  1.00  0.00    -0.356 OA
HETATM   42  C   UNL     1      25.444  40.829  46.768  1.00  0.00     0.210 C 
ENDBRANCH  38  41
ENDBRANCH  12  35
TORSDOF 8
ENDMDL
MODEL 3
REMARK VINA RESULT:      -7.5      2.714      5.579
REMARK  8 active torsions:
REMARK  status: ('A' for Active; 'I' for Inactive)
REMARK    1  A    between atoms: C_2  and  O_3 
REMARK    2  A    between atoms: O_3  and  C_4 
REMARK    3  A    between atoms: C_5  and  O_6 
REMARK    4  A    between atoms: O_6  and  C_7 
REMARK       I    between atoms: C_7  and  N_8 
REMARK    5  A    between atoms: C_18  and  C_19 
REMARK    6  A    between atoms: C_23  and  N_24 
REMARK    7  A    between atoms: C_31  and  C_32 
REMARK    8  A    between atoms: C_35  and  O_36 
ROOT
HETATM    1  C   UNL     1      27.646  42.209  50.226  1.00  0.00     0.105 C 
HETATM    2  C   UNL     1      27.749  41.029  49.253  1.00  0.00     0.067 C 
HETATM    3  C   UNL     1      27.260  41.231  47.828  1.00  0.00     0.020 C 
HETATM    4  N   UNL     1      26.855  41.398  46.646  1.00  0.00    -0.096 N 
HETATM    5  C   UNL     1      28.247  39.814  49.606  1.00  0.00     0.139 C 
HETATM    6  O   UNL     1      28.687  39.550  50.910  1.00  0.00    -0.279 OA
HETATM    7  C   UNL     1      28.464  40.497  51.811  1.00  0.00     0.175 A 
HETATM    8  C   UNL     1      27.954  41.762  51.626  1.00  0.00     0.040 A 
HETATM    9  N   UNL     1      28.685  40.340  53.136  1.00  0.00    -0.256 N 
HETATM   10  H   UNL     1      29.054  39.528  53.619  1.00  0.00     0.191 HD
HETATM   11  N   UNL     1      28.318  41.409  53.853  1.00  0.00    -0.172 NA
HETATM   12  C   UNL     1      27.860  42.300  52.949  1.00  0.00     0.099 A 
ENDROOT
BRANCH   1  13
HETATM   13  C   UNL     1      26.319  42.956  50.181  1.00  0.00    -0.040 C 
HETATM   14  C   UNL     1      26.167  44.329  50.436  1.00  0.00     0.030 C 
HETATM   15  C   UNL     1      24.950  44.965  50.171  1.00  0.00     0.048 C 
HETATM   16  C   UNL     1      23.850  44.220  49.741  1.00  0.00     0.131 C 
HETATM   17 BR   UNL     1      24.850  46.850  50.365  1.00  0.00    -0.048 Br
HETATM   18  C   UNL     1      23.921  42.824  49.668  1.00  0.00     0.104 C 
HETATM   19  C   UNL     1      25.163  42.213  49.840  1.00  0.00     0.048 C 
BRANCH  16  20
HETATM   20  O   UNL     1      22.656  44.882  49.418  1.00  0.00    -0.257 OA
BRANCH  20  21
HETATM   21  C   UNL     1      22.436  44.993  48.046  1.00  0.00     0.368 C 
HETATM   22  N   UNL     1      21.088  45.048  47.727  1.00  0.00    -0.324 N 
HETATM   23  C   UNL     1      20.049  45.422  48.682  1.00  0.00     0.154 C 
HETATM   24  C   UNL     1      20.684  45.186  46.332  1.00  0.00     0.154 C 
HETATM   25  C   UNL     1      19.543  46.836  48.359  1.00  0.00     0.187 C 
HETATM   26  O   UNL     1      19.098  46.928  46.992  1.00  0.00    -0.388 OA
HETATM   27  C   UNL     1      20.164  46.604  46.078  1.00  0.00     0.187 C 
HETATM   28  O   UNL     1      23.319  45.038  47.193  1.00  0.00    -0.238 OA
ENDBRANCH  20  21
ENDBRANCH  16  20
BRANCH  18  29
HETATM   29  O   UNL     1      22.758  42.164  49.375  1.00  0.00    -0.349 OA
BRANCH  29  30
HETATM   30  C   UNL     1      22.777  41.144  48.379  1.00  0.00     0.171 C 
HETATM   31  C   UNL     1      22.312  41.670  47.032  1.00  0.00     0.034 C 
ENDBRANCH  29  30
ENDBRANCH  18  29
ENDBRANCH   1  13
BRANCH   5  32
HETATM   32  N   UNL     1      28.380  38.729  48.772  1.00  0.00    -0.282 NA
HETATM   33  H   UNL     1      28.713  37.869  49.202  1.00  0.00     0.126 HD
HETATM   34  H   UNL     1      27.564  38.591  48.181  1.00  0.00     0.126 HD
ENDBRANCH   5  32
BRANCH  12  35
HETATM   35  C   UNL     1      27.284  43.561  53.422  1.00  0.00    -0.005 A 
HETATM   36  C   UNL     1      28.022  44.744  53.485  1.00  0.00     0.016 A 
HETATM   37  C   UNL     1      27.399  45.939  53.870  1.00  0.00     0.037 A 
HETATM   38  C   UNL     1      26.044  45.969  54.211  1.00  0.00     0.068 A 
HETATM   39  C   UNL     1      25.310  44.787  54.174  1.00  0.00     0.037 A 
HETATM   40  C   UNL     1      25.926  43.594  53.783  1.00  0.00     0.016 A 
BRANCH  38  41
HETATM   41  O   UNL     1      25.562  47.200  54.565  1.00  0.00    -0.356 OA
HETATM   42  C   UNL     1      26.441  48.048  55.293  1.00  0.00     0.210 C 
ENDBRANCH  38  41
ENDBRANCH  12  35
TORSDOF 8
ENDMDL
MODEL 4
REMARK VINA RESULT:      -7.0      6.871     12.526
REMARK  8 active torsions:
REMARK  status: ('A' for Active; 'I' for Inactive)
REMARK    1  A    between atoms: C_2  and  O_3 
REMARK    2  A    between atoms: O_3  and  C_4 
REMARK    3  A    between atoms: C_5  and  O_6 
REMARK    4  A    between atoms: O_6  and  C_7 
REMARK       I    between atoms: C_7  and  N_8 
REMARK    5  A    between atoms: C_18  and  C_19 
REMARK    6  A    between atoms: C_23  and  N_24 
REMARK    7  A    between atoms: C_31  and  C_32 
REMARK    8  A    between atoms: C_35  and  O_36 
ROOT
HETATM    1  C   UNL     1      15.348  49.900  46.203  1.00  0.00     0.105 C 
HETATM    2  C   UNL     1      14.191  49.545  45.264  1.00  0.00     0.067 C 
HETATM    3  C   UNL     1      13.587  48.153  45.365  1.00  0.00     0.020 C 
HETATM    4  N   UNL     1      13.087  47.000  45.449  1.00  0.00    -0.096 N 
HETATM    5  C   UNL     1      13.687  50.409  44.343  1.00  0.00     0.139 C 
HETATM    6  O   UNL     1      14.215  51.696  44.176  1.00  0.00    -0.279 OA
HETATM    7  C   UNL     1      15.315  51.976  44.861  1.00  0.00     0.175 A 
HETATM    8  C   UNL     1      15.960  51.213  45.806  1.00  0.00     0.040 A 
HETATM    9  N   UNL     1      16.034  53.110  44.696  1.00  0.00    -0.256 N 
HETATM   10  H   UNL     1      15.845  53.888  44.074  1.00  0.00     0.191 HD
HETATM   11  N   UNL     1      17.142  53.135  45.447  1.00  0.00    -0.172 NA
HETATM   12  C   UNL     1      17.125  51.977  46.139  1.00  0.00     0.099 A 
ENDROOT
BRANCH   1  13
HETATM   13  C   UNL     1      16.420  48.824  46.328  1.00  0.00    -0.040 C 
HETATM   14  C   UNL     1      17.041  48.188  45.241  1.00  0.00     0.030 C 
HETATM   15  C   UNL     1      18.154  47.365  45.448  1.00  0.00     0.048 C 
HETATM   16  C   UNL     1      18.594  47.097  46.745  1.00  0.00     0.131 C 
HETATM   17 BR   UNL     1      19.063  46.672  43.934  1.00  0.00    -0.048 Br
HETATM   18  C   UNL     1      17.872  47.560  47.852  1.00  0.00     0.104 C 
HETATM   19  C   UNL     1      16.826  48.456  47.634  1.00  0.00     0.048 C 
BRANCH  16  20
HETATM   20  O   UNL     1      19.748  46.322  46.933  1.00  0.00    -0.257 OA
BRANCH  20  21
HETATM   21  C   UNL     1      19.526  44.952  46.804  1.00  0.00     0.368 C 
HETATM   22  N   UNL     1      20.475  44.333  46.007  1.00  0.00    -0.324 N 
HETATM   23  C   UNL     1      21.789  44.905  45.728  1.00  0.00     0.154 C 
HETATM   24  C   UNL     1      20.400  42.893  45.785  1.00  0.00     0.154 C 
HETATM   25  C   UNL     1      22.859  44.136  46.519  1.00  0.00     0.187 C 
HETATM   26  O   UNL     1      22.799  42.725  46.238  1.00  0.00    -0.388 OA
HETATM   27  C   UNL     1      21.506  42.185  46.575  1.00  0.00     0.187 C 
HETATM   28  O   UNL     1      18.598  44.338  47.325  1.00  0.00    -0.238 OA
ENDBRANCH  20  21
ENDBRANCH  16  20
BRANCH  18  29
HETATM   29  O   UNL     1      18.292  47.133  49.082  1.00  0.00    -0.349 OA
BRANCH  29  30
HETATM   30  C   UNL     1      19.272  47.900  49.780  1.00  0.00     0.171 C 
HETATM   31  C   UNL     1      18.642  48.749  50.872  1.00  0.00     0.034 C 
ENDBRANCH  29  30
ENDBRANCH  18  29
ENDBRANCH   1  13
BRANCH   5  32
HETATM   32  N   UNL     1      12.639  50.151  43.489  1.00  0.00    -0.282 NA
HETATM   33  H   UNL     1      12.328  50.928  42.911  1.00  0.00     0.126 HD
HETATM   34  H   UNL     1      12.769  49.289  42.966  1.00  0.00     0.126 HD
ENDBRANCH   5  32
BRANCH  12  35
HETATM   35  C   UNL     1      18.264  51.644  46.997  1.00  0.00    -0.005 A 
HETATM   36  C   UNL     1      19.297  50.805  46.578  1.00  0.00     0.016 A 
HETATM   37  C   UNL     1      20.402  50.584  47.410  1.00  0.00     0.037 A 
HETATM   38  C   UNL     1      20.487  51.179  48.672  1.00  0.00     0.068 A 
HETATM   39  C   UNL     1      19.448  51.997  49.105  1.00  0.00     0.037 A 
HETATM   40  C   UNL     1      18.347  52.226  48.274  1.00  0.00     0.016 A 
BRANCH  38  41
HETATM   41  O   UNL     1      21.620  50.882  49.379  1.00  0.00    -0.356 OA
HETATM   42  C   UNL     1      22.820  50.725  48.632  1.00  0.00     0.210 C 
ENDBRANCH  38  41
ENDBRANCH  12  35
TORSDOF 8
ENDMDL
MODEL 5
REMARK VINA RESULT:      -6.8      8.484     12.235
REMARK  8 active torsions:
REMARK  status: ('A' for Active; 'I' for Inactive)
REMARK    1  A    between atoms: C_2  and  O_3 
REMARK    2  A    between atoms: O_3  and  C_4 
REMARK    3  A    between atoms: C_5  and  O_6 
REMARK    4  A    between atoms: O_6  and  C_7 
REMARK       I    between atoms: C_7  and  N_8 
REMARK    5  A    between atoms: C_18  and  C_19 
REMARK    6  A    between atoms: C_23  and  N_24 
REMARK    7  A    between atoms: C_31  and  C_32 
REMARK    8  A    between atoms: C_35  and  O_36 
ROOT
HETATM    1  C   UNL     1      19.362  51.149  47.616  1.00  0.00     0.105 C 
HETATM    2  C   UNL     1      20.488  50.827  48.604  1.00  0.00     0.067 C 
HETATM    3  C   UNL     1      21.699  50.066  48.088  1.00  0.00     0.020 C 
HETATM    4  N   UNL     1      22.702  49.435  47.660  1.00  0.00    -0.096 N 
HETATM    5  C   UNL     1      20.453  51.182  49.916  1.00  0.00     0.139 C 
HETATM    6  O   UNL     1      19.355  51.859  50.465  1.00  0.00    -0.279 OA
HETATM    7  C   UNL     1      18.300  52.010  49.676  1.00  0.00     0.175 A 
HETATM    8  C   UNL     1      18.165  51.690  48.345  1.00  0.00     0.040 A 
HETATM    9  N   UNL     1      17.112  52.499  50.098  1.00  0.00    -0.256 N 
HETATM   10  H   UNL     1      16.861  52.827  51.024  1.00  0.00     0.191 HD
HETATM   11  N   UNL     1      16.178  52.490  49.138  1.00  0.00    -0.172 NA
HETATM   12  C   UNL     1      16.798  51.993  48.048  1.00  0.00     0.099 A 
ENDROOT
BRANCH   1  13
HETATM   13  C   UNL     1      18.960  49.991  46.711  1.00  0.00    -0.040 C 
HETATM   14  C   UNL     1      18.749  48.673  47.148  1.00  0.00     0.030 C 
HETATM   15  C   UNL     1      18.185  47.726  46.286  1.00  0.00     0.048 C 
HETATM   16  C   UNL     1      17.918  48.061  44.957  1.00  0.00     0.131 C 
HETATM   17 BR   UNL     1      17.757  46.012  46.977  1.00  0.00    -0.048 Br
HETATM   18  C   UNL     1      18.302  49.307  44.446  1.00  0.00     0.104 C 
HETATM   19  C   UNL     1      18.772  50.273  45.336  1.00  0.00     0.048 C 
BRANCH  16  20
HETATM   20  O   UNL     1      17.295  47.121  44.123  1.00  0.00    -0.257 OA
BRANCH  20  21
HETATM   21  C   UNL     1      15.910  47.272  44.054  1.00  0.00     0.368 C 
HETATM   22  N   UNL     1      15.463  47.482  42.759  1.00  0.00    -0.324 N 
HETATM   23  C   UNL     1      16.235  47.124  41.573  1.00  0.00     0.154 C 
HETATM   24  C   UNL     1      14.035  47.639  42.508  1.00  0.00     0.154 C 
HETATM   25  C   UNL     1      15.617  45.879  40.918  1.00  0.00     0.187 C 
HETATM   26  O   UNL     1      14.221  46.083  40.630  1.00  0.00    -0.388 OA
HETATM   27  C   UNL     1      13.483  46.381  41.831  1.00  0.00     0.187 C 
HETATM   28  O   UNL     1      15.149  47.230  45.017  1.00  0.00    -0.238 OA
ENDBRANCH  20  21
ENDBRANCH  16  20
BRANCH  18  29
HETATM   29  O   UNL     1      18.132  49.499  43.102  1.00  0.00    -0.349 OA
BRANCH  29  30
HETATM   30  C   UNL     1      17.598  50.740  42.645  1.00  0.00     0.171 C 
HETATM   31  C   UNL     1      18.623  51.529  41.849  1.00  0.00     0.034 C 
ENDBRANCH  29  30
ENDBRANCH  18  29
ENDBRANCH   1  13
BRANCH   5  32
HETATM   32  N   UNL     1      21.441  50.938  50.841  1.00  0.00    -0.282 NA
HETATM   33  H   UNL     1      21.491  49.990  51.207  1.00  0.00     0.126 HD
HETATM   34  H   UNL     1      22.345  51.302  50.548  1.00  0.00     0.126 HD
ENDBRANCH   5  32
BRANCH  12  35
HETATM   35  C   UNL     1      16.018  51.760  46.830  1.00  0.00    -0.005 A 
HETATM   36  C   UNL     1      15.299  50.582  46.616  1.00  0.00     0.016 A 
HETATM   37  C   UNL     1      14.506  50.444  45.470  1.00  0.00     0.037 A 
HETATM   38  C   UNL     1      14.430  51.464  44.517  1.00  0.00     0.068 A 
HETATM   39  C   UNL     1      15.164  52.630  44.714  1.00  0.00     0.037 A 
HETATM   40  C   UNL     1      15.951  52.774  45.860  1.00  0.00     0.016 A 
BRANCH  38  41
HETATM   41  O   UNL     1      13.617  51.201  43.448  1.00  0.00    -0.356 OA
HETATM   42  C   UNL     1      12.291  50.777  43.740  1.00  0.00     0.210 C 
ENDBRANCH  38  41
ENDBRANCH  12  35
TORSDOF 8
ENDMDL
MODEL 6
REMARK VINA RESULT:      -6.8      8.233     12.187
REMARK  8 active torsions:
REMARK  status: ('A' for Active; 'I' for Inactive)
REMARK    1  A    between atoms: C_2  and  O_3 
REMARK    2  A    between atoms: O_3  and  C_4 
REMARK    3  A    between atoms: C_5  and  O_6 
REMARK    4  A    between atoms: O_6  and  C_7 
REMARK       I    between atoms: C_7  and  N_8 
REMARK    5  A    between atoms: C_18  and  C_19 
REMARK    6  A    between atoms: C_23  and  N_24 
REMARK    7  A    between atoms: C_31  and  C_32 
REMARK    8  A    between atoms: C_35  and  O_36 
ROOT
HETATM    1  C   UNL     1      18.971  51.244  47.451  1.00  0.00     0.105 C 
HETATM    2  C   UNL     1      20.067  50.858  48.450  1.00  0.00     0.067 C 
HETATM    3  C   UNL     1      21.232  50.020  47.948  1.00  0.00     0.020 C 
HETATM    4  N   UNL     1      22.197  49.325  47.532  1.00  0.00    -0.096 N 
HETATM    5  C   UNL     1      20.042  51.221  49.760  1.00  0.00     0.139 C 
HETATM    6  O   UNL     1      18.984  51.968  50.296  1.00  0.00    -0.279 OA
HETATM    7  C   UNL     1      17.948  52.180  49.497  1.00  0.00     0.175 A 
HETATM    8  C   UNL     1      17.805  51.862  48.166  1.00  0.00     0.040 A 
HETATM    9  N   UNL     1      16.789  52.744  49.906  1.00  0.00    -0.256 N 
HETATM   10  H   UNL     1      16.550  53.092  50.829  1.00  0.00     0.191 HD
HETATM   11  N   UNL     1      15.864  52.789  48.938  1.00  0.00    -0.172 NA
HETATM   12  C   UNL     1      16.462  52.249  47.855  1.00  0.00     0.099 A 
ENDROOT
BRANCH   1  13
HETATM   13  C   UNL     1      18.506  50.109  46.547  1.00  0.00    -0.040 C 
HETATM   14  C   UNL     1      18.552  50.138  45.144  1.00  0.00     0.030 C 
HETATM   15  C   UNL     1      18.298  48.976  44.406  1.00  0.00     0.048 C 
HETATM   16  C   UNL     1      17.904  47.806  45.058  1.00  0.00     0.131 C 
HETATM   17 BR   UNL     1      18.545  49.023  42.526  1.00  0.00    -0.048 Br
HETATM   18  C   UNL     1      17.661  47.807  46.437  1.00  0.00     0.104 C 
HETATM   19  C   UNL     1      18.011  48.939  47.172  1.00  0.00     0.048 C 
BRANCH  16  20
HETATM   20  O   UNL     1      17.714  46.634  44.311  1.00  0.00    -0.257 OA
BRANCH  20  21
HETATM   21  C   UNL     1      18.782  45.741  44.399  1.00  0.00     0.368 C 
HETATM   22  N   UNL     1      18.380  44.467  44.770  1.00  0.00    -0.324 N 
HETATM   23  C   UNL     1      17.010  43.982  44.627  1.00  0.00     0.154 C 
HETATM   24  C   UNL     1      19.373  43.405  44.887  1.00  0.00     0.154 C 
HETATM   25  C   UNL     1      16.941  42.986  43.459  1.00  0.00     0.187 C 
HETATM   26  O   UNL     1      17.892  41.919  43.629  1.00  0.00    -0.388 OA
HETATM   27  C   UNL     1      19.237  42.432  43.713  1.00  0.00     0.187 C 
HETATM   28  O   UNL     1      19.956  46.025  44.178  1.00  0.00    -0.238 OA
ENDBRANCH  20  21
ENDBRANCH  16  20
BRANCH  18  29
HETATM   29  O   UNL     1      17.141  46.658  46.970  1.00  0.00    -0.349 OA
BRANCH  29  30
HETATM   30  C   UNL     1      17.603  46.221  48.247  1.00  0.00     0.171 C 
HETATM   31  C   UNL     1      18.897  45.433  48.133  1.00  0.00     0.034 C 
ENDBRANCH  29  30
ENDBRANCH  18  29
ENDBRANCH   1  13
BRANCH   5  32
HETATM   32  N   UNL     1      21.005  50.920  50.695  1.00  0.00    -0.282 NA
HETATM   33  H   UNL     1      20.772  50.188  51.362  1.00  0.00     0.126 HD
HETATM   34  H   UNL     1      21.926  50.804  50.279  1.00  0.00     0.126 HD
ENDBRANCH   5  32
BRANCH  12  35
HETATM   35  C   UNL     1      15.679  52.059  46.632  1.00  0.00    -0.005 A 
HETATM   36  C   UNL     1      15.546  53.057  45.665  1.00  0.00     0.016 A 
HETATM   37  C   UNL     1      14.851  52.794  44.477  1.00  0.00     0.037 A 
HETATM   38  C   UNL     1      14.268  51.546  44.243  1.00  0.00     0.068 A 
HETATM   39  C   UNL     1      14.377  50.555  45.215  1.00  0.00     0.037 A 
HETATM   40  C   UNL     1      15.076  50.811  46.398  1.00  0.00     0.016 A 
BRANCH  38  41
HETATM   41  O   UNL     1      13.623  51.422  43.043  1.00  0.00    -0.356 OA
HETATM   42  C   UNL     1      13.273  52.629  42.376  1.00  0.00     0.210 C 
ENDBRANCH  38  41
ENDBRANCH  12  35
TORSDOF 8
ENDMDL
MODEL 7
REMARK VINA RESULT:      -6.7     11.675     14.180
REMARK  8 active torsions:
REMARK  status: ('A' for Active; 'I' for Inactive)
REMARK    1  A    between atoms: C_2  and  O_3 
REMARK    2  A    between atoms: O_3  and  C_4 
REMARK    3  A    between atoms: C_5  and  O_6 
REMARK    4  A    between atoms: O_6  and  C_7 
REMARK       I    between atoms: C_7  and  N_8 
REMARK    5  A    between atoms: C_18  and  C_19 
REMARK    6  A    between atoms: C_23  and  N_24 
REMARK    7  A    between atoms: C_31  and  C_32 
REMARK    8  A    between atoms: C_35  and  O_36 
ROOT
HETATM    1  C   UNL     1      22.446  31.697  48.014  1.00  0.00     0.105 C 
HETATM    2  C   UNL     1      23.054  30.292  48.070  1.00  0.00     0.067 C 
HETATM    3  C   UNL     1      23.376  29.598  46.756  1.00  0.00     0.020 C 
HETATM    4  N   UNL     1      23.642  29.023  45.667  1.00  0.00    -0.096 N 
HETATM    5  C   UNL     1      23.310  29.637  49.233  1.00  0.00     0.139 C 
HETATM    6  O   UNL     1      23.011  30.205  50.479  1.00  0.00    -0.279 OA
HETATM    7  C   UNL     1      22.340  31.348  50.460  1.00  0.00     0.175 A 
HETATM    8  C   UNL     1      21.985  32.123  49.379  1.00  0.00     0.040 A 
HETATM    9  N   UNL     1      21.841  31.944  51.567  1.00  0.00    -0.256 N 
HETATM   10  H   UNL     1      21.915  31.640  52.531  1.00  0.00     0.191 HD
HETATM   11  N   UNL     1      21.141  33.052  51.288  1.00  0.00    -0.172 NA
HETATM   12  C   UNL     1      21.210  33.184  49.947  1.00  0.00     0.099 A 
ENDROOT
BRANCH   1  13
HETATM   13  C   UNL     1      21.327  31.866  46.994  1.00  0.00    -0.040 C 
HETATM   14  C   UNL     1      20.028  31.352  47.142  1.00  0.00     0.030 C 
HETATM   15  C   UNL     1      19.015  31.731  46.255  1.00  0.00     0.048 C 
HETATM   16  C   UNL     1      19.311  32.546  45.161  1.00  0.00     0.131 C 
HETATM   17 BR   UNL     1      17.242  31.150  46.601  1.00  0.00    -0.048 Br
HETATM   18  C   UNL     1      20.634  32.910  44.882  1.00  0.00     0.104 C 
HETATM   19  C   UNL     1      21.618  32.609  45.824  1.00  0.00     0.048 C 
BRANCH  16  20
HETATM   20  O   UNL     1      18.273  32.969  44.317  1.00  0.00    -0.257 OA
BRANCH  20  21
HETATM   21  C   UNL     1      17.957  34.319  44.458  1.00  0.00     0.368 C 
HETATM   22  N   UNL     1      17.907  34.983  43.243  1.00  0.00    -0.324 N 
HETATM   23  C   UNL     1      17.730  34.305  41.962  1.00  0.00     0.154 C 
HETATM   24  C   UNL     1      17.569  36.402  43.211  1.00  0.00     0.154 C 
HETATM   25  C   UNL     1      16.305  34.554  41.446  1.00  0.00     0.187 C 
HETATM   26  O   UNL     1      16.017  35.963  41.372  1.00  0.00    -0.388 OA
HETATM   27  C   UNL     1      16.150  36.587  42.663  1.00  0.00     0.187 C 
HETATM   28  O   UNL     1      17.743  34.883  45.529  1.00  0.00    -0.238 OA
ENDBRANCH  20  21
ENDBRANCH  16  20
BRANCH  18  29
HETATM   29  O   UNL     1      20.852  33.590  43.714  1.00  0.00    -0.349 OA
BRANCH  29  30
HETATM   30  C   UNL     1      21.877  34.581  43.675  1.00  0.00     0.171 C 
HETATM   31  C   UNL     1      21.348  35.948  44.075  1.00  0.00     0.034 C 
ENDBRANCH  29  30
ENDBRANCH  18  29
ENDBRANCH   1  13
BRANCH   5  32
HETATM   32  N   UNL     1      23.872  28.385  49.343  1.00  0.00    -0.282 NA
HETATM   33  H   UNL     1      24.753  28.243  48.855  1.00  0.00     0.126 HD
HETATM   34  H   UNL     1      23.887  28.051  50.303  1.00  0.00     0.126 HD
ENDBRANCH   5  32
BRANCH  12  35
HETATM   35  C   UNL     1      20.457  34.260  49.299  1.00  0.00    -0.005 A 
HETATM   36  C   UNL     1      19.096  34.466  49.531  1.00  0.00     0.016 A 
HETATM   37  C   UNL     1      18.442  35.558  48.946  1.00  0.00     0.037 A 
HETATM   38  C   UNL     1      19.127  36.448  48.114  1.00  0.00     0.068 A 
HETATM   39  C   UNL     1      20.479  36.234  47.860  1.00  0.00     0.037 A 
HETATM   40  C   UNL     1      21.136  35.148  48.448  1.00  0.00     0.016 A 
BRANCH  38  41
HETATM   41  O   UNL     1      18.371  37.472  47.612  1.00  0.00    -0.356 OA
HETATM   42  C   UNL     1      16.997  37.495  47.979  1.00  0.00     0.210 C 
ENDBRANCH  38  41
ENDBRANCH  12  35
TORSDOF 8
ENDMDL
MODEL 8
REMARK VINA RESULT:      -6.7      8.303     11.967
REMARK  8 active torsions:
REMARK  status: ('A' for Active; 'I' for Inactive)
REMARK    1  A    between atoms: C_2  and  O_3 
REMARK    2  A    between atoms: O_3  and  C_4 
REMARK    3  A    between atoms: C_5  and  O_6 
REMARK    4  A    between atoms: O_6  and  C_7 
REMARK       I    between atoms: C_7  and  N_8 
REMARK    5  A    between atoms: C_18  and  C_19 
REMARK    6  A    between atoms: C_23  and  N_24 
REMARK    7  A    between atoms: C_31  and  C_32 
REMARK    8  A    between atoms: C_35  and  O_36 
ROOT
HETATM    1  C   UNL     1      19.384  51.074  47.648  1.00  0.00     0.105 C 
HETATM    2  C   UNL     1      20.519  50.770  48.631  1.00  0.00     0.067 C 
HETATM    3  C   UNL     1      21.705  49.962  48.128  1.00  0.00     0.020 C 
HETATM    4  N   UNL     1      22.688  49.293  47.712  1.00  0.00    -0.096 N 
HETATM    5  C   UNL     1      20.512  51.179  49.927  1.00  0.00     0.139 C 
HETATM    6  O   UNL     1      19.437  51.901  50.465  1.00  0.00    -0.279 OA
HETATM    7  C   UNL     1      18.373  52.042  49.686  1.00  0.00     0.175 A 
HETATM    8  C   UNL     1      18.210  51.670  48.372  1.00  0.00     0.040 A 
HETATM    9  N   UNL     1      17.202  52.573  50.105  1.00  0.00    -0.256 N 
HETATM   10  H   UNL     1      16.972  52.944  51.020  1.00  0.00     0.191 HD
HETATM   11  N   UNL     1      16.253  52.544  49.161  1.00  0.00    -0.172 NA
HETATM   12  C   UNL     1      16.845  51.990  48.083  1.00  0.00     0.099 A 
ENDROOT
BRANCH   1  13
HETATM   13  C   UNL     1      18.944  49.889  46.797  1.00  0.00    -0.040 C 
HETATM   14  C   UNL     1      18.679  48.603  47.297  1.00  0.00     0.030 C 
HETATM   15  C   UNL     1      18.085  47.637  46.478  1.00  0.00     0.048 C 
HETATM   16  C   UNL     1      17.840  47.916  45.132  1.00  0.00     0.131 C 
HETATM   17 BR   UNL     1      17.587  45.976  47.249  1.00  0.00    -0.048 Br
HETATM   18  C   UNL     1      18.275  49.119  44.564  1.00  0.00     0.104 C 
HETATM   19  C   UNL     1      18.776  50.109  45.409  1.00  0.00     0.048 C 
BRANCH  16  20
HETATM   20  O   UNL     1      17.186  46.960  44.340  1.00  0.00    -0.257 OA
BRANCH  20  21
HETATM   21  C   UNL     1      18.030  45.950  43.878  1.00  0.00     0.368 C 
HETATM   22  N   UNL     1      17.445  44.696  43.949  1.00  0.00    -0.324 N 
HETATM   23  C   UNL     1      16.003  44.484  44.033  1.00  0.00     0.154 C 
HETATM   24  C   UNL     1      18.187  43.529  43.484  1.00  0.00     0.154 C 
HETATM   25  C   UNL     1      15.484  43.961  42.684  1.00  0.00     0.187 C 
HETATM   26  O   UNL     1      16.196  42.778  42.277  1.00  0.00    -0.388 OA
HETATM   27  C   UNL     1      17.608  43.039  42.153  1.00  0.00     0.187 C 
HETATM   28  O   UNL     1      19.169  46.126  43.452  1.00  0.00    -0.238 OA
ENDBRANCH  20  21
ENDBRANCH  16  20
BRANCH  18  29
HETATM   29  O   UNL     1      18.121  49.250  43.210  1.00  0.00    -0.349 OA
BRANCH  29  30
HETATM   30  C   UNL     1      17.845  50.541  42.670  1.00  0.00     0.171 C 
HETATM   31  C   UNL     1      19.039  51.096  41.912  1.00  0.00     0.034 C 
ENDBRANCH  29  30
ENDBRANCH  18  29
ENDBRANCH   1  13
BRANCH   5  32
HETATM   32  N   UNL     1      21.510  50.952  50.847  1.00  0.00    -0.282 NA
HETATM   33  H   UNL     1      21.255  50.395  51.659  1.00  0.00     0.126 HD
HETATM   34  H   UNL     1      22.377  50.650  50.410  1.00  0.00     0.126 HD
ENDBRANCH   5  32
BRANCH  12  35
HETATM   35  C   UNL     1      16.041  51.723  46.888  1.00  0.00    -0.005 A 
HETATM   36  C   UNL     1      15.949  52.629  45.830  1.00  0.00     0.016 A 
HETATM   37  C   UNL     1      15.229  52.288  44.677  1.00  0.00     0.037 A 
HETATM   38  C   UNL     1      14.581  51.055  44.568  1.00  0.00     0.068 A 
HETATM   39  C   UNL     1      14.648  50.159  45.630  1.00  0.00     0.037 A 
HETATM   40  C   UNL     1      15.372  50.492  46.780  1.00  0.00     0.016 A 
BRANCH  38  41
HETATM   41  O   UNL     1      13.917  50.850  43.389  1.00  0.00    -0.356 OA
HETATM   42  C   UNL     1      14.101  51.826  42.371  1.00  0.00     0.210 C 
ENDBRANCH  38  41
ENDBRANCH  12  35
TORSDOF 8
ENDMDL
MODEL 9
REMARK VINA RESULT:      -6.6      3.655      7.266
REMARK  8 active torsions:
REMARK  status: ('A' for Active; 'I' for Inactive)
REMARK    1  A    between atoms: C_2  and  O_3 
REMARK    2  A    between atoms: O_3  and  C_4 
REMARK    3  A    between atoms: C_5  and  O_6 
REMARK    4  A    between atoms: O_6  and  C_7 
REMARK       I    between atoms: C_7  and  N_8 
REMARK    5  A    between atoms: C_18  and  C_19 
REMARK    6  A    between atoms: C_23  and  N_24 
REMARK    7  A    between atoms: C_31  and  C_32 
REMARK    8  A    between atoms: C_35  and  O_36 
ROOT
HETATM    1  C   UNL     1      23.133  43.827  46.806  1.00  0.00     0.105 C 
HETATM    2  C   UNL     1      22.187  43.120  45.828  1.00  0.00     0.067 C 
HETATM    3  C   UNL     1      21.319  43.980  44.924  1.00  0.00     0.020 C 
HETATM    4  N   UNL     1      20.598  44.693  44.175  1.00  0.00    -0.096 N 
HETATM    5  C   UNL     1      22.083  41.768  45.738  1.00  0.00     0.139 C 
HETATM    6  O   UNL     1      22.832  40.916  46.561  1.00  0.00    -0.279 OA
HETATM    7  C   UNL     1      23.538  41.495  47.523  1.00  0.00     0.175 A 
HETATM    8  C   UNL     1      23.730  42.836  47.764  1.00  0.00     0.040 A 
HETATM    9  N   UNL     1      24.187  40.812  48.493  1.00  0.00    -0.256 N 
HETATM   10  H   UNL     1      24.250  39.808  48.619  1.00  0.00     0.191 HD
HETATM   11  N   UNL     1      24.771  41.616  49.391  1.00  0.00    -0.172 NA
HETATM   12  C   UNL     1      24.502  42.869  48.969  1.00  0.00     0.099 A 
ENDROOT
BRANCH   1  13
HETATM   13  C   UNL     1      22.511  44.996  47.560  1.00  0.00    -0.040 C 
HETATM   14  C   UNL     1      23.204  46.154  47.947  1.00  0.00     0.030 C 
HETATM   15  C   UNL     1      22.506  47.258  48.450  1.00  0.00     0.048 C 
HETATM   16  C   UNL     1      21.128  47.178  48.660  1.00  0.00     0.131 C 
HETATM   17 BR   UNL     1      23.466  48.858  48.792  1.00  0.00    -0.048 Br
HETATM   18  C   UNL     1      20.448  45.970  48.467  1.00  0.00     0.104 C 
HETATM   19  C   UNL     1      21.133  44.910  47.874  1.00  0.00     0.048 C 
BRANCH  16  20
HETATM   20  O   UNL     1      20.434  48.313  49.105  1.00  0.00    -0.257 OA
BRANCH  20  21
HETATM   21  C   UNL     1      19.764  48.989  48.086  1.00  0.00     0.368 C 
HETATM   22  N   UNL     1      18.754  49.808  48.566  1.00  0.00    -0.324 N 
HETATM   23  C   UNL     1      18.692  50.284  49.945  1.00  0.00     0.154 C 
HETATM   24  C   UNL     1      17.967  50.604  47.631  1.00  0.00     0.154 C 
HETATM   25  C   UNL     1      19.066  51.774  49.987  1.00  0.00     0.187 C 
HETATM   26  O   UNL     1      18.236  52.544  49.097  1.00  0.00    -0.388 OA
HETATM   27  C   UNL     1      18.364  52.079  47.739  1.00  0.00     0.187 C 
HETATM   28  O   UNL     1      20.019  48.887  46.888  1.00  0.00    -0.238 OA
ENDBRANCH  20  21
ENDBRANCH  16  20
BRANCH  18  29
HETATM   29  O   UNL     1      19.129  45.943  48.831  1.00  0.00    -0.349 OA
BRANCH  29  30
HETATM   30  C   UNL     1      18.185  45.327  47.956  1.00  0.00     0.171 C 
HETATM   31  C   UNL     1      17.544  46.341  47.024  1.00  0.00     0.034 C 
ENDBRANCH  29  30
ENDBRANCH  18  29
ENDBRANCH   1  13
BRANCH   5  32
HETATM   32  N   UNL     1      21.268  41.082  44.868  1.00  0.00    -0.282 NA
HETATM   33  H   UNL     1      21.150  40.088  45.050  1.00  0.00     0.126 HD
HETATM   34  H   UNL     1      20.389  41.565  44.698  1.00  0.00     0.126 HD
ENDBRANCH   5  32
BRANCH  12  35
HETATM   35  C   UNL     1      24.924  44.003  49.795  1.00  0.00    -0.005 A 
HETATM   36  C   UNL     1      25.967  44.853  49.424  1.00  0.00     0.016 A 
HETATM   37  C   UNL     1      26.277  45.969  50.212  1.00  0.00     0.037 A 
HETATM   38  C   UNL     1      25.566  46.244  51.384  1.00  0.00     0.068 A 
HETATM   39  C   UNL     1      24.542  45.386  51.772  1.00  0.00     0.037 A 
HETATM   40  C   UNL     1      24.225  44.275  50.983  1.00  0.00     0.016 A 
BRANCH  38  41
HETATM   41  O   UNL     1      25.969  47.366  52.057  1.00  0.00    -0.356 OA
HETATM   42  C   UNL     1      25.913  47.317  53.477  1.00  0.00     0.210 C 
ENDBRANCH  38  41
ENDBRANCH  12  35
TORSDOF 8
ENDMDL
MODEL 10
REMARK VINA RESULT:      -6.3      8.711     13.068
REMARK  8 active torsions:
REMARK  status: ('A' for Active; 'I' for Inactive)
REMARK    1  A    between atoms: C_2  and  O_3 
REMARK    2  A    between atoms: O_3  and  C_4 
REMARK    3  A    between atoms: C_5  and  O_6 
REMARK    4  A    between atoms: O_6  and  C_7 
REMARK       I    between atoms: C_7  and  N_8 
REMARK    5  A    between atoms: C_18  and  C_19 
REMARK    6  A    between atoms: C_23  and  N_24 
REMARK    7  A    between atoms: C_31  and  C_32 
REMARK    8  A    between atoms: C_35  and  O_36 
ROOT
HETATM    1  C   UNL     1      18.697  48.812  46.368  1.00  0.00     0.105 C 
HETATM    2  C   UNL     1      18.952  47.571  45.505  1.00  0.00     0.067 C 
HETATM    3  C   UNL     1      18.741  47.686  44.004  1.00  0.00     0.020 C 
HETATM    4  N   UNL     1      18.566  47.781  42.760  1.00  0.00    -0.096 N 
HETATM    5  C   UNL     1      19.349  46.376  46.018  1.00  0.00     0.139 C 
HETATM    6  O   UNL     1      19.534  46.192  47.395  1.00  0.00    -0.279 OA
HETATM    7  C   UNL     1      19.168  47.197  48.179  1.00  0.00     0.175 A 
HETATM    8  C   UNL     1      18.729  48.452  47.825  1.00  0.00     0.040 A 
HETATM    9  N   UNL     1      19.136  47.122  49.529  1.00  0.00    -0.256 N 
HETATM   10  H   UNL     1      19.390  46.339  50.121  1.00  0.00     0.191 HD
HETATM   11  N   UNL     1      18.666  48.239  50.099  1.00  0.00    -0.172 NA
HETATM   12  C   UNL     1      18.404  49.075  49.073  1.00  0.00     0.099 A 
ENDROOT
BRANCH   1  13
HETATM   13  C   UNL     1      17.418  49.568  46.030  1.00  0.00    -0.040 C 
HETATM   14  C   UNL     1      17.367  50.920  45.654  1.00  0.00     0.030 C 
HETATM   15  C   UNL     1      16.178  51.472  45.165  1.00  0.00     0.048 C 
HETATM   16  C   UNL     1      15.011  50.706  45.139  1.00  0.00     0.131 C 
HETATM   17 BR   UNL     1      16.206  53.251  44.506  1.00  0.00    -0.048 Br
HETATM   18  C   UNL     1      14.991  49.420  45.691  1.00  0.00     0.104 C 
HETATM   19  C   UNL     1      16.200  48.848  46.084  1.00  0.00     0.048 C 
BRANCH  16  20
HETATM   20  O   UNL     1      13.842  51.253  44.588  1.00  0.00    -0.257 OA
BRANCH  20  21
HETATM   21  C   UNL     1      13.769  51.124  43.201  1.00  0.00     0.368 C 
HETATM   22  N   UNL     1      12.862  52.005  42.633  1.00  0.00    -0.324 N 
HETATM   23  C   UNL     1      12.397  53.220  43.296  1.00  0.00     0.154 C 
HETATM   24  C   UNL     1      12.679  52.015  41.186  1.00  0.00     0.154 C 
HETATM   25  C   UNL     1      13.048  54.444  42.633  1.00  0.00     0.187 C 
HETATM   26  O   UNL     1      12.804  54.458  41.214  1.00  0.00    -0.388 OA
HETATM   27  C   UNL     1      13.324  53.269  40.587  1.00  0.00     0.187 C 
HETATM   28  O   UNL     1      14.423  50.327  42.534  1.00  0.00    -0.238 OA
ENDBRANCH  20  21
ENDBRANCH  16  20
BRANCH  18  29
HETATM   29  O   UNL     1      13.774  48.796  45.752  1.00  0.00    -0.349 OA
BRANCH  29  30
HETATM   30  C   UNL     1      13.603  47.553  45.075  1.00  0.00     0.171 C 
HETATM   31  C   UNL     1      12.589  47.666  43.948  1.00  0.00     0.034 C 
ENDBRANCH  29  30
ENDBRANCH  18  29
ENDBRANCH   1  13
BRANCH   5  32
HETATM   32  N   UNL     1      19.611  45.237  45.292  1.00  0.00    -0.282 NA
HETATM   33  H   UNL     1      19.563  45.328  44.280  1.00  0.00     0.126 HD
HETATM   34  H   UNL     1      20.449  44.758  45.612  1.00  0.00     0.126 HD
ENDBRANCH   5  32
BRANCH  12  35
HETATM   35  C   UNL     1      17.778  50.369  49.352  1.00  0.00    -0.005 A 
HETATM   36  C   UNL     1      18.518  51.499  49.704  1.00  0.00     0.016 A 
HETATM   37  C   UNL     1      17.876  52.731  49.882  1.00  0.00     0.037 A 
HETATM   38  C   UNL     1      16.492  52.852  49.729  1.00  0.00     0.068 A 
HETATM   39  C   UNL     1      15.746  51.724  49.402  1.00  0.00     0.037 A 
HETATM   40  C   UNL     1      16.385  50.494  49.216  1.00  0.00     0.016 A 
BRANCH  38  41
HETATM   41  O   UNL     1      15.994  54.111  49.928  1.00  0.00    -0.356 OA
HETATM   42  C   UNL     1      14.975  54.249  50.912  1.00  0.00     0.210 C 
ENDBRANCH  38  41
ENDBRANCH  12  35
TORSDOF 8
ENDMDL
