MODEL 1
REMARK VINA RESULT:      -9.2      0.000      0.000
REMARK  5 active torsions:
REMARK  status: ('A' for Active; 'I' for Inactive)
REMARK    1  A    between atoms: C_8  and  N_9 
REMARK    2  A    between atoms: N_9  and  C_10 
REMARK    3  A    between atoms: C_10  and  C_11 
REMARK       I    between atoms: C_11  and  N_12 
REMARK    4  A    between atoms: N_12  and  N_13 
REMARK    5  A    between atoms: C_14  and  C_15 
ROOT
HETATM    1  C   UNL     1      25.640  45.344  52.869  1.00  0.00     0.250 C 
HETATM    2  N   UNL     1      26.299  46.524  52.521  1.00  0.00    -0.246 N 
HETATM    3  O   UNL     1      24.517  45.022  52.484  1.00  0.00    -0.270 OA
HETATM    4  H   UNL     1      27.305  46.572  52.652  1.00  0.00     0.192 HD
ENDROOT
BRANCH   2   5
HETATM    5  N   UNL     1      25.842  47.453  51.616  1.00  0.00    -0.184 NA
HETATM    6  C   UNL     1      26.332  47.446  50.416  1.00  0.00     0.152 C 
BRANCH   6   7
HETATM    7  C   UNL     1      25.890  48.449  49.465  1.00  0.00     0.011 A 
HETATM    8  C   UNL     1      24.538  48.757  49.102  1.00  0.00     0.004 A 
HETATM    9  C   UNL     1      24.584  49.785  48.158  1.00  0.00     0.043 A 
HETATM   10  C   UNL     1      23.276  48.257  49.487  1.00  0.00     0.014 A 
HETATM   11  C   UNL     1      23.433  50.340  47.583  1.00  0.00     0.030 A 
HETATM   12  N   UNL     1      25.910  50.088  47.951  1.00  0.00    -0.364 N 
HETATM   13  C   UNL     1      22.196  49.826  47.984  1.00  0.00     0.002 A 
HETATM   14  C   UNL     1      22.116  48.800  48.921  1.00  0.00     0.001 A 
HETATM   15  H   UNL     1      26.242  50.794  47.311  1.00  0.00     0.165 HD
HETATM   16  C   UNL     1      26.704  49.292  48.731  1.00  0.00     0.102 A 
ENDBRANCH   6   7
ENDBRANCH   2   5
BRANCH   1  17
HETATM   17  C   UNL     1      26.474  44.451  53.802  1.00  0.00     0.197 C 
BRANCH  17  18
HETATM   18  N   UNL     1      27.912  44.586  53.503  1.00  0.00    -0.284 NA
HETATM   19  H   UNL     1      28.069  45.262  52.758  1.00  0.00     0.128 HD
BRANCH  18  20
HETATM   20  C   UNL     1      28.686  44.883  54.644  1.00  0.00     0.016 A 
HETATM   21  C   UNL     1      29.800  44.093  55.009  1.00  0.00    -0.019 A 
HETATM   22  C   UNL     1      30.289  42.979  54.118  1.00  0.00     0.052 C 
HETATM   23  C   UNL     1      30.456  44.373  56.224  1.00  0.00     0.041 A 
HETATM   24 CL   UNL     1      31.799  43.430  56.772  1.00  0.00    -0.084 Cl
HETATM   25  C   UNL     1      30.038  45.425  57.043  1.00  0.00     0.024 A 
HETATM   26  C   UNL     1      28.952  46.209  56.670  1.00  0.00     0.003 A 
HETATM   27  C   UNL     1      28.277  45.933  55.483  1.00  0.00     0.024 A 
ENDBRANCH  18  20
ENDBRANCH  17  18
ENDBRANCH   1  17
TORSDOF 5
ENDMDL
MODEL 2
REMARK VINA RESULT:      -9.1      1.865      2.655
REMARK  5 active torsions:
REMARK  status: ('A' for Active; 'I' for Inactive)
REMARK    1  A    between atoms: C_8  and  N_9 
REMARK    2  A    between atoms: N_9  and  C_10 
REMARK    3  A    between atoms: C_10  and  C_11 
REMARK       I    between atoms: C_11  and  N_12 
REMARK    4  A    between atoms: N_12  and  N_13 
REMARK    5  A    between atoms: C_14  and  C_15 
ROOT
HETATM    1  C   UNL     1      26.618  47.680  54.114  1.00  0.00     0.250 C 
HETATM    2  N   UNL     1      26.565  47.275  52.780  1.00  0.00    -0.246 N 
HETATM    3  O   UNL     1      25.670  48.135  54.753  1.00  0.00    -0.270 OA
HETATM    4  H   UNL     1      27.300  46.666  52.431  1.00  0.00     0.192 HD
ENDROOT
BRANCH   2   5
HETATM    5  N   UNL     1      25.428  47.221  52.009  1.00  0.00    -0.184 NA
HETATM    6  C   UNL     1      25.536  47.391  50.729  1.00  0.00     0.152 C 
BRANCH   6   7
HETATM    7  C   UNL     1      24.339  47.380  49.909  1.00  0.00     0.011 A 
HETATM    8  C   UNL     1      23.766  48.489  49.205  1.00  0.00     0.004 A 
HETATM    9  C   UNL     1      22.625  48.022  48.549  1.00  0.00     0.043 A 
HETATM   10  C   UNL     1      24.110  49.851  49.064  1.00  0.00     0.014 A 
HETATM   11  C   UNL     1      21.814  48.845  47.758  1.00  0.00     0.030 A 
HETATM   12  N   UNL     1      22.506  46.684  48.845  1.00  0.00    -0.364 N 
HETATM   13  C   UNL     1      22.178  50.189  47.635  1.00  0.00     0.002 A 
HETATM   14  C   UNL     1      23.308  50.687  48.277  1.00  0.00     0.001 A 
HETATM   15  H   UNL     1      21.764  46.087  48.509  1.00  0.00     0.165 HD
HETATM   16  C   UNL     1      23.530  46.287  49.661  1.00  0.00     0.102 A 
ENDBRANCH   6   7
ENDBRANCH   2   5
BRANCH   1  17
HETATM   17  C   UNL     1      28.012  47.496  54.737  1.00  0.00     0.197 C 
BRANCH  17  18
HETATM   18  N   UNL     1      27.962  46.523  55.845  1.00  0.00    -0.284 NA
HETATM   19  H   UNL     1      27.004  46.241  56.042  1.00  0.00     0.128 HD
BRANCH  18  20
HETATM   20  C   UNL     1      28.800  45.408  55.637  1.00  0.00     0.016 A 
HETATM   21  C   UNL     1      29.880  45.122  56.501  1.00  0.00    -0.019 A 
HETATM   22  C   UNL     1      30.101  45.922  57.760  1.00  0.00     0.052 C 
HETATM   23  C   UNL     1      30.748  44.064  56.167  1.00  0.00     0.041 A 
HETATM   24 CL   UNL     1      32.123  43.671  57.143  1.00  0.00    -0.084 Cl
HETATM   25  C   UNL     1      30.536  43.290  55.023  1.00  0.00     0.024 A 
HETATM   26  C   UNL     1      29.461  43.566  54.186  1.00  0.00     0.003 A 
HETATM   27  C   UNL     1      28.605  44.624  54.488  1.00  0.00     0.024 A 
ENDBRANCH  18  20
ENDBRANCH  17  18
ENDBRANCH   1  17
TORSDOF 5
ENDMDL
MODEL 3
REMARK VINA RESULT:      -8.9      1.894      2.532
REMARK  5 active torsions:
REMARK  status: ('A' for Active; 'I' for Inactive)
REMARK    1  A    between atoms: C_8  and  N_9 
REMARK    2  A    between atoms: N_9  and  C_10 
REMARK    3  A    between atoms: C_10  and  C_11 
REMARK       I    between atoms: C_11  and  N_12 
REMARK    4  A    between atoms: N_12  and  N_13 
REMARK    5  A    between atoms: C_14  and  C_15 
ROOT
HETATM    1  C   UNL     1      26.594  43.730  50.254  1.00  0.00     0.250 C 
HETATM    2  N   UNL     1      27.255  44.958  50.288  1.00  0.00    -0.246 N 
HETATM    3  O   UNL     1      25.569  43.496  49.616  1.00  0.00    -0.270 OA
HETATM    4  H   UNL     1      28.220  44.979  50.604  1.00  0.00     0.192 HD
ENDROOT
BRANCH   2   5
HETATM    5  N   UNL     1      26.925  46.061  49.536  1.00  0.00    -0.184 NA
HETATM    6  C   UNL     1      26.489  47.120  50.144  1.00  0.00     0.152 C 
BRANCH   6   7
HETATM    7  C   UNL     1      26.096  48.276  49.359  1.00  0.00     0.011 A 
HETATM    8  C   UNL     1      24.761  48.730  49.102  1.00  0.00     0.004 A 
HETATM    9  C   UNL     1      24.856  49.874  48.306  1.00  0.00     0.043 A 
HETATM   10  C   UNL     1      23.477  48.276  49.472  1.00  0.00     0.014 A 
HETATM   11  C   UNL     1      23.734  50.586  47.864  1.00  0.00     0.030 A 
HETATM   12  N   UNL     1      26.193  50.103  48.083  1.00  0.00    -0.364 N 
HETATM   13  C   UNL     1      22.475  50.115  48.246  1.00  0.00     0.002 A 
HETATM   14  C   UNL     1      22.345  48.977  49.038  1.00  0.00     0.001 A 
HETATM   15  H   UNL     1      26.559  50.865  47.530  1.00  0.00     0.165 HD
HETATM   16  C   UNL     1      26.948  49.150  48.710  1.00  0.00     0.102 A 
ENDBRANCH   6   7
ENDBRANCH   2   5
BRANCH   1  17
HETATM   17  C   UNL     1      27.289  42.657  51.108  1.00  0.00     0.197 C 
BRANCH  17  18
HETATM   18  N   UNL     1      26.782  42.687  52.493  1.00  0.00    -0.284 NA
HETATM   19  H   UNL     1      26.440  41.771  52.777  1.00  0.00     0.128 HD
BRANCH  18  20
HETATM   20  C   UNL     1      27.722  43.197  53.413  1.00  0.00     0.016 A 
HETATM   21  C   UNL     1      27.560  44.470  54.006  1.00  0.00    -0.019 A 
HETATM   22  C   UNL     1      26.308  45.279  53.783  1.00  0.00     0.052 C 
HETATM   23  C   UNL     1      28.595  44.968  54.822  1.00  0.00     0.041 A 
HETATM   24 CL   UNL     1      28.503  46.535  55.553  1.00  0.00    -0.084 Cl
HETATM   25  C   UNL     1      29.746  44.216  55.068  1.00  0.00     0.024 A 
HETATM   26  C   UNL     1      29.891  42.958  54.496  1.00  0.00     0.003 A 
HETATM   27  C   UNL     1      28.888  42.457  53.666  1.00  0.00     0.024 A 
ENDBRANCH  18  20
ENDBRANCH  17  18
ENDBRANCH   1  17
TORSDOF 5
ENDMDL
MODEL 4
REMARK VINA RESULT:      -8.8      3.225      9.063
REMARK  5 active torsions:
REMARK  status: ('A' for Active; 'I' for Inactive)
REMARK    1  A    between atoms: C_8  and  N_9 
REMARK    2  A    between atoms: N_9  and  C_10 
REMARK    3  A    between atoms: C_10  and  C_11 
REMARK       I    between atoms: C_11  and  N_12 
REMARK    4  A    between atoms: N_12  and  N_13 
REMARK    5  A    between atoms: C_14  and  C_15 
ROOT
HETATM    1  C   UNL     1      25.505  44.762  52.193  1.00  0.00     0.250 C 
HETATM    2  N   UNL     1      26.861  44.856  52.505  1.00  0.00    -0.246 N 
HETATM    3  O   UNL     1      24.608  44.532  53.002  1.00  0.00    -0.270 OA
HETATM    4  H   UNL     1      27.479  45.317  51.842  1.00  0.00     0.192 HD
ENDROOT
BRANCH   2   5
HETATM    5  N   UNL     1      27.391  44.811  53.773  1.00  0.00    -0.184 NA
HETATM    6  C   UNL     1      28.114  45.807  54.181  1.00  0.00     0.152 C 
BRANCH   6   7
HETATM    7  C   UNL     1      28.715  45.752  55.500  1.00  0.00     0.011 A 
HETATM    8  C   UNL     1      29.778  44.892  55.929  1.00  0.00     0.004 A 
HETATM    9  C   UNL     1      30.035  45.183  57.270  1.00  0.00     0.043 A 
HETATM   10  C   UNL     1      30.548  43.889  55.301  1.00  0.00     0.014 A 
HETATM   11  C   UNL     1      31.023  44.525  58.014  1.00  0.00     0.030 A 
HETATM   12  N   UNL     1      29.161  46.176  57.645  1.00  0.00    -0.364 N 
HETATM   13  C   UNL     1      31.772  43.537  57.367  1.00  0.00     0.002 A 
HETATM   14  C   UNL     1      31.539  43.222  56.031  1.00  0.00     0.001 A 
HETATM   15  H   UNL     1      29.117  46.582  58.568  1.00  0.00     0.165 HD
HETATM   16  C   UNL     1      28.364  46.527  56.590  1.00  0.00     0.102 A 
ENDBRANCH   6   7
ENDBRANCH   2   5
BRANCH   1  17
HETATM   17  C   UNL     1      25.222  44.986  50.698  1.00  0.00     0.197 C 
BRANCH  17  18
HETATM   18  N   UNL     1      24.278  46.104  50.509  1.00  0.00    -0.284 NA
HETATM   19  H   UNL     1      23.780  46.313  51.372  1.00  0.00     0.128 HD
BRANCH  18  20
HETATM   20  C   UNL     1      24.888  47.256  49.971  1.00  0.00     0.016 A 
HETATM   21  C   UNL     1      24.139  48.243  49.293  1.00  0.00    -0.019 A 
HETATM   22  C   UNL     1      22.634  48.172  49.234  1.00  0.00     0.052 C 
HETATM   23  C   UNL     1      24.827  49.307  48.677  1.00  0.00     0.041 A 
HETATM   24 CL   UNL     1      23.994  50.536  47.787  1.00  0.00    -0.084 Cl
HETATM   25  C   UNL     1      26.218  49.406  48.753  1.00  0.00     0.024 A 
HETATM   26  C   UNL     1      26.949  48.441  49.437  1.00  0.00     0.003 A 
HETATM   27  C   UNL     1      26.287  47.369  50.033  1.00  0.00     0.024 A 
ENDBRANCH  18  20
ENDBRANCH  17  18
ENDBRANCH   1  17
TORSDOF 5
ENDMDL
MODEL 5
REMARK VINA RESULT:      -8.7      4.373      9.701
REMARK  5 active torsions:
REMARK  status: ('A' for Active; 'I' for Inactive)
REMARK    1  A    between atoms: C_8  and  N_9 
REMARK    2  A    between atoms: N_9  and  C_10 
REMARK    3  A    between atoms: C_10  and  C_11 
REMARK       I    between atoms: C_11  and  N_12 
REMARK    4  A    between atoms: N_12  and  N_13 
REMARK    5  A    between atoms: C_14  and  C_15 
ROOT
HETATM    1  C   UNL     1      23.722  47.675  49.506  1.00  0.00     0.250 C 
HETATM    2  N   UNL     1      23.826  46.335  49.881  1.00  0.00    -0.246 N 
HETATM    3  O   UNL     1      24.517  48.560  49.818  1.00  0.00    -0.270 OA
HETATM    4  H   UNL     1      23.296  45.645  49.358  1.00  0.00     0.192 HD
ENDROOT
BRANCH   2   5
HETATM    5  N   UNL     1      24.883  45.780  50.564  1.00  0.00    -0.184 NA
HETATM    6  C   UNL     1      24.764  45.582  51.839  1.00  0.00     0.152 C 
BRANCH   6   7
HETATM    7  C   UNL     1      25.886  45.036  52.579  1.00  0.00     0.011 A 
HETATM    8  C   UNL     1      26.733  45.735  53.500  1.00  0.00     0.004 A 
HETATM    9  C   UNL     1      27.676  44.821  53.975  1.00  0.00     0.043 A 
HETATM   10  C   UNL     1      26.788  47.063  53.976  1.00  0.00     0.014 A 
HETATM   11  C   UNL     1      28.668  45.167  54.902  1.00  0.00     0.030 A 
HETATM   12  N   UNL     1      27.417  43.617  53.365  1.00  0.00    -0.364 N 
HETATM   13  C   UNL     1      28.698  46.488  55.358  1.00  0.00     0.002 A 
HETATM   14  C   UNL     1      27.774  47.424  54.903  1.00  0.00     0.001 A 
HETATM   15  H   UNL     1      27.949  42.772  53.517  1.00  0.00     0.165 HD
HETATM   16  C   UNL     1      26.344  43.733  52.525  1.00  0.00     0.102 A 
ENDBRANCH   6   7
ENDBRANCH   2   5
BRANCH   1  17
HETATM   17  C   UNL     1      22.487  47.954  48.634  1.00  0.00     0.197 C 
BRANCH  17  18
HETATM   18  N   UNL     1      21.289  48.144  49.474  1.00  0.00    -0.284 NA
HETATM   19  H   UNL     1      21.491  47.939  50.451  1.00  0.00     0.128 HD
BRANCH  18  20
HETATM   20  C   UNL     1      20.706  49.419  49.322  1.00  0.00     0.016 A 
HETATM   21  C   UNL     1      19.402  49.698  49.791  1.00  0.00    -0.019 A 
HETATM   22  C   UNL     1      18.631  48.681  50.593  1.00  0.00     0.052 C 
HETATM   23  C   UNL     1      18.836  50.954  49.499  1.00  0.00     0.041 A 
HETATM   24 CL   UNL     1      17.229  51.365  49.993  1.00  0.00    -0.084 Cl
HETATM   25  C   UNL     1      19.551  51.920  48.787  1.00  0.00     0.024 A 
HETATM   26  C   UNL     1      20.840  51.647  48.344  1.00  0.00     0.003 A 
HETATM   27  C   UNL     1      21.408  50.401  48.603  1.00  0.00     0.024 A 
ENDBRANCH  18  20
ENDBRANCH  17  18
ENDBRANCH   1  17
TORSDOF 5
ENDMDL
MODEL 6
REMARK VINA RESULT:      -8.5      3.896      9.650
REMARK  5 active torsions:
REMARK  status: ('A' for Active; 'I' for Inactive)
REMARK    1  A    between atoms: C_8  and  N_9 
REMARK    2  A    between atoms: N_9  and  C_10 
REMARK    3  A    between atoms: C_10  and  C_11 
REMARK       I    between atoms: C_11  and  N_12 
REMARK    4  A    between atoms: N_12  and  N_13 
REMARK    5  A    between atoms: C_14  and  C_15 
ROOT
HETATM    1  C   UNL     1      25.383  46.858  50.225  1.00  0.00     0.250 C 
HETATM    2  N   UNL     1      25.390  47.045  51.608  1.00  0.00    -0.246 N 
HETATM    3  O   UNL     1      26.365  46.559  49.548  1.00  0.00    -0.270 OA
HETATM    4  H   UNL     1      24.504  47.013  52.105  1.00  0.00     0.192 HD
ENDROOT
BRANCH   2   5
HETATM    5  N   UNL     1      26.465  46.822  52.436  1.00  0.00    -0.184 NA
HETATM    6  C   UNL     1      26.269  46.199  53.556  1.00  0.00     0.152 C 
BRANCH   6   7
HETATM    7  C   UNL     1      27.386  45.995  54.458  1.00  0.00     0.011 A 
HETATM    8  C   UNL     1      28.358  44.944  54.403  1.00  0.00     0.004 A 
HETATM    9  C   UNL     1      29.247  45.141  55.462  1.00  0.00     0.043 A 
HETATM   10  C   UNL     1      28.568  43.839  53.550  1.00  0.00     0.014 A 
HETATM   11  C   UNL     1      30.333  44.292  55.710  1.00  0.00     0.030 A 
HETATM   12  N   UNL     1      28.830  46.263  56.138  1.00  0.00    -0.364 N 
HETATM   13  C   UNL     1      30.517  43.206  54.848  1.00  0.00     0.002 A 
HETATM   14  C   UNL     1      29.649  42.981  53.784  1.00  0.00     0.001 A 
HETATM   15  H   UNL     1      29.285  46.640  56.957  1.00  0.00     0.165 HD
HETATM   16  C   UNL     1      27.714  46.786  55.544  1.00  0.00     0.102 A 
ENDBRANCH   6   7
ENDBRANCH   2   5
BRANCH   1  17
HETATM   17  C   UNL     1      23.991  47.062  49.605  1.00  0.00     0.197 C 
BRANCH  17  18
HETATM   18  N   UNL     1      23.480  48.413  49.906  1.00  0.00    -0.284 NA
HETATM   19  H   UNL     1      24.230  49.101  49.887  1.00  0.00     0.128 HD
BRANCH  18  20
HETATM   20  C   UNL     1      22.406  48.793  49.075  1.00  0.00     0.016 A 
HETATM   21  C   UNL     1      21.848  50.090  49.133  1.00  0.00    -0.019 A 
HETATM   22  C   UNL     1      22.466  51.164  49.993  1.00  0.00     0.052 C 
HETATM   23  C   UNL     1      20.702  50.366  48.362  1.00  0.00     0.041 A 
HETATM   24 CL   UNL     1      19.925  51.912  48.406  1.00  0.00    -0.084 Cl
HETATM   25  C   UNL     1      20.140  49.392  47.532  1.00  0.00     0.024 A 
HETATM   26  C   UNL     1      20.704  48.124  47.466  1.00  0.00     0.003 A 
HETATM   27  C   UNL     1      21.824  47.825  48.239  1.00  0.00     0.024 A 
ENDBRANCH  18  20
ENDBRANCH  17  18
ENDBRANCH   1  17
TORSDOF 5
ENDMDL
MODEL 7
REMARK VINA RESULT:      -8.4      5.414      9.117
REMARK  5 active torsions:
REMARK  status: ('A' for Active; 'I' for Inactive)
REMARK    1  A    between atoms: C_8  and  N_9 
REMARK    2  A    between atoms: N_9  and  C_10 
REMARK    3  A    between atoms: C_10  and  C_11 
REMARK       I    between atoms: C_11  and  N_12 
REMARK    4  A    between atoms: N_12  and  N_13 
REMARK    5  A    between atoms: C_14  and  C_15 
ROOT
HETATM    1  C   UNL     1      26.783  43.313  50.035  1.00  0.00     0.250 C 
HETATM    2  N   UNL     1      26.576  42.995  51.378  1.00  0.00    -0.246 N 
HETATM    3  O   UNL     1      27.206  44.391  49.621  1.00  0.00    -0.270 OA
HETATM    4  H   UNL     1      26.498  42.015  51.636  1.00  0.00     0.192 HD
ENDROOT
BRANCH   2   5
HETATM    5  N   UNL     1      26.911  43.794  52.446  1.00  0.00    -0.184 NA
HETATM    6  C   UNL     1      28.126  43.755  52.896  1.00  0.00     0.152 C 
BRANCH   6   7
HETATM    7  C   UNL     1      28.480  44.561  54.049  1.00  0.00     0.011 A 
HETATM    8  C   UNL     1      29.484  44.268  55.029  1.00  0.00     0.004 A 
HETATM    9  C   UNL     1      29.482  45.316  55.953  1.00  0.00     0.043 A 
HETATM   10  C   UNL     1      30.396  43.208  55.221  1.00  0.00     0.014 A 
HETATM   11  C   UNL     1      30.347  45.358  57.055  1.00  0.00     0.030 A 
HETATM   12  N   UNL     1      28.514  46.207  55.554  1.00  0.00    -0.364 N 
HETATM   13  C   UNL     1      31.240  44.296  57.219  1.00  0.00     0.002 A 
HETATM   14  C   UNL     1      31.267  43.235  56.317  1.00  0.00     0.001 A 
HETATM   15  H   UNL     1      28.287  47.062  56.042  1.00  0.00     0.165 HD
HETATM   16  C   UNL     1      27.906  45.765  54.411  1.00  0.00     0.102 A 
ENDBRANCH   6   7
ENDBRANCH   2   5
BRANCH   1  17
HETATM   17  C   UNL     1      26.428  42.154  49.089  1.00  0.00     0.197 C 
BRANCH  17  18
HETATM   18  N   UNL     1      27.476  41.980  48.065  1.00  0.00    -0.284 NA
HETATM   19  H   UNL     1      28.218  42.669  48.178  1.00  0.00     0.128 HD
BRANCH  18  20
HETATM   20  C   UNL     1      27.990  40.667  48.020  1.00  0.00     0.016 A 
HETATM   21  C   UNL     1      27.955  39.898  46.836  1.00  0.00    -0.019 A 
HETATM   22  C   UNL     1      27.488  40.497  45.533  1.00  0.00     0.052 C 
HETATM   23  C   UNL     1      28.375  38.554  46.892  1.00  0.00     0.041 A 
HETATM   24 CL   UNL     1      28.323  37.525  45.501  1.00  0.00    -0.084 Cl
HETATM   25  C   UNL     1      28.845  37.995  48.083  1.00  0.00     0.024 A 
HETATM   26  C   UNL     1      28.893  38.762  49.241  1.00  0.00     0.003 A 
HETATM   27  C   UNL     1      28.460  40.086  49.210  1.00  0.00     0.024 A 
ENDBRANCH  18  20
ENDBRANCH  17  18
ENDBRANCH   1  17
TORSDOF 5
ENDMDL
MODEL 8
REMARK VINA RESULT:      -8.4      1.815      2.384
REMARK  5 active torsions:
REMARK  status: ('A' for Active; 'I' for Inactive)
REMARK    1  A    between atoms: C_8  and  N_9 
REMARK    2  A    between atoms: N_9  and  C_10 
REMARK    3  A    between atoms: C_10  and  C_11 
REMARK       I    between atoms: C_11  and  N_12 
REMARK    4  A    between atoms: N_12  and  N_13 
REMARK    5  A    between atoms: C_14  and  C_15 
ROOT
HETATM    1  C   UNL     1      25.674  44.350  53.908  1.00  0.00     0.250 C 
HETATM    2  N   UNL     1      25.800  44.816  52.598  1.00  0.00    -0.246 N 
HETATM    3  O   UNL     1      24.631  44.350  54.560  1.00  0.00    -0.270 OA
HETATM    4  H   UNL     1      26.608  44.523  52.057  1.00  0.00     0.192 HD
ENDROOT
BRANCH   2   5
HETATM    5  N   UNL     1      24.764  45.246  51.803  1.00  0.00    -0.184 NA
HETATM    6  C   UNL     1      24.903  45.191  50.516  1.00  0.00     0.152 C 
BRANCH   6   7
HETATM    7  C   UNL     1      23.835  45.682  49.666  1.00  0.00     0.011 A 
HETATM    8  C   UNL     1      23.632  47.031  49.228  1.00  0.00     0.004 A 
HETATM    9  C   UNL     1      22.487  47.043  48.428  1.00  0.00     0.043 A 
HETATM   10  C   UNL     1      24.314  48.249  49.438  1.00  0.00     0.014 A 
HETATM   11  C   UNL     1      21.993  48.207  47.827  1.00  0.00     0.030 A 
HETATM   12  N   UNL     1      22.010  45.754  48.384  1.00  0.00    -0.364 N 
HETATM   13  C   UNL     1      22.690  49.399  48.051  1.00  0.00     0.002 A 
HETATM   14  C   UNL     1      23.833  49.422  48.844  1.00  0.00     0.001 A 
HETATM   15  H   UNL     1      21.184  45.466  47.880  1.00  0.00     0.165 HD
HETATM   16  C   UNL     1      22.811  44.927  49.123  1.00  0.00     0.102 A 
ENDBRANCH   6   7
ENDBRANCH   2   5
BRANCH   1  17
HETATM   17  C   UNL     1      26.997  43.814  54.478  1.00  0.00     0.197 C 
BRANCH  17  18
HETATM   18  N   UNL     1      28.101  44.751  54.197  1.00  0.00    -0.284 NA
HETATM   19  H   UNL     1      27.750  45.632  53.826  1.00  0.00     0.128 HD
BRANCH  18  20
HETATM   20  C   UNL     1      28.945  44.958  55.309  1.00  0.00     0.016 A 
HETATM   21  C   UNL     1      30.089  44.158  55.529  1.00  0.00    -0.019 A 
HETATM   22  C   UNL     1      30.530  43.136  54.512  1.00  0.00     0.052 C 
HETATM   23  C   UNL     1      30.818  44.339  56.720  1.00  0.00     0.041 A 
HETATM   24 CL   UNL     1      32.205  43.373  57.095  1.00  0.00    -0.084 Cl
HETATM   25  C   UNL     1      30.443  45.306  57.656  1.00  0.00     0.024 A 
HETATM   26  C   UNL     1      29.326  46.102  57.426  1.00  0.00     0.003 A 
HETATM   27  C   UNL     1      28.578  45.921  56.263  1.00  0.00     0.024 A 
ENDBRANCH  18  20
ENDBRANCH  17  18
ENDBRANCH   1  17
TORSDOF 5
ENDMDL
MODEL 9
REMARK VINA RESULT:      -8.1      4.650      8.860
REMARK  5 active torsions:
REMARK  status: ('A' for Active; 'I' for Inactive)
REMARK    1  A    between atoms: C_8  and  N_9 
REMARK    2  A    between atoms: N_9  and  C_10 
REMARK    3  A    between atoms: C_10  and  C_11 
REMARK       I    between atoms: C_11  and  N_12 
REMARK    4  A    between atoms: N_12  and  N_13 
REMARK    5  A    between atoms: C_14  and  C_15 
ROOT
HETATM    1  C   UNL     1      27.859  41.437  52.048  1.00  0.00     0.250 C 
HETATM    2  N   UNL     1      27.121  42.396  52.743  1.00  0.00    -0.246 N 
HETATM    3  O   UNL     1      29.022  41.122  52.298  1.00  0.00    -0.270 OA
HETATM    4  H   UNL     1      26.110  42.387  52.651  1.00  0.00     0.192 HD
ENDROOT
BRANCH   2   5
HETATM    5  N   UNL     1      27.540  43.057  53.874  1.00  0.00    -0.184 NA
HETATM    6  C   UNL     1      28.020  44.255  53.752  1.00  0.00     0.152 C 
BRANCH   6   7
HETATM    7  C   UNL     1      28.505  44.947  54.931  1.00  0.00     0.011 A 
HETATM    8  C   UNL     1      29.600  44.557  55.770  1.00  0.00     0.004 A 
HETATM    9  C   UNL     1      29.710  45.513  56.782  1.00  0.00     0.043 A 
HETATM   10  C   UNL     1      30.509  43.478  55.767  1.00  0.00     0.014 A 
HETATM   11  C   UNL     1      30.685  45.446  57.786  1.00  0.00     0.030 A 
HETATM   12  N   UNL     1      28.721  46.445  56.571  1.00  0.00    -0.364 N 
HETATM   13  C   UNL     1      31.573  44.367  57.757  1.00  0.00     0.002 A 
HETATM   14  C   UNL     1      31.488  43.396  56.764  1.00  0.00     0.001 A 
HETATM   15  H   UNL     1      28.559  47.251  57.156  1.00  0.00     0.165 HD
HETATM   16  C   UNL     1      27.991  46.115  55.462  1.00  0.00     0.102 A 
ENDBRANCH   6   7
ENDBRANCH   2   5
BRANCH   1  17
HETATM   17  C   UNL     1      27.061  40.783  50.908  1.00  0.00     0.197 C 
BRANCH  17  18
HETATM   18  N   UNL     1      27.104  41.623  49.696  1.00  0.00    -0.284 NA
HETATM   19  H   UNL     1      27.447  41.095  48.896  1.00  0.00     0.128 HD
BRANCH  18  20
HETATM   20  C   UNL     1      25.871  42.248  49.415  1.00  0.00     0.016 A 
HETATM   21  C   UNL     1      25.705  43.646  49.533  1.00  0.00    -0.019 A 
HETATM   22  C   UNL     1      26.877  44.545  49.836  1.00  0.00     0.052 C 
HETATM   23  C   UNL     1      24.418  44.189  49.354  1.00  0.00     0.041 A 
HETATM   24 CL   UNL     1      24.113  45.885  49.525  1.00  0.00    -0.084 Cl
HETATM   25  C   UNL     1      23.329  43.374  49.037  1.00  0.00     0.024 A 
HETATM   26  C   UNL     1      23.501  42.001  48.905  1.00  0.00     0.003 A 
HETATM   27  C   UNL     1      24.763  41.442  49.101  1.00  0.00     0.024 A 
ENDBRANCH  18  20
ENDBRANCH  17  18
ENDBRANCH   1  17
TORSDOF 5
ENDMDL
MODEL 10
REMARK VINA RESULT:      -8.1      1.962      2.626
REMARK  5 active torsions:
REMARK  status: ('A' for Active; 'I' for Inactive)
REMARK    1  A    between atoms: C_8  and  N_9 
REMARK    2  A    between atoms: N_9  and  C_10 
REMARK    3  A    between atoms: C_10  and  C_11 
REMARK       I    between atoms: C_11  and  N_12 
REMARK    4  A    between atoms: N_12  and  N_13 
REMARK    5  A    between atoms: C_14  and  C_15 
ROOT
HETATM    1  C   UNL     1      25.466  44.782  51.312  1.00  0.00     0.250 C 
HETATM    2  N   UNL     1      25.450  45.488  50.108  1.00  0.00    -0.246 N 
HETATM    3  O   UNL     1      24.469  44.479  51.966  1.00  0.00    -0.270 OA
HETATM    4  H   UNL     1      26.273  45.447  49.513  1.00  0.00     0.192 HD
ENDROOT
BRANCH   2   5
HETATM    5  N   UNL     1      24.321  45.860  49.418  1.00  0.00    -0.184 NA
HETATM    6  C   UNL     1      23.925  47.092  49.490  1.00  0.00     0.152 C 
BRANCH   6   7
HETATM    7  C   UNL     1      22.710  47.487  48.801  1.00  0.00     0.011 A 
HETATM    8  C   UNL     1      22.165  48.809  48.704  1.00  0.00     0.004 A 
HETATM    9  C   UNL     1      20.993  48.723  47.951  1.00  0.00     0.043 A 
HETATM   10  C   UNL     1      22.558  50.075  49.188  1.00  0.00     0.014 A 
HETATM   11  C   UNL     1      20.197  49.836  47.655  1.00  0.00     0.030 A 
HETATM   12  N   UNL     1      20.828  47.401  47.607  1.00  0.00    -0.364 N 
HETATM   13  C   UNL     1      20.611  51.078  48.146  1.00  0.00     0.002 A 
HETATM   14  C   UNL     1      21.773  51.199  48.901  1.00  0.00     0.001 A 
HETATM   15  H   UNL     1      20.056  47.043  47.063  1.00  0.00     0.165 HD
HETATM   16  C   UNL     1      21.853  46.650  48.112  1.00  0.00     0.102 A 
ENDBRANCH   6   7
ENDBRANCH   2   5
BRANCH   1  17
HETATM   17  C   UNL     1      26.886  44.399  51.758  1.00  0.00     0.197 C 
BRANCH  17  18
HETATM   18  N   UNL     1      26.875  43.880  53.139  1.00  0.00    -0.284 NA
HETATM   19  H   UNL     1      27.001  42.869  53.151  1.00  0.00     0.128 HD
BRANCH  18  20
HETATM   20  C   UNL     1      27.804  44.528  53.979  1.00  0.00     0.016 A 
HETATM   21  C   UNL     1      28.925  43.849  54.506  1.00  0.00    -0.019 A 
HETATM   22  C   UNL     1      29.249  42.438  54.085  1.00  0.00     0.052 C 
HETATM   23  C   UNL     1      29.745  44.522  55.433  1.00  0.00     0.041 A 
HETATM   24 CL   UNL     1      31.113  43.753  56.165  1.00  0.00    -0.084 Cl
HETATM   25  C   UNL     1      29.480  45.841  55.807  1.00  0.00     0.024 A 
HETATM   26  C   UNL     1      28.385  46.510  55.271  1.00  0.00     0.003 A 
HETATM   27  C   UNL     1      27.549  45.853  54.370  1.00  0.00     0.024 A 
ENDBRANCH  18  20
ENDBRANCH  17  18
ENDBRANCH   1  17
TORSDOF 5
ENDMDL
