MODEL 1
REMARK VINA RESULT:      -9.0      0.000      0.000
REMARK  6 active torsions:
REMARK  status: ('A' for Active; 'I' for Inactive)
REMARK    1  A    between atoms: C_4  and  C_5 
REMARK    2  A    between atoms: C_7  and  S_8 
REMARK    3  A    between atoms: S_8  and  C_9 
REMARK    4  A    between atoms: C_9  and  C_10 
REMARK       I    between atoms: C_10  and  N_11 
REMARK    5  A    between atoms: N_11  and  C_12 
REMARK    6  A    between atoms: C_26  and  C_27 
ROOT
HETATM    1  C   UNL     1      23.574  48.936  48.843  1.00  0.00     0.076 A 
HETATM    2  N   UNL     1      23.068  47.984  48.023  1.00  0.00    -0.239 NA
HETATM    3  C   UNL     1      21.730  47.905  47.834  1.00  0.00     0.116 A 
HETATM    4  C   UNL     1      20.836  48.784  48.445  1.00  0.00     0.095 A 
HETATM    5  C   UNL     1      19.421  48.658  48.251  1.00  0.00     0.103 C 
HETATM    6  N   UNL     1      18.272  48.573  48.121  1.00  0.00    -0.191 NA
HETATM    7  C   UNL     1      21.358  49.784  49.282  1.00  0.00     0.073 A 
HETATM    8  C   UNL     1      22.747  49.852  49.478  1.00  0.00     0.050 A 
ENDROOT
BRANCH   3   9
HETATM    9  S   UNL     1      21.166  46.508  46.857  1.00  0.00    -0.100 SA
BRANCH   9  10
HETATM   10  C   UNL     1      20.702  45.296  48.145  1.00  0.00     0.184 C 
BRANCH  10  11
HETATM   11  C   UNL     1      21.851  44.490  48.748  1.00  0.00     0.231 C 
HETATM   12  N   UNL     1      22.690  45.185  49.597  1.00  0.00    -0.326 N 
HETATM   13  H   UNL     1      22.442  46.156  49.740  1.00  0.00     0.169 HD
HETATM   14  O   UNL     1      21.964  43.299  48.459  1.00  0.00    -0.272 OA
BRANCH  12  15
HETATM   15  C   UNL     1      23.944  44.781  50.095  1.00  0.00     0.037 A 
HETATM   16  C   UNL     1      24.165  44.406  51.426  1.00  0.00     0.061 A 
HETATM   17  C   UNL     1      25.429  43.969  51.750  1.00  0.00     0.065 A 
HETATM   18  C   UNL     1      26.458  43.894  50.816  1.00  0.00     0.063 A 
HETATM   19  N   UNL     1      25.928  43.528  52.971  1.00  0.00    -0.306 N 
HETATM   20  N   UNL     1      27.588  43.404  51.458  1.00  0.00    -0.307 N 
HETATM   21  C   UNL     1      26.283  44.265  49.507  1.00  0.00     0.034 A 
HETATM   22  C   UNL     1      27.273  43.170  52.805  1.00  0.00     0.325 A 
HETATM   23  H   UNL     1      28.495  43.230  51.058  1.00  0.00     0.170 HD
HETATM   24  O   UNL     1      28.023  42.737  53.662  1.00  0.00    -0.247 OA
HETATM   25  C   UNL     1      25.005  44.718  49.151  1.00  0.00     0.032 A 
HETATM   26  H   UNL     1      25.430  43.464  53.843  1.00  0.00     0.170 HD
ENDBRANCH  12  15
ENDBRANCH  10  11
ENDBRANCH   9  10
ENDBRANCH   3   9
BRANCH   7  27
HETATM   27  C   UNL     1      20.450  50.748  50.002  1.00  0.00     0.419 C 
HETATM   28  F   UNL     1      19.860  51.635  49.161  1.00  0.00    -0.166 F 
HETATM   29  F   UNL     1      19.450  50.108  50.663  1.00  0.00    -0.166 F 
HETATM   30  F   UNL     1      21.096  51.495  50.938  1.00  0.00    -0.166 F 
ENDBRANCH   7  27
BRANCH   1  31
HETATM   31  C   UNL     1      25.036  48.869  49.018  1.00  0.00     0.033 A 
HETATM   32  S   UNL     1      26.101  49.928  48.174  1.00  0.00    -0.100 SA
HETATM   33  C   UNL     1      27.488  49.269  48.919  1.00  0.00     0.050 A 
HETATM   34  C   UNL     1      27.170  48.259  49.794  1.00  0.00     0.008 A 
HETATM   35  C   UNL     1      25.764  48.026  49.844  1.00  0.00     0.021 A 
ENDBRANCH   1  31
TORSDOF 6
ENDMDL
MODEL 2
REMARK VINA RESULT:      -8.8      3.285      5.720
REMARK  6 active torsions:
REMARK  status: ('A' for Active; 'I' for Inactive)
REMARK    1  A    between atoms: C_4  and  C_5 
REMARK    2  A    between atoms: C_7  and  S_8 
REMARK    3  A    between atoms: S_8  and  C_9 
REMARK    4  A    between atoms: C_9  and  C_10 
REMARK       I    between atoms: C_10  and  N_11 
REMARK    5  A    between atoms: N_11  and  C_12 
REMARK    6  A    between atoms: C_26  and  C_27 
ROOT
HETATM    1  C   UNL     1      22.234  46.893  48.566  1.00  0.00     0.076 A 
HETATM    2  N   UNL     1      23.126  46.105  49.214  1.00  0.00    -0.239 NA
HETATM    3  C   UNL     1      24.356  46.587  49.508  1.00  0.00     0.116 A 
HETATM    4  C   UNL     1      24.747  47.886  49.180  1.00  0.00     0.095 A 
HETATM    5  C   UNL     1      26.067  48.360  49.476  1.00  0.00     0.103 C 
HETATM    6  N   UNL     1      27.131  48.767  49.692  1.00  0.00    -0.191 NA
HETATM    7  C   UNL     1      23.819  48.712  48.525  1.00  0.00     0.073 A 
HETATM    8  C   UNL     1      22.548  48.198  48.217  1.00  0.00     0.050 A 
ENDROOT
BRANCH   3   9
HETATM    9  S   UNL     1      25.503  45.403  50.219  1.00  0.00    -0.100 SA
BRANCH   9  10
HETATM   10  C   UNL     1      24.569  44.774  51.659  1.00  0.00     0.184 C 
BRANCH  10  11
HETATM   11  C   UNL     1      25.328  44.738  52.984  1.00  0.00     0.231 C 
HETATM   12  N   UNL     1      26.592  45.295  52.966  1.00  0.00    -0.326 N 
HETATM   13  H   UNL     1      26.873  45.683  52.074  1.00  0.00     0.169 HD
HETATM   14  O   UNL     1      24.791  44.233  53.969  1.00  0.00    -0.272 OA
BRANCH  12  15
HETATM   15  C   UNL     1      27.597  45.190  53.946  1.00  0.00     0.037 A 
HETATM   16  C   UNL     1      28.437  44.078  54.079  1.00  0.00     0.061 A 
HETATM   17  C   UNL     1      29.419  44.148  55.041  1.00  0.00     0.065 A 
HETATM   18  C   UNL     1      29.589  45.262  55.858  1.00  0.00     0.063 A 
HETATM   19  N   UNL     1      30.390  43.214  55.385  1.00  0.00    -0.306 N 
HETATM   20  N   UNL     1      30.666  45.018  56.700  1.00  0.00    -0.307 N 
HETATM   21  C   UNL     1      28.778  46.364  55.766  1.00  0.00     0.034 A 
HETATM   22  C   UNL     1      31.178  43.743  56.417  1.00  0.00     0.325 A 
HETATM   23  H   UNL     1      31.046  45.628  57.404  1.00  0.00     0.170 HD
HETATM   24  O   UNL     1      32.124  43.203  56.962  1.00  0.00    -0.247 OA
HETATM   25  C   UNL     1      27.767  46.317  54.797  1.00  0.00     0.032 A 
HETATM   26  H   UNL     1      30.530  42.305  54.977  1.00  0.00     0.170 HD
ENDBRANCH  12  15
ENDBRANCH  10  11
ENDBRANCH   9  10
ENDBRANCH   3   9
BRANCH   7  27
HETATM   27  C   UNL     1      24.184  50.114  48.111  1.00  0.00     0.419 C 
HETATM   28  F   UNL     1      23.247  50.681  47.309  1.00  0.00    -0.166 F 
HETATM   29  F   UNL     1      24.335  50.938  49.181  1.00  0.00    -0.166 F 
HETATM   30  F   UNL     1      25.355  50.182  47.421  1.00  0.00    -0.166 F 
ENDBRANCH   7  27
BRANCH   1  31
HETATM   31  C   UNL     1      20.960  46.226  48.245  1.00  0.00     0.033 A 
HETATM   32  S   UNL     1      19.443  46.881  48.732  1.00  0.00    -0.100 SA
HETATM   33  C   UNL     1      18.561  45.627  47.984  1.00  0.00     0.050 A 
HETATM   34  C   UNL     1      19.385  44.714  47.372  1.00  0.00     0.008 A 
HETATM   35  C   UNL     1      20.760  45.055  47.529  1.00  0.00     0.021 A 
ENDBRANCH   1  31
TORSDOF 6
ENDMDL
MODEL 3
REMARK VINA RESULT:      -8.4      5.715      8.986
REMARK  6 active torsions:
REMARK  status: ('A' for Active; 'I' for Inactive)
REMARK    1  A    between atoms: C_4  and  C_5 
REMARK    2  A    between atoms: C_7  and  S_8 
REMARK    3  A    between atoms: S_8  and  C_9 
REMARK    4  A    between atoms: C_9  and  C_10 
REMARK       I    between atoms: C_10  and  N_11 
REMARK    5  A    between atoms: N_11  and  C_12 
REMARK    6  A    between atoms: C_26  and  C_27 
ROOT
HETATM    1  C   UNL     1      27.199  45.257  53.206  1.00  0.00     0.076 A 
HETATM    2  N   UNL     1      27.940  44.186  52.831  1.00  0.00    -0.239 NA
HETATM    3  C   UNL     1      28.931  43.742  53.638  1.00  0.00     0.116 A 
HETATM    4  C   UNL     1      29.218  44.339  54.866  1.00  0.00     0.095 A 
HETATM    5  C   UNL     1      30.294  43.866  55.687  1.00  0.00     0.103 C 
HETATM    6  N   UNL     1      31.165  43.513  56.366  1.00  0.00    -0.191 NA
HETATM    7  C   UNL     1      28.440  45.437  55.266  1.00  0.00     0.073 A 
HETATM    8  C   UNL     1      27.420  45.896  54.417  1.00  0.00     0.050 A 
ENDROOT
BRANCH   3   9
HETATM    9  S   UNL     1      29.946  42.423  52.965  1.00  0.00    -0.100 SA
BRANCH   9  10
HETATM   10  C   UNL     1      28.792  41.004  52.965  1.00  0.00     0.184 C 
BRANCH  10  11
HETATM   11  C   UNL     1      28.079  40.725  51.644  1.00  0.00     0.231 C 
HETATM   12  N   UNL     1      28.797  39.995  50.717  1.00  0.00    -0.326 N 
HETATM   13  H   UNL     1      29.720  39.711  51.022  1.00  0.00     0.169 HD
HETATM   14  O   UNL     1      26.934  41.147  51.480  1.00  0.00    -0.272 OA
BRANCH  12  15
HETATM   15  C   UNL     1      28.502  39.799  49.355  1.00  0.00     0.037 A 
HETATM   16  C   UNL     1      28.235  40.843  48.462  1.00  0.00     0.061 A 
HETATM   17  C   UNL     1      28.031  40.502  47.144  1.00  0.00     0.065 A 
HETATM   18  C   UNL     1      28.080  39.185  46.695  1.00  0.00     0.063 A 
HETATM   19  N   UNL     1      27.762  41.316  46.049  1.00  0.00    -0.306 N 
HETATM   20  N   UNL     1      27.848  39.187  45.326  1.00  0.00    -0.307 N 
HETATM   21  C   UNL     1      28.325  38.135  47.543  1.00  0.00     0.034 A 
HETATM   22  C   UNL     1      27.648  40.511  44.907  1.00  0.00     0.325 A 
HETATM   23  H   UNL     1      27.823  38.395  44.705  1.00  0.00     0.170 HD
HETATM   24  O   UNL     1      27.421  40.887  43.770  1.00  0.00    -0.247 OA
HETATM   25  C   UNL     1      28.533  38.455  48.891  1.00  0.00     0.032 A 
HETATM   26  H   UNL     1      27.664  42.317  46.046  1.00  0.00     0.170 HD
ENDBRANCH  12  15
ENDBRANCH  10  11
ENDBRANCH   9  10
ENDBRANCH   3   9
BRANCH   7  27
HETATM   27  C   UNL     1      28.716  46.153  56.564  1.00  0.00     0.419 C 
HETATM   28  F   UNL     1      30.008  46.554  56.674  1.00  0.00    -0.166 F 
HETATM   29  F   UNL     1      27.946  47.263  56.707  1.00  0.00    -0.166 F 
HETATM   30  F   UNL     1      28.470  45.385  57.661  1.00  0.00    -0.166 F 
ENDBRANCH   7  27
BRANCH   1  31
HETATM   31  C   UNL     1      26.201  45.681  52.207  1.00  0.00     0.033 A 
HETATM   32  S   UNL     1      25.272  44.541  51.310  1.00  0.00    -0.100 SA
HETATM   33  C   UNL     1      24.407  45.760  50.488  1.00  0.00     0.050 A 
HETATM   34  C   UNL     1      24.804  47.018  50.870  1.00  0.00     0.008 A 
HETATM   35  C   UNL     1      25.837  46.972  51.851  1.00  0.00     0.021 A 
ENDBRANCH   1  31
TORSDOF 6
ENDMDL
MODEL 4
REMARK VINA RESULT:      -8.4      1.793      2.187
REMARK  6 active torsions:
REMARK  status: ('A' for Active; 'I' for Inactive)
REMARK    1  A    between atoms: C_4  and  C_5 
REMARK    2  A    between atoms: C_7  and  S_8 
REMARK    3  A    between atoms: S_8  and  C_9 
REMARK    4  A    between atoms: C_9  and  C_10 
REMARK       I    between atoms: C_10  and  N_11 
REMARK    5  A    between atoms: N_11  and  C_12 
REMARK    6  A    between atoms: C_26  and  C_27 
ROOT
HETATM    1  C   UNL     1      23.594  48.716  48.705  1.00  0.00     0.076 A 
HETATM    2  N   UNL     1      23.186  47.424  48.667  1.00  0.00    -0.239 NA
HETATM    3  C   UNL     1      21.865  47.141  48.596  1.00  0.00     0.116 A 
HETATM    4  C   UNL     1      20.890  48.137  48.544  1.00  0.00     0.095 A 
HETATM    5  C   UNL     1      19.495  47.808  48.500  1.00  0.00     0.103 C 
HETATM    6  N   UNL     1      18.360  47.572  48.476  1.00  0.00    -0.191 NA
HETATM    7  C   UNL     1      21.309  49.477  48.564  1.00  0.00     0.073 A 
HETATM    8  C   UNL     1      22.683  49.760  48.647  1.00  0.00     0.050 A 
ENDROOT
BRANCH   3   9
HETATM    9  S   UNL     1      21.437  45.401  48.716  1.00  0.00    -0.100 SA
BRANCH   9  10
HETATM   10  C   UNL     1      23.079  44.597  48.731  1.00  0.00     0.184 C 
BRANCH  10  11
HETATM   11  C   UNL     1      23.731  44.437  50.103  1.00  0.00     0.231 C 
HETATM   12  N   UNL     1      24.861  45.199  50.324  1.00  0.00    -0.326 N 
HETATM   13  H   UNL     1      25.129  45.796  49.551  1.00  0.00     0.169 HD
HETATM   14  O   UNL     1      23.227  43.664  50.919  1.00  0.00    -0.272 OA
BRANCH  12  15
HETATM   15  C   UNL     1      25.792  45.081  51.374  1.00  0.00     0.037 A 
HETATM   16  C   UNL     1      25.772  45.885  52.520  1.00  0.00     0.061 A 
HETATM   17  C   UNL     1      26.704  45.609  53.493  1.00  0.00     0.065 A 
HETATM   18  C   UNL     1      27.636  44.582  53.368  1.00  0.00     0.063 A 
HETATM   19  N   UNL     1      26.911  46.224  54.724  1.00  0.00    -0.306 N 
HETATM   20  N   UNL     1      28.412  44.561  54.520  1.00  0.00    -0.307 N 
HETATM   21  C   UNL     1      27.694  43.783  52.255  1.00  0.00     0.034 A 
HETATM   22  C   UNL     1      27.971  45.580  55.377  1.00  0.00     0.325 A 
HETATM   23  H   UNL     1      29.168  43.934  54.740  1.00  0.00     0.170 HD
HETATM   24  O   UNL     1      28.422  45.850  56.476  1.00  0.00    -0.247 OA
HETATM   25  C   UNL     1      26.758  44.047  51.246  1.00  0.00     0.032 A 
HETATM   26  H   UNL     1      26.399  47.000  55.108  1.00  0.00     0.170 HD
ENDBRANCH  12  15
ENDBRANCH  10  11
ENDBRANCH   9  10
ENDBRANCH   3   9
BRANCH   7  27
HETATM   27  C   UNL     1      20.310  50.605  48.545  1.00  0.00     0.419 C 
HETATM   28  F   UNL     1      20.902  51.826  48.520  1.00  0.00    -0.166 F 
HETATM   29  F   UNL     1      19.492  50.542  47.462  1.00  0.00    -0.166 F 
HETATM   30  F   UNL     1      19.489  50.612  49.631  1.00  0.00    -0.166 F 
ENDBRANCH   7  27
BRANCH   1  31
HETATM   31  C   UNL     1      25.051  48.885  48.852  1.00  0.00     0.033 A 
HETATM   32  S   UNL     1      25.914  50.112  48.005  1.00  0.00    -0.100 SA
HETATM   33  C   UNL     1      27.403  49.679  48.717  1.00  0.00     0.050 A 
HETATM   34  C   UNL     1      27.270  48.621  49.583  1.00  0.00     0.008 A 
HETATM   35  C   UNL     1      25.923  48.162  49.655  1.00  0.00     0.021 A 
ENDBRANCH   1  31
TORSDOF 6
ENDMDL
MODEL 5
REMARK VINA RESULT:      -8.4      4.984      8.912
REMARK  6 active torsions:
REMARK  status: ('A' for Active; 'I' for Inactive)
REMARK    1  A    between atoms: C_4  and  C_5 
REMARK    2  A    between atoms: C_7  and  S_8 
REMARK    3  A    between atoms: S_8  and  C_9 
REMARK    4  A    between atoms: C_9  and  C_10 
REMARK       I    between atoms: C_10  and  N_11 
REMARK    5  A    between atoms: N_11  and  C_12 
REMARK    6  A    between atoms: C_26  and  C_27 
ROOT
HETATM    1  C   UNL     1      28.186  43.888  53.568  1.00  0.00     0.076 A 
HETATM    2  N   UNL     1      27.266  44.850  53.311  1.00  0.00    -0.239 NA
HETATM    3  C   UNL     1      26.352  44.658  52.333  1.00  0.00     0.116 A 
HETATM    4  C   UNL     1      26.305  43.488  51.574  1.00  0.00     0.095 A 
HETATM    5  C   UNL     1      25.345  43.324  50.522  1.00  0.00     0.103 C 
HETATM    6  N   UNL     1      24.587  43.168  49.658  1.00  0.00    -0.191 NA
HETATM    7  C   UNL     1      27.245  42.481  51.849  1.00  0.00     0.073 A 
HETATM    8  C   UNL     1      28.195  42.695  52.862  1.00  0.00     0.050 A 
ENDROOT
BRANCH   3   9
HETATM    9  S   UNL     1      25.292  46.062  51.975  1.00  0.00    -0.100 SA
BRANCH   9  10
HETATM   10  C   UNL     1      26.217  46.921  50.652  1.00  0.00     0.184 C 
BRANCH  10  11
HETATM   11  C   UNL     1      25.427  47.948  49.844  1.00  0.00     0.231 C 
HETATM   12  N   UNL     1      24.061  47.956  50.055  1.00  0.00    -0.326 N 
HETATM   13  H   UNL     1      23.733  47.284  50.738  1.00  0.00     0.169 HD
HETATM   14  O   UNL     1      26.028  48.696  49.074  1.00  0.00    -0.272 OA
BRANCH  12  15
HETATM   15  C   UNL     1      23.073  48.606  49.292  1.00  0.00     0.037 A 
HETATM   16  C   UNL     1      22.073  47.931  48.583  1.00  0.00     0.061 A 
HETATM   17  C   UNL     1      21.133  48.703  47.939  1.00  0.00     0.065 A 
HETATM   18  C   UNL     1      21.156  50.095  47.975  1.00  0.00     0.063 A 
HETATM   19  N   UNL     1      20.035  48.314  47.179  1.00  0.00    -0.306 N 
HETATM   20  N   UNL     1      20.072  50.563  47.243  1.00  0.00    -0.307 N 
HETATM   21  C   UNL     1      22.128  50.791  48.648  1.00  0.00     0.034 A 
HETATM   22  C   UNL     1      19.362  49.463  46.740  1.00  0.00     0.325 A 
HETATM   23  H   UNL     1      19.806  51.520  47.082  1.00  0.00     0.170 HD
HETATM   24  O   UNL     1      18.354  49.500  46.056  1.00  0.00    -0.247 OA
HETATM   25  C   UNL     1      23.099  50.027  49.309  1.00  0.00     0.032 A 
HETATM   26  H   UNL     1      19.747  47.374  46.966  1.00  0.00     0.170 HD
ENDBRANCH  12  15
ENDBRANCH  10  11
ENDBRANCH   9  10
ENDBRANCH   3   9
BRANCH   7  27
HETATM   27  C   UNL     1      27.274  41.205  51.048  1.00  0.00     0.419 C 
HETATM   28  F   UNL     1      27.470  41.426  49.723  1.00  0.00    -0.166 F 
HETATM   29  F   UNL     1      28.264  40.369  51.457  1.00  0.00    -0.166 F 
HETATM   30  F   UNL     1      26.121  40.488  51.139  1.00  0.00    -0.166 F 
ENDBRANCH   7  27
BRANCH   1  31
HETATM   31  C   UNL     1      29.165  44.251  54.608  1.00  0.00     0.033 A 
HETATM   32  S   UNL     1      29.028  45.708  55.517  1.00  0.00    -0.100 SA
HETATM   33  C   UNL     1      30.414  45.360  56.450  1.00  0.00     0.050 A 
HETATM   34  C   UNL     1      30.988  44.164  56.092  1.00  0.00     0.008 A 
HETATM   35  C   UNL     1      30.275  43.533  55.031  1.00  0.00     0.021 A 
ENDBRANCH   1  31
TORSDOF 6
ENDMDL
MODEL 6
REMARK VINA RESULT:      -8.3      3.968      6.124
REMARK  6 active torsions:
REMARK  status: ('A' for Active; 'I' for Inactive)
REMARK    1  A    between atoms: C_4  and  C_5 
REMARK    2  A    between atoms: C_7  and  S_8 
REMARK    3  A    between atoms: S_8  and  C_9 
REMARK    4  A    between atoms: C_9  and  C_10 
REMARK       I    between atoms: C_10  and  N_11 
REMARK    5  A    between atoms: N_11  and  C_12 
REMARK    6  A    between atoms: C_26  and  C_27 
ROOT
HETATM    1  C   UNL     1      22.463  47.626  48.704  1.00  0.00     0.076 A 
HETATM    2  N   UNL     1      23.529  47.492  49.529  1.00  0.00    -0.239 NA
HETATM    3  C   UNL     1      24.200  46.318  49.572  1.00  0.00     0.116 A 
HETATM    4  C   UNL     1      23.845  45.226  48.779  1.00  0.00     0.095 A 
HETATM    5  C   UNL     1      24.555  43.983  48.867  1.00  0.00     0.103 C 
HETATM    6  N   UNL     1      25.103  42.963  48.924  1.00  0.00    -0.191 NA
HETATM    7  C   UNL     1      22.752  45.366  47.908  1.00  0.00     0.073 A 
HETATM    8  C   UNL     1      22.057  46.587  47.879  1.00  0.00     0.050 A 
ENDROOT
BRANCH   3   9
HETATM    9  S   UNL     1      25.489  46.206  50.816  1.00  0.00    -0.100 SA
BRANCH   9  10
HETATM   10  C   UNL     1      24.748  45.070  52.043  1.00  0.00     0.184 C 
BRANCH  10  11
HETATM   11  C   UNL     1      25.489  44.949  53.373  1.00  0.00     0.231 C 
HETATM   12  N   UNL     1      26.774  45.456  53.392  1.00  0.00    -0.326 N 
HETATM   13  H   UNL     1      27.081  45.869  52.520  1.00  0.00     0.169 HD
HETATM   14  O   UNL     1      24.920  44.426  54.330  1.00  0.00    -0.272 OA
BRANCH  12  15
HETATM   15  C   UNL     1      27.762  45.270  54.378  1.00  0.00     0.037 A 
HETATM   16  C   UNL     1      28.656  44.193  54.386  1.00  0.00     0.061 A 
HETATM   17  C   UNL     1      29.612  44.182  55.376  1.00  0.00     0.065 A 
HETATM   18  C   UNL     1      29.705  45.183  56.339  1.00  0.00     0.063 A 
HETATM   19  N   UNL     1      30.624  43.260  55.620  1.00  0.00    -0.306 N 
HETATM   20  N   UNL     1      30.775  44.882  57.172  1.00  0.00    -0.307 N 
HETATM   21  C   UNL     1      28.839  46.246  56.371  1.00  0.00     0.034 A 
HETATM   22  C   UNL     1      31.359  43.683  56.736  1.00  0.00     0.325 A 
HETATM   23  H   UNL     1      31.107  45.410  57.961  1.00  0.00     0.170 HD
HETATM   24  O   UNL     1      32.321  43.122  57.231  1.00  0.00    -0.247 OA
HETATM   25  C   UNL     1      27.853  46.279  55.375  1.00  0.00     0.032 A 
HETATM   26  H   UNL     1      30.820  42.421  55.099  1.00  0.00     0.170 HD
ENDBRANCH  12  15
ENDBRANCH  10  11
ENDBRANCH   9  10
ENDBRANCH   3   9
BRANCH   7  27
HETATM   27  C   UNL     1      22.291  44.219  47.048  1.00  0.00     0.419 C 
HETATM   28  F   UNL     1      21.955  43.124  47.776  1.00  0.00    -0.166 F 
HETATM   29  F   UNL     1      21.203  44.545  46.303  1.00  0.00    -0.166 F 
HETATM   30  F   UNL     1      23.236  43.801  46.162  1.00  0.00    -0.166 F 
ENDBRANCH   7  27
BRANCH   1  31
HETATM   31  C   UNL     1      21.780  48.928  48.805  1.00  0.00     0.033 A 
HETATM   32  S   UNL     1      20.147  49.059  49.338  1.00  0.00    -0.100 SA
HETATM   33  C   UNL     1      20.152  50.761  49.217  1.00  0.00     0.050 A 
HETATM   34  C   UNL     1      21.361  51.242  48.778  1.00  0.00     0.008 A 
HETATM   35  C   UNL     1      22.292  50.190  48.536  1.00  0.00     0.021 A 
ENDBRANCH   1  31
TORSDOF 6
ENDMDL
MODEL 7
REMARK VINA RESULT:      -8.2      5.463      8.965
REMARK  6 active torsions:
REMARK  status: ('A' for Active; 'I' for Inactive)
REMARK    1  A    between atoms: C_4  and  C_5 
REMARK    2  A    between atoms: C_7  and  S_8 
REMARK    3  A    between atoms: S_8  and  C_9 
REMARK    4  A    between atoms: C_9  and  C_10 
REMARK       I    between atoms: C_10  and  N_11 
REMARK    5  A    between atoms: N_11  and  C_12 
REMARK    6  A    between atoms: C_26  and  C_27 
ROOT
HETATM    1  C   UNL     1      28.377  42.845  52.888  1.00  0.00     0.076 A 
HETATM    2  N   UNL     1      27.337  43.709  52.980  1.00  0.00    -0.239 NA
HETATM    3  C   UNL     1      27.336  44.654  53.947  1.00  0.00     0.116 A 
HETATM    4  C   UNL     1      28.382  44.790  54.860  1.00  0.00     0.095 A 
HETATM    5  C   UNL     1      28.340  45.782  55.895  1.00  0.00     0.103 C 
HETATM    6  N   UNL     1      28.328  46.566  56.749  1.00  0.00    -0.191 NA
HETATM    7  C   UNL     1      29.470  43.909  54.757  1.00  0.00     0.073 A 
HETATM    8  C   UNL     1      29.457  42.925  53.754  1.00  0.00     0.050 A 
ENDROOT
BRANCH   3   9
HETATM    9  S   UNL     1      25.836  45.634  54.072  1.00  0.00    -0.100 SA
BRANCH   9  10
HETATM   10  C   UNL     1      26.246  47.104  53.066  1.00  0.00     0.184 C 
BRANCH  10  11
HETATM   11  C   UNL     1      25.728  47.095  51.629  1.00  0.00     0.231 C 
HETATM   12  N   UNL     1      24.727  46.181  51.358  1.00  0.00    -0.326 N 
HETATM   13  H   UNL     1      24.435  45.623  52.151  1.00  0.00     0.169 HD
HETATM   14  O   UNL     1      26.209  47.880  50.813  1.00  0.00    -0.272 OA
BRANCH  12  15
HETATM   15  C   UNL     1      24.238  45.784  50.100  1.00  0.00     0.037 A 
HETATM   16  C   UNL     1      24.545  44.556  49.501  1.00  0.00     0.061 A 
HETATM   17  C   UNL     1      23.937  44.277  48.299  1.00  0.00     0.065 A 
HETATM   18  C   UNL     1      23.053  45.160  47.684  1.00  0.00     0.063 A 
HETATM   19  N   UNL     1      24.042  43.149  47.492  1.00  0.00    -0.306 N 
HETATM   20  N   UNL     1      22.610  44.575  46.505  1.00  0.00    -0.307 N 
HETATM   21  C   UNL     1      22.737  46.377  48.234  1.00  0.00     0.034 A 
HETATM   22  C   UNL     1      23.219  43.319  46.371  1.00  0.00     0.325 A 
HETATM   23  H   UNL     1      21.961  44.955  45.836  1.00  0.00     0.170 HD
HETATM   24  O   UNL     1      23.059  42.528  45.457  1.00  0.00    -0.247 OA
HETATM   25  C   UNL     1      23.347  46.687  49.457  1.00  0.00     0.032 A 
HETATM   26  H   UNL     1      24.605  42.332  47.662  1.00  0.00     0.170 HD
ENDBRANCH  12  15
ENDBRANCH  10  11
ENDBRANCH   9  10
ENDBRANCH   3   9
BRANCH   7  27
HETATM   27  C   UNL     1      30.619  43.975  55.730  1.00  0.00     0.419 C 
HETATM   28  F   UNL     1      31.510  42.966  55.554  1.00  0.00    -0.166 F 
HETATM   29  F   UNL     1      31.315  45.137  55.618  1.00  0.00    -0.166 F 
HETATM   30  F   UNL     1      30.225  43.902  57.030  1.00  0.00    -0.166 F 
ENDBRANCH   7  27
BRANCH   1  31
HETATM   31  C   UNL     1      28.223  41.823  51.837  1.00  0.00     0.033 A 
HETATM   32  S   UNL     1      27.269  42.102  50.430  1.00  0.00    -0.100 SA
HETATM   33  C   UNL     1      27.631  40.570  49.773  1.00  0.00     0.050 A 
HETATM   34  C   UNL     1      28.457  39.841  50.594  1.00  0.00     0.008 A 
HETATM   35  C   UNL     1      28.790  40.558  51.780  1.00  0.00     0.021 A 
ENDBRANCH   1  31
TORSDOF 6
ENDMDL
MODEL 8
REMARK VINA RESULT:      -8.1      5.015      8.706
REMARK  6 active torsions:
REMARK  status: ('A' for Active; 'I' for Inactive)
REMARK    1  A    between atoms: C_4  and  C_5 
REMARK    2  A    between atoms: C_7  and  S_8 
REMARK    3  A    between atoms: S_8  and  C_9 
REMARK    4  A    between atoms: C_9  and  C_10 
REMARK       I    between atoms: C_10  and  N_11 
REMARK    5  A    between atoms: N_11  and  C_12 
REMARK    6  A    between atoms: C_26  and  C_27 
ROOT
HETATM    1  C   UNL     1      25.949  44.745  52.382  1.00  0.00     0.076 A 
HETATM    2  N   UNL     1      24.946  45.141  51.562  1.00  0.00    -0.239 NA
HETATM    3  C   UNL     1      24.521  44.316  50.577  1.00  0.00     0.116 A 
HETATM    4  C   UNL     1      25.069  43.050  50.375  1.00  0.00     0.095 A 
HETATM    5  C   UNL     1      24.620  42.209  49.304  1.00  0.00     0.103 C 
HETATM    6  N   UNL     1      24.285  41.512  48.440  1.00  0.00    -0.191 NA
HETATM    7  C   UNL     1      26.097  42.628  51.234  1.00  0.00     0.073 A 
HETATM    8  C   UNL     1      26.537  43.496  52.247  1.00  0.00     0.050 A 
ENDROOT
BRANCH   3   9
HETATM    9  S   UNL     1      23.302  45.011  49.456  1.00  0.00    -0.100 SA
BRANCH   9  10
HETATM   10  C   UNL     1      23.793  46.770  49.389  1.00  0.00     0.184 C 
BRANCH  10  11
HETATM   11  C   UNL     1      22.775  47.724  48.768  1.00  0.00     0.231 C 
HETATM   12  N   UNL     1      22.357  48.765  49.574  1.00  0.00    -0.326 N 
HETATM   13  H   UNL     1      22.786  48.790  50.491  1.00  0.00     0.169 HD
HETATM   14  O   UNL     1      22.393  47.525  47.614  1.00  0.00    -0.272 OA
BRANCH  12  15
HETATM   15  C   UNL     1      21.271  49.637  49.368  1.00  0.00     0.037 A 
HETATM   16  C   UNL     1      19.983  49.399  49.860  1.00  0.00     0.061 A 
HETATM   17  C   UNL     1      19.039  50.375  49.637  1.00  0.00     0.065 A 
HETATM   18  C   UNL     1      19.327  51.554  48.955  1.00  0.00     0.063 A 
HETATM   19  N   UNL     1      17.701  50.417  50.015  1.00  0.00    -0.306 N 
HETATM   20  N   UNL     1      18.171  52.323  48.916  1.00  0.00    -0.307 N 
HETATM   21  C   UNL     1      20.574  51.816  48.447  1.00  0.00     0.034 A 
HETATM   22  C   UNL     1      17.146  51.627  49.575  1.00  0.00     0.325 A 
HETATM   23  H   UNL     1      18.051  53.231  48.500  1.00  0.00     0.170 HD
HETATM   24  O   UNL     1      15.999  52.004  49.734  1.00  0.00    -0.247 OA
HETATM   25  C   UNL     1      21.553  50.835  48.657  1.00  0.00     0.032 A 
HETATM   26  H   UNL     1      17.190  49.713  50.522  1.00  0.00     0.170 HD
ENDBRANCH  12  15
ENDBRANCH  10  11
ENDBRANCH   9  10
ENDBRANCH   3   9
BRANCH   7  27
HETATM   27  C   UNL     1      26.759  41.286  51.054  1.00  0.00     0.419 C 
HETATM   28  F   UNL     1      27.424  41.187  49.874  1.00  0.00    -0.166 F 
HETATM   29  F   UNL     1      27.662  41.027  52.036  1.00  0.00    -0.166 F 
HETATM   30  F   UNL     1      25.880  40.248  51.074  1.00  0.00    -0.166 F 
ENDBRANCH   7  27
BRANCH   1  31
HETATM   31  C   UNL     1      26.364  45.762  53.365  1.00  0.00     0.033 A 
HETATM   32  S   UNL     1      27.672  45.495  54.453  1.00  0.00    -0.100 SA
HETATM   33  C   UNL     1      27.526  47.046  55.148  1.00  0.00     0.050 A 
HETATM   34  C   UNL     1      26.506  47.770  54.580  1.00  0.00     0.008 A 
HETATM   35  C   UNL     1      25.835  47.030  53.563  1.00  0.00     0.021 A 
ENDBRANCH   1  31
TORSDOF 6
ENDMDL
MODEL 9
REMARK VINA RESULT:      -8.1      2.934      5.433
REMARK  6 active torsions:
REMARK  status: ('A' for Active; 'I' for Inactive)
REMARK    1  A    between atoms: C_4  and  C_5 
REMARK    2  A    between atoms: C_7  and  S_8 
REMARK    3  A    between atoms: S_8  and  C_9 
REMARK    4  A    between atoms: C_9  and  C_10 
REMARK       I    between atoms: C_10  and  N_11 
REMARK    5  A    between atoms: N_11  and  C_12 
REMARK    6  A    between atoms: C_26  and  C_27 
ROOT
HETATM    1  C   UNL     1      21.489  46.626  47.778  1.00  0.00     0.076 A 
HETATM    2  N   UNL     1      22.064  45.737  48.623  1.00  0.00    -0.239 NA
HETATM    3  C   UNL     1      23.163  46.096  49.326  1.00  0.00     0.116 A 
HETATM    4  C   UNL     1      23.729  47.368  49.228  1.00  0.00     0.095 A 
HETATM    5  C   UNL     1      24.912  47.712  49.962  1.00  0.00     0.103 C 
HETATM    6  N   UNL     1      25.874  48.015  50.534  1.00  0.00    -0.191 NA
HETATM    7  C   UNL     1      23.124  48.298  48.367  1.00  0.00     0.073 A 
HETATM    8  C   UNL     1      21.990  47.911  47.635  1.00  0.00     0.050 A 
ENDROOT
BRANCH   3   9
HETATM    9  S   UNL     1      23.931  44.789  50.287  1.00  0.00    -0.100 SA
BRANCH   9  10
HETATM   10  C   UNL     1      25.424  44.408  49.302  1.00  0.00     0.184 C 
BRANCH  10  11
HETATM   11  C   UNL     1      26.751  44.453  50.057  1.00  0.00     0.231 C 
HETATM   12  N   UNL     1      26.844  43.623  51.157  1.00  0.00    -0.326 N 
HETATM   13  H   UNL     1      26.021  43.060  51.336  1.00  0.00     0.169 HD
HETATM   14  O   UNL     1      27.643  45.201  49.656  1.00  0.00    -0.272 OA
BRANCH  12  15
HETATM   15  C   UNL     1      27.827  43.631  52.165  1.00  0.00     0.037 A 
HETATM   16  C   UNL     1      27.844  44.545  53.224  1.00  0.00     0.061 A 
HETATM   17  C   UNL     1      28.829  44.386  54.172  1.00  0.00     0.065 A 
HETATM   18  C   UNL     1      29.779  43.370  54.101  1.00  0.00     0.063 A 
HETATM   19  N   UNL     1      29.080  45.125  55.323  1.00  0.00    -0.306 N 
HETATM   20  N   UNL     1      30.610  43.480  55.209  1.00  0.00    -0.307 N 
HETATM   21  C   UNL     1      29.802  42.464  53.072  1.00  0.00     0.034 A 
HETATM   22  C   UNL     1      30.187  44.571  55.981  1.00  0.00     0.325 A 
HETATM   23  H   UNL     1      31.391  42.894  55.451  1.00  0.00     0.170 HD
HETATM   24  O   UNL     1      30.684  44.960  57.024  1.00  0.00    -0.247 OA
HETATM   25  C   UNL     1      28.811  42.607  52.091  1.00  0.00     0.032 A 
HETATM   26  H   UNL     1      28.569  45.927  55.653  1.00  0.00     0.170 HD
ENDBRANCH  12  15
ENDBRANCH  10  11
ENDBRANCH   9  10
ENDBRANCH   3   9
BRANCH   7  27
HETATM   27  C   UNL     1      23.701  49.679  48.186  1.00  0.00     0.419 C 
HETATM   28  F   UNL     1      25.010  49.654  47.829  1.00  0.00    -0.166 F 
HETATM   29  F   UNL     1      23.046  50.383  47.226  1.00  0.00    -0.166 F 
HETATM   30  F   UNL     1      23.637  50.438  49.314  1.00  0.00    -0.166 F 
ENDBRANCH   7  27
BRANCH   1  31
HETATM   31  C   UNL     1      20.344  46.086  47.022  1.00  0.00     0.033 A 
HETATM   32  S   UNL     1      18.897  45.576  47.805  1.00  0.00    -0.100 SA
HETATM   33  C   UNL     1      18.138  45.170  46.331  1.00  0.00     0.050 A 
HETATM   34  C   UNL     1      18.953  45.407  45.251  1.00  0.00     0.008 A 
HETATM   35  C   UNL     1      20.220  45.926  45.649  1.00  0.00     0.021 A 
ENDBRANCH   1  31
TORSDOF 6
ENDMDL
MODEL 10
REMARK VINA RESULT:      -8.0     10.497     12.779
REMARK  6 active torsions:
REMARK  status: ('A' for Active; 'I' for Inactive)
REMARK    1  A    between atoms: C_4  and  C_5 
REMARK    2  A    between atoms: C_7  and  S_8 
REMARK    3  A    between atoms: S_8  and  C_9 
REMARK    4  A    between atoms: C_9  and  C_10 
REMARK       I    between atoms: C_10  and  N_11 
REMARK    5  A    between atoms: N_11  and  C_12 
REMARK    6  A    between atoms: C_26  and  C_27 
ROOT
HETATM    1  C   UNL     1      27.059  49.268  40.237  1.00  0.00     0.076 A 
HETATM    2  N   UNL     1      28.172  48.681  39.735  1.00  0.00    -0.239 NA
HETATM    3  C   UNL     1      29.325  49.385  39.662  1.00  0.00     0.116 A 
HETATM    4  C   UNL     1      29.423  50.705  40.103  1.00  0.00     0.095 A 
HETATM    5  C   UNL     1      30.650  51.437  39.986  1.00  0.00     0.103 C 
HETATM    6  N   UNL     1      31.626  52.057  39.894  1.00  0.00    -0.191 NA
HETATM    7  C   UNL     1      28.276  51.311  40.642  1.00  0.00     0.073 A 
HETATM    8  C   UNL     1      27.082  50.573  40.704  1.00  0.00     0.050 A 
ENDROOT
BRANCH   3   9
HETATM    9  S   UNL     1      30.687  48.560  38.832  1.00  0.00    -0.100 SA
BRANCH   9  10
HETATM   10  C   UNL     1      31.276  47.397  40.114  1.00  0.00     0.184 C 
BRANCH  10  11
HETATM   11  C   UNL     1      32.336  47.940  41.070  1.00  0.00     0.231 C 
HETATM   12  N   UNL     1      32.139  49.233  41.514  1.00  0.00    -0.326 N 
HETATM   13  H   UNL     1      31.299  49.678  41.166  1.00  0.00     0.169 HD
HETATM   14  O   UNL     1      33.281  47.218  41.389  1.00  0.00    -0.272 OA
BRANCH  12  15
HETATM   15  C   UNL     1      33.053  50.064  42.190  1.00  0.00     0.037 A 
HETATM   16  C   UNL     1      34.384  50.235  41.793  1.00  0.00     0.061 A 
HETATM   17  C   UNL     1      35.140  51.133  42.511  1.00  0.00     0.065 A 
HETATM   18  C   UNL     1      34.627  51.851  43.588  1.00  0.00     0.063 A 
HETATM   19  N   UNL     1      36.468  51.511  42.341  1.00  0.00    -0.306 N 
HETATM   20  N   UNL     1      35.634  52.672  44.078  1.00  0.00    -0.307 N 
HETATM   21  C   UNL     1      33.332  51.700  44.014  1.00  0.00     0.034 A 
HETATM   22  C   UNL     1      36.790  52.472  43.309  1.00  0.00     0.325 A 
HETATM   23  H   UNL     1      35.581  53.317  44.848  1.00  0.00     0.170 HD
HETATM   24  O   UNL     1      37.865  53.028  43.454  1.00  0.00    -0.247 OA
HETATM   25  C   UNL     1      32.542  50.787  43.302  1.00  0.00     0.032 A 
HETATM   26  H   UNL     1      37.112  51.170  41.647  1.00  0.00     0.170 HD
ENDBRANCH  12  15
ENDBRANCH  10  11
ENDBRANCH   9  10
ENDBRANCH   3   9
BRANCH   7  27
HETATM   27  C   UNL     1      28.299  52.744  41.107  1.00  0.00     0.419 C 
HETATM   28  F   UNL     1      27.110  53.144  41.624  1.00  0.00    -0.166 F 
HETATM   29  F   UNL     1      29.236  52.953  42.069  1.00  0.00    -0.166 F 
HETATM   30  F   UNL     1      28.587  53.625  40.110  1.00  0.00    -0.166 F 
ENDBRANCH   7  27
BRANCH   1  31
HETATM   31  C   UNL     1      25.856  48.416  40.195  1.00  0.00     0.033 A 
HETATM   32  S   UNL     1      24.578  48.703  39.076  1.00  0.00    -0.100 SA
HETATM   33  C   UNL     1      23.681  47.358  39.620  1.00  0.00     0.050 A 
HETATM   34  C   UNL     1      24.321  46.691  40.637  1.00  0.00     0.008 A 
HETATM   35  C   UNL     1      25.564  47.303  40.970  1.00  0.00     0.021 A 
ENDBRANCH   1  31
TORSDOF 6
ENDMDL
