MODEL 1
REMARK VINA RESULT:      -9.9      0.000      0.000
REMARK  7 active torsions:
REMARK  status: ('A' for Active; 'I' for Inactive)
REMARK    1  A    between atoms: O_2  and  C_3 
REMARK    2  A    between atoms: C_5  and  C_6 
REMARK    3  A    between atoms: C_6  and  O_7 
REMARK    4  A    between atoms: C_6  and  C_8 
REMARK    5  A    between atoms: C_8  and  N_9 
REMARK       I    between atoms: N_9  and  C_10 
REMARK    6  A    between atoms: C_10  and  C_11 
REMARK    7  A    between atoms: C_12  and  C_13 
ROOT
HETATM    1  C   UNL     1      26.919  42.707  51.412  1.00  0.00     0.089 C 
HETATM    2  C   UNL     1      28.414  42.362  51.694  1.00  0.00     0.068 C 
HETATM    3  C   UNL     1      28.686  40.843  51.778  1.00  0.00     0.013 C 
HETATM    4  C   UNL     1      28.085  40.056  50.626  1.00  0.00     0.001 C 
HETATM    5  C   UNL     1      26.590  40.303  50.558  1.00  0.00     0.001 C 
HETATM    6  C   UNL     1      26.309  41.781  50.338  1.00  0.00     0.015 C 
ENDROOT
BRANCH   1   7
HETATM    7  C   UNL     1      26.776  44.207  51.042  1.00  0.00     0.222 C 
HETATM    8  N   UNL     1      26.087  45.026  51.903  1.00  0.00    -0.358 N 
HETATM    9  H   UNL     1      25.792  44.677  52.803  1.00  0.00     0.162 HD
HETATM   10  O   UNL     1      27.275  44.675  50.020  1.00  0.00    -0.273 OA
BRANCH   8  11
HETATM   11  C   UNL     1      26.029  46.473  51.736  1.00  0.00     0.159 C 
BRANCH  11  12
HETATM   12  C   UNL     1      24.896  47.049  50.855  1.00  0.00     0.169 C 
BRANCH  12  13
HETATM   13  C   UNL     1      25.359  48.075  49.840  1.00  0.00    -0.025 A 
HETATM   14  C   UNL     1      24.436  48.746  49.017  1.00  0.00     0.046 A 
HETATM   15  C   UNL     1      24.863  49.708  48.101  1.00  0.00     0.068 A 
HETATM   16  C   UNL     1      26.226  49.993  47.995  1.00  0.00     0.037 A 
HETATM   17  C   UNL     1      27.155  49.334  48.802  1.00  0.00     0.003 A 
HETATM   18  C   UNL     1      26.722  48.382  49.722  1.00  0.00     0.010 A 
BRANCH  15  19
HETATM   19  O   UNL     1      24.061  50.431  47.263  1.00  0.00    -0.356 OA
HETATM   20  C   UNL     1      22.683  50.513  47.607  1.00  0.00     0.210 C 
ENDBRANCH  15  19
ENDBRANCH  12  13
BRANCH  12  21
HETATM   21  O   UNL     1      24.272  45.965  50.152  1.00  0.00    -0.389 OA
HETATM   22  H   UNL     1      24.610  45.999  49.239  1.00  0.00     0.210 HD
ENDBRANCH  12  21
ENDBRANCH  11  12
ENDBRANCH   8  11
ENDBRANCH   1   7
BRANCH   2  23
HETATM   23  C   UNL     1      28.939  42.996  52.966  1.00  0.00     0.110 A 
HETATM   24  N   UNL     1      28.469  44.064  53.581  1.00  0.00    -0.233 NA
HETATM   25  C   UNL     1      29.250  44.226  54.703  1.00  0.00     0.087 A 
HETATM   26  C   UNL     1      30.217  43.233  54.780  1.00  0.00     0.062 A 
HETATM   27  C   UNL     1      29.195  45.209  55.700  1.00  0.00     0.057 A 
HETATM   28  N   UNL     1      29.997  42.468  53.667  1.00  0.00    -0.342 N 
HETATM   29  C   UNL     1      31.166  43.152  55.801  1.00  0.00     0.034 A 
HETATM   30  H   UNL     1      30.594  41.726  53.329  1.00  0.00     0.167 HD
HETATM   31  C   UNL     1      31.098  44.138  56.790  1.00  0.00     0.026 A 
HETATM   32  C   UNL     1      30.131  45.146  56.737  1.00  0.00     0.036 A 
HETATM   33 CL   UNL     1      30.095  46.343  57.977  1.00  0.00    -0.084 Cl
ENDBRANCH   2  23
TORSDOF 7
ENDMDL
MODEL 2
REMARK VINA RESULT:      -9.3      2.759      5.049
REMARK  7 active torsions:
REMARK  status: ('A' for Active; 'I' for Inactive)
REMARK    1  A    between atoms: O_2  and  C_3 
REMARK    2  A    between atoms: C_5  and  C_6 
REMARK    3  A    between atoms: C_6  and  O_7 
REMARK    4  A    between atoms: C_6  and  C_8 
REMARK    5  A    between atoms: C_8  and  N_9 
REMARK       I    between atoms: N_9  and  C_10 
REMARK    6  A    between atoms: C_10  and  C_11 
REMARK    7  A    between atoms: C_12  and  C_13 
ROOT
HETATM    1  C   UNL     1      28.351  44.820  53.971  1.00  0.00     0.089 C 
HETATM    2  C   UNL     1      28.269  43.266  54.072  1.00  0.00     0.068 C 
HETATM    3  C   UNL     1      29.586  42.614  54.552  1.00  0.00     0.013 C 
HETATM    4  C   UNL     1      30.175  43.276  55.785  1.00  0.00     0.001 C 
HETATM    5  C   UNL     1      30.404  44.751  55.518  1.00  0.00     0.001 C 
HETATM    6  C   UNL     1      29.090  45.437  55.178  1.00  0.00     0.015 C 
ENDROOT
BRANCH   1   7
HETATM    7  C   UNL     1      26.933  45.421  53.783  1.00  0.00     0.222 C 
HETATM    8  N   UNL     1      26.761  46.398  52.834  1.00  0.00    -0.358 N 
HETATM    9  H   UNL     1      27.513  46.625  52.201  1.00  0.00     0.162 HD
HETATM   10  O   UNL     1      25.970  45.032  54.444  1.00  0.00    -0.273 OA
BRANCH   8  11
HETATM   11  C   UNL     1      25.448  46.915  52.465  1.00  0.00     0.159 C 
BRANCH  11  12
HETATM   12  C   UNL     1      24.970  46.687  51.012  1.00  0.00     0.169 C 
BRANCH  12  13
HETATM   13  C   UNL     1      25.439  47.743  50.031  1.00  0.00    -0.025 A 
HETATM   14  C   UNL     1      24.524  48.422  49.206  1.00  0.00     0.046 A 
HETATM   15  C   UNL     1      24.957  49.410  48.322  1.00  0.00     0.068 A 
HETATM   16  C   UNL     1      26.318  49.714  48.249  1.00  0.00     0.037 A 
HETATM   17  C   UNL     1      27.239  49.048  49.057  1.00  0.00     0.003 A 
HETATM   18  C   UNL     1      26.800  48.069  49.946  1.00  0.00     0.010 A 
BRANCH  15  19
HETATM   19  O   UNL     1      24.162  50.144  47.485  1.00  0.00    -0.356 OA
HETATM   20  C   UNL     1      23.085  50.855  48.084  1.00  0.00     0.210 C 
ENDBRANCH  15  19
ENDBRANCH  12  13
BRANCH  12  21
HETATM   21  O   UNL     1      25.452  45.410  50.569  1.00  0.00    -0.389 OA
HETATM   22  H   UNL     1      24.674  44.826  50.518  1.00  0.00     0.210 HD
ENDBRANCH  12  21
ENDBRANCH  11  12
ENDBRANCH   8  11
ENDBRANCH   1   7
BRANCH   2  23
HETATM   23  C   UNL     1      27.876  42.606  52.766  1.00  0.00     0.110 A 
HETATM   24  N   UNL     1      28.635  41.861  51.985  1.00  0.00    -0.233 NA
HETATM   25  C   UNL     1      27.827  41.465  50.944  1.00  0.00     0.087 A 
HETATM   26  C   UNL     1      26.544  41.973  51.091  1.00  0.00     0.062 A 
HETATM   27  C   UNL     1      28.128  40.673  49.827  1.00  0.00     0.057 A 
HETATM   28  N   UNL     1      26.604  42.693  52.254  1.00  0.00    -0.342 N 
HETATM   29  C   UNL     1      25.512  41.752  50.177  1.00  0.00     0.034 A 
HETATM   30  H   UNL     1      25.884  43.307  52.610  1.00  0.00     0.167 HD
HETATM   31  C   UNL     1      25.826  40.960  49.069  1.00  0.00     0.026 A 
HETATM   32  C   UNL     1      27.109  40.432  48.900  1.00  0.00     0.036 A 
HETATM   33 CL   UNL     1      27.445  39.467  47.512  1.00  0.00    -0.084 Cl
ENDBRANCH   2  23
TORSDOF 7
ENDMDL
MODEL 3
REMARK VINA RESULT:      -9.3      3.920      7.289
REMARK  7 active torsions:
REMARK  status: ('A' for Active; 'I' for Inactive)
REMARK    1  A    between atoms: O_2  and  C_3 
REMARK    2  A    between atoms: C_5  and  C_6 
REMARK    3  A    between atoms: C_6  and  O_7 
REMARK    4  A    between atoms: C_6  and  C_8 
REMARK    5  A    between atoms: C_8  and  N_9 
REMARK       I    between atoms: N_9  and  C_10 
REMARK    6  A    between atoms: C_10  and  C_11 
REMARK    7  A    between atoms: C_12  and  C_13 
ROOT
HETATM    1  C   UNL     1      28.069  39.903  48.542  1.00  0.00     0.089 C 
HETATM    2  C   UNL     1      26.561  40.288  48.645  1.00  0.00     0.068 C 
HETATM    3  C   UNL     1      25.830  40.269  47.284  1.00  0.00     0.013 C 
HETATM    4  C   UNL     1      26.083  39.006  46.479  1.00  0.00     0.001 C 
HETATM    5  C   UNL     1      27.574  38.825  46.260  1.00  0.00     0.001 C 
HETATM    6  C   UNL     1      28.292  38.705  47.594  1.00  0.00     0.015 C 
ENDROOT
BRANCH   1   7
HETATM    7  C   UNL     1      28.656  39.649  49.956  1.00  0.00     0.222 C 
HETATM    8  N   UNL     1      28.852  40.728  50.782  1.00  0.00    -0.358 N 
HETATM    9  H   UNL     1      28.509  41.639  50.513  1.00  0.00     0.162 HD
HETATM   10  O   UNL     1      28.926  38.516  50.353  1.00  0.00    -0.273 OA
BRANCH   8  11
HETATM   11  C   UNL     1      29.244  40.589  52.179  1.00  0.00     0.159 C 
BRANCH  11  12
HETATM   12  C   UNL     1      28.218  41.007  53.258  1.00  0.00     0.169 C 
BRANCH  12  13
HETATM   13  C   UNL     1      28.449  42.391  53.832  1.00  0.00    -0.025 A 
HETATM   14  C   UNL     1      29.616  42.685  54.561  1.00  0.00     0.046 A 
HETATM   15  C   UNL     1      29.836  43.966  55.067  1.00  0.00     0.068 A 
HETATM   16  C   UNL     1      28.876  44.959  54.858  1.00  0.00     0.037 A 
HETATM   17  C   UNL     1      27.712  44.682  54.141  1.00  0.00     0.003 A 
HETATM   18  C   UNL     1      27.502  43.404  53.628  1.00  0.00     0.010 A 
BRANCH  15  19
HETATM   19  O   UNL     1      30.934  44.373  55.774  1.00  0.00    -0.356 OA
HETATM   20  C   UNL     1      31.372  43.519  56.824  1.00  0.00     0.210 C 
ENDBRANCH  15  19
ENDBRANCH  12  13
BRANCH  12  21
HETATM   21  O   UNL     1      26.907  40.970  52.676  1.00  0.00    -0.389 OA
HETATM   22  H   UNL     1      26.523  41.856  52.809  1.00  0.00     0.210 HD
ENDBRANCH  12  21
ENDBRANCH  11  12
ENDBRANCH   8  11
ENDBRANCH   1   7
BRANCH   2  23
HETATM   23  C   UNL     1      26.339  41.651  49.269  1.00  0.00     0.110 A 
HETATM   24  N   UNL     1      27.019  42.757  49.040  1.00  0.00    -0.233 NA
HETATM   25  C   UNL     1      26.424  43.731  49.810  1.00  0.00     0.087 A 
HETATM   26  C   UNL     1      25.353  43.212  50.523  1.00  0.00     0.062 A 
HETATM   27  C   UNL     1      26.754  45.085  49.955  1.00  0.00     0.057 A 
HETATM   28  N   UNL     1      25.321  41.892  50.162  1.00  0.00    -0.342 N 
HETATM   29  C   UNL     1      24.570  43.962  51.403  1.00  0.00     0.034 A 
HETATM   30  H   UNL     1      24.746  41.175  50.582  1.00  0.00     0.167 HD
HETATM   31  C   UNL     1      24.909  45.312  51.537  1.00  0.00     0.026 A 
HETATM   32  C   UNL     1      25.981  45.859  50.826  1.00  0.00     0.036 A 
HETATM   33 CL   UNL     1      26.363  47.527  51.033  1.00  0.00    -0.084 Cl
ENDBRANCH   2  23
TORSDOF 7
ENDMDL
MODEL 4
REMARK VINA RESULT:      -9.1      1.610      2.374
REMARK  7 active torsions:
REMARK  status: ('A' for Active; 'I' for Inactive)
REMARK    1  A    between atoms: O_2  and  C_3 
REMARK    2  A    between atoms: C_5  and  C_6 
REMARK    3  A    between atoms: C_6  and  O_7 
REMARK    4  A    between atoms: C_6  and  C_8 
REMARK    5  A    between atoms: C_8  and  N_9 
REMARK       I    between atoms: N_9  and  C_10 
REMARK    6  A    between atoms: C_10  and  C_11 
REMARK    7  A    between atoms: C_12  and  C_13 
ROOT
HETATM    1  C   UNL     1      25.753  42.746  51.382  1.00  0.00     0.089 C 
HETATM    2  C   UNL     1      27.285  43.042  51.407  1.00  0.00     0.068 C 
HETATM    3  C   UNL     1      28.154  41.770  51.284  1.00  0.00     0.013 C 
HETATM    4  C   UNL     1      27.729  40.852  50.152  1.00  0.00     0.001 C 
HETATM    5  C   UNL     1      26.274  40.459  50.327  1.00  0.00     0.001 C 
HETATM    6  C   UNL     1      25.388  41.694  50.312  1.00  0.00     0.015 C 
ENDROOT
BRANCH   1   7
HETATM    7  C   UNL     1      24.955  44.065  51.203  1.00  0.00     0.222 C 
HETATM    8  N   UNL     1      25.053  44.726  50.003  1.00  0.00    -0.358 N 
HETATM    9  H   UNL     1      25.534  44.296  49.227  1.00  0.00     0.162 HD
HETATM   10  O   UNL     1      24.234  44.513  52.093  1.00  0.00    -0.273 OA
BRANCH   8  11
HETATM   11  C   UNL     1      24.226  45.881  49.672  1.00  0.00     0.159 C 
BRANCH  11  12
HETATM   12  C   UNL     1      24.796  47.284  49.984  1.00  0.00     0.169 C 
BRANCH  12  13
HETATM   13  C   UNL     1      24.134  48.409  49.214  1.00  0.00    -0.025 A 
HETATM   14  C   UNL     1      22.736  48.455  49.060  1.00  0.00     0.046 A 
HETATM   15  C   UNL     1      22.129  49.506  48.371  1.00  0.00     0.068 A 
HETATM   16  C   UNL     1      22.925  50.512  47.819  1.00  0.00     0.037 A 
HETATM   17  C   UNL     1      24.312  50.479  47.960  1.00  0.00     0.003 A 
HETATM   18  C   UNL     1      24.913  49.434  48.657  1.00  0.00     0.010 A 
BRANCH  15  19
HETATM   19  O   UNL     1      20.786  49.665  48.170  1.00  0.00    -0.356 OA
HETATM   20  C   UNL     1      20.291  50.999  48.167  1.00  0.00     0.210 C 
ENDBRANCH  15  19
ENDBRANCH  12  13
BRANCH  12  21
HETATM   21  O   UNL     1      24.635  47.538  51.387  1.00  0.00    -0.389 OA
HETATM   22  H   UNL     1      25.530  47.537  51.771  1.00  0.00     0.210 HD
ENDBRANCH  12  21
ENDBRANCH  11  12
ENDBRANCH   8  11
ENDBRANCH   1   7
BRANCH   2  23
HETATM   23  C   UNL     1      27.725  43.785  52.651  1.00  0.00     0.110 A 
HETATM   24  N   UNL     1      28.750  43.502  53.432  1.00  0.00    -0.233 NA
HETATM   25  C   UNL     1      28.762  44.476  54.404  1.00  0.00     0.087 A 
HETATM   26  C   UNL     1      27.726  45.379  54.213  1.00  0.00     0.062 A 
HETATM   27  C   UNL     1      29.630  44.646  55.492  1.00  0.00     0.057 A 
HETATM   28  N   UNL     1      27.085  44.917  53.096  1.00  0.00    -0.342 N 
HETATM   29  C   UNL     1      27.478  46.465  55.055  1.00  0.00     0.034 A 
HETATM   30  H   UNL     1      26.204  45.256  52.733  1.00  0.00     0.167 HD
HETATM   31  C   UNL     1      28.352  46.624  56.134  1.00  0.00     0.026 A 
HETATM   32  C   UNL     1      29.405  45.730  56.346  1.00  0.00     0.036 A 
HETATM   33 CL   UNL     1      30.450  45.967  57.697  1.00  0.00    -0.084 Cl
ENDBRANCH   2  23
TORSDOF 7
ENDMDL
MODEL 5
REMARK VINA RESULT:      -9.0      1.588      2.186
REMARK  7 active torsions:
REMARK  status: ('A' for Active; 'I' for Inactive)
REMARK    1  A    between atoms: O_2  and  C_3 
REMARK    2  A    between atoms: C_5  and  C_6 
REMARK    3  A    between atoms: C_6  and  O_7 
REMARK    4  A    between atoms: C_6  and  C_8 
REMARK    5  A    between atoms: C_8  and  N_9 
REMARK       I    between atoms: N_9  and  C_10 
REMARK    6  A    between atoms: C_10  and  C_11 
REMARK    7  A    between atoms: C_12  and  C_13 
ROOT
HETATM    1  C   UNL     1      26.170  43.798  50.818  1.00  0.00     0.089 C 
HETATM    2  C   UNL     1      27.435  42.958  51.174  1.00  0.00     0.068 C 
HETATM    3  C   UNL     1      27.140  41.450  51.340  1.00  0.00     0.013 C 
HETATM    4  C   UNL     1      26.319  40.864  50.205  1.00  0.00     0.001 C 
HETATM    5  C   UNL     1      25.014  41.626  50.067  1.00  0.00     0.001 C 
HETATM    6  C   UNL     1      25.287  43.091  49.766  1.00  0.00     0.015 C 
ENDROOT
BRANCH   1   7
HETATM    7  C   UNL     1      26.582  45.226  50.372  1.00  0.00     0.222 C 
HETATM    8  N   UNL     1      25.820  46.286  50.798  1.00  0.00    -0.358 N 
HETATM    9  H   UNL     1      25.088  46.140  51.478  1.00  0.00     0.162 HD
HETATM   10  O   UNL     1      27.574  45.427  49.672  1.00  0.00    -0.273 OA
BRANCH   8  11
HETATM   11  C   UNL     1      26.206  47.674  50.574  1.00  0.00     0.159 C 
BRANCH  11  12
HETATM   12  C   UNL     1      26.051  48.239  49.143  1.00  0.00     0.169 C 
BRANCH  12  13
HETATM   13  C   UNL     1      24.732  48.940  48.890  1.00  0.00    -0.025 A 
HETATM   14  C   UNL     1      23.510  48.318  49.205  1.00  0.00     0.046 A 
HETATM   15  C   UNL     1      22.299  48.976  48.994  1.00  0.00     0.068 A 
HETATM   16  C   UNL     1      22.305  50.263  48.449  1.00  0.00     0.037 A 
HETATM   17  C   UNL     1      23.508  50.892  48.128  1.00  0.00     0.003 A 
HETATM   18  C   UNL     1      24.715  50.234  48.351  1.00  0.00     0.010 A 
BRANCH  15  19
HETATM   19  O   UNL     1      21.055  48.481  49.273  1.00  0.00    -0.356 OA
HETATM   20  C   UNL     1      20.670  47.294  48.589  1.00  0.00     0.210 C 
ENDBRANCH  15  19
ENDBRANCH  12  13
BRANCH  12  21
HETATM   21  O   UNL     1      27.115  49.173  48.906  1.00  0.00    -0.389 OA
HETATM   22  H   UNL     1      27.946  48.678  49.023  1.00  0.00     0.210 HD
ENDBRANCH  12  21
ENDBRANCH  11  12
ENDBRANCH   8  11
ENDBRANCH   1   7
BRANCH   2  23
HETATM   23  C   UNL     1      28.128  43.435  52.433  1.00  0.00     0.110 A 
HETATM   24  N   UNL     1      27.734  44.391  53.252  1.00  0.00    -0.233 NA
HETATM   25  C   UNL     1      28.667  44.431  54.261  1.00  0.00     0.087 A 
HETATM   26  C   UNL     1      29.654  43.476  54.061  1.00  0.00     0.062 A 
HETATM   27  C   UNL     1      28.740  45.268  55.383  1.00  0.00     0.057 A 
HETATM   28  N   UNL     1      29.288  42.860  52.895  1.00  0.00    -0.342 N 
HETATM   29  C   UNL     1      30.744  43.295  54.916  1.00  0.00     0.034 A 
HETATM   30  H   UNL     1      29.843  42.193  52.376  1.00  0.00     0.167 HD
HETATM   31  C   UNL     1      30.803  44.135  56.031  1.00  0.00     0.026 A 
HETATM   32  C   UNL     1      29.819  45.103  56.257  1.00  0.00     0.036 A 
HETATM   33 CL   UNL     1      29.942  46.119  57.644  1.00  0.00    -0.084 Cl
ENDBRANCH   2  23
TORSDOF 7
ENDMDL
MODEL 6
REMARK VINA RESULT:      -8.8      2.036      3.059
REMARK  7 active torsions:
REMARK  status: ('A' for Active; 'I' for Inactive)
REMARK    1  A    between atoms: O_2  and  C_3 
REMARK    2  A    between atoms: C_5  and  C_6 
REMARK    3  A    between atoms: C_6  and  O_7 
REMARK    4  A    between atoms: C_6  and  C_8 
REMARK    5  A    between atoms: C_8  and  N_9 
REMARK       I    between atoms: N_9  and  C_10 
REMARK    6  A    between atoms: C_10  and  C_11 
REMARK    7  A    between atoms: C_12  and  C_13 
ROOT
HETATM    1  C   UNL     1      26.658  40.394  50.006  1.00  0.00     0.089 C 
HETATM    2  C   UNL     1      28.166  40.571  50.362  1.00  0.00     0.068 C 
HETATM    3  C   UNL     1      28.872  39.241  50.711  1.00  0.00     0.013 C 
HETATM    4  C   UNL     1      28.608  38.133  49.706  1.00  0.00     0.001 C 
HETATM    5  C   UNL     1      27.114  37.899  49.579  1.00  0.00     0.001 C 
HETATM    6  C   UNL     1      26.420  39.165  49.102  1.00  0.00     0.015 C 
ENDROOT
BRANCH   1   7
HETATM    7  C   UNL     1      26.097  41.698  49.381  1.00  0.00     0.222 C 
HETATM    8  N   UNL     1      24.766  41.984  49.555  1.00  0.00    -0.358 N 
HETATM    9  H   UNL     1      24.205  41.418  50.175  1.00  0.00     0.162 HD
HETATM   10  O   UNL     1      26.815  42.480  48.758  1.00  0.00    -0.273 OA
BRANCH   8  11
HETATM   11  C   UNL     1      24.173  43.253  49.151  1.00  0.00     0.159 C 
BRANCH  11  12
HETATM   12  C   UNL     1      23.586  44.157  50.260  1.00  0.00     0.169 C 
BRANCH  12  13
HETATM   13  C   UNL     1      24.478  45.317  50.654  1.00  0.00    -0.025 A 
HETATM   14  C   UNL     1      24.840  46.301  49.716  1.00  0.00     0.046 A 
HETATM   15  C   UNL     1      25.642  47.381  50.089  1.00  0.00     0.068 A 
HETATM   16  C   UNL     1      26.099  47.471  51.406  1.00  0.00     0.037 A 
HETATM   17  C   UNL     1      25.752  46.501  52.346  1.00  0.00     0.003 A 
HETATM   18  C   UNL     1      24.942  45.431  51.972  1.00  0.00     0.010 A 
BRANCH  15  19
HETATM   19  O   UNL     1      26.045  48.401  49.273  1.00  0.00    -0.356 OA
HETATM   20  C   UNL     1      27.447  48.606  49.147  1.00  0.00     0.210 C 
ENDBRANCH  15  19
ENDBRANCH  12  13
BRANCH  12  21
HETATM   21  O   UNL     1      22.332  44.683  49.801  1.00  0.00    -0.389 OA
HETATM   22  H   UNL     1      22.529  45.547  49.396  1.00  0.00     0.210 HD
ENDBRANCH  12  21
ENDBRANCH  11  12
ENDBRANCH   8  11
ENDBRANCH   1   7
BRANCH   2  23
HETATM   23  C   UNL     1      28.396  41.531  51.510  1.00  0.00     0.110 A 
HETATM   24  N   UNL     1      27.551  42.424  51.990  1.00  0.00    -0.233 NA
HETATM   25  C   UNL     1      28.198  43.025  53.044  1.00  0.00     0.087 A 
HETATM   26  C   UNL     1      29.466  42.488  53.219  1.00  0.00     0.062 A 
HETATM   27  C   UNL     1      27.763  44.050  53.896  1.00  0.00     0.057 A 
HETATM   28  N   UNL     1      29.565  41.544  52.233  1.00  0.00    -0.342 N 
HETATM   29  C   UNL     1      30.361  42.915  54.202  1.00  0.00     0.034 A 
HETATM   30  H   UNL     1      30.402  41.038  51.978  1.00  0.00     0.167 HD
HETATM   31  C   UNL     1      29.913  43.936  55.045  1.00  0.00     0.026 A 
HETATM   32  C   UNL     1      28.639  44.491  54.893  1.00  0.00     0.036 A 
HETATM   33 CL   UNL     1      28.139  45.753  55.955  1.00  0.00    -0.084 Cl
ENDBRANCH   2  23
TORSDOF 7
ENDMDL
MODEL 7
REMARK VINA RESULT:      -8.7      3.549      8.436
REMARK  7 active torsions:
REMARK  status: ('A' for Active; 'I' for Inactive)
REMARK    1  A    between atoms: O_2  and  C_3 
REMARK    2  A    between atoms: C_5  and  C_6 
REMARK    3  A    between atoms: C_6  and  O_7 
REMARK    4  A    between atoms: C_6  and  C_8 
REMARK    5  A    between atoms: C_8  and  N_9 
REMARK       I    between atoms: N_9  and  C_10 
REMARK    6  A    between atoms: C_10  and  C_11 
REMARK    7  A    between atoms: C_12  and  C_13 
ROOT
HETATM    1  C   UNL     1      25.309  43.397  48.920  1.00  0.00     0.089 C 
HETATM    2  C   UNL     1      23.827  43.717  49.287  1.00  0.00     0.068 C 
HETATM    3  C   UNL     1      22.806  42.863  48.502  1.00  0.00     0.013 C 
HETATM    4  C   UNL     1      23.128  41.379  48.503  1.00  0.00     0.001 C 
HETATM    5  C   UNL     1      24.519  41.154  47.941  1.00  0.00     0.001 C 
HETATM    6  C   UNL     1      25.554  41.879  48.787  1.00  0.00     0.015 C 
ENDROOT
BRANCH   1   7
HETATM    7  C   UNL     1      26.270  44.057  49.945  1.00  0.00     0.222 C 
HETATM    8  N   UNL     1      25.987  43.923  51.282  1.00  0.00    -0.358 N 
HETATM    9  H   UNL     1      25.243  43.310  51.581  1.00  0.00     0.162 HD
HETATM   10  O   UNL     1      27.274  44.673  49.590  1.00  0.00    -0.273 OA
BRANCH   8  11
HETATM   11  C   UNL     1      26.902  44.362  52.328  1.00  0.00     0.159 C 
BRANCH  11  12
HETATM   12  C   UNL     1      27.162  43.395  53.507  1.00  0.00     0.169 C 
BRANCH  12  13
HETATM   13  C   UNL     1      28.389  43.735  54.330  1.00  0.00    -0.025 A 
HETATM   14  C   UNL     1      28.409  44.868  55.163  1.00  0.00     0.046 A 
HETATM   15  C   UNL     1      29.531  45.164  55.938  1.00  0.00     0.068 A 
HETATM   16  C   UNL     1      30.648  44.329  55.871  1.00  0.00     0.037 A 
HETATM   17  C   UNL     1      30.645  43.203  55.047  1.00  0.00     0.003 A 
HETATM   18  C   UNL     1      29.519  42.906  54.283  1.00  0.00     0.010 A 
BRANCH  15  19
HETATM   19  O   UNL     1      29.661  46.224  56.791  1.00  0.00    -0.356 OA
HETATM   20  C   UNL     1      30.403  46.000  57.984  1.00  0.00     0.210 C 
ENDBRANCH  15  19
ENDBRANCH  12  13
BRANCH  12  21
HETATM   21  O   UNL     1      26.016  43.412  54.370  1.00  0.00    -0.389 OA
HETATM   22  H   UNL     1      25.238  43.502  53.791  1.00  0.00     0.210 HD
ENDBRANCH  12  21
ENDBRANCH  11  12
ENDBRANCH   8  11
ENDBRANCH   1   7
BRANCH   2  23
HETATM   23  C   UNL     1      23.466  45.174  49.083  1.00  0.00     0.110 A 
HETATM   24  N   UNL     1      24.040  46.226  49.635  1.00  0.00    -0.233 NA
HETATM   25  C   UNL     1      23.391  47.323  49.117  1.00  0.00     0.087 A 
HETATM   26  C   UNL     1      22.400  46.936  48.224  1.00  0.00     0.062 A 
HETATM   27  C   UNL     1      23.590  48.686  49.372  1.00  0.00     0.057 A 
HETATM   28  N   UNL     1      22.470  45.570  48.222  1.00  0.00    -0.342 N 
HETATM   29  C   UNL     1      21.565  47.833  47.556  1.00  0.00     0.034 A 
HETATM   30  H   UNL     1      21.813  44.941  47.780  1.00  0.00     0.167 HD
HETATM   31  C   UNL     1      21.776  49.190  47.819  1.00  0.00     0.026 A 
HETATM   32  C   UNL     1      22.769  49.605  48.711  1.00  0.00     0.036 A 
HETATM   33 CL   UNL     1      22.984  51.290  49.006  1.00  0.00    -0.084 Cl
ENDBRANCH   2  23
TORSDOF 7
ENDMDL
MODEL 8
REMARK VINA RESULT:      -8.7      2.838      7.152
REMARK  7 active torsions:
REMARK  status: ('A' for Active; 'I' for Inactive)
REMARK    1  A    between atoms: O_2  and  C_3 
REMARK    2  A    between atoms: C_5  and  C_6 
REMARK    3  A    between atoms: C_6  and  O_7 
REMARK    4  A    between atoms: C_6  and  C_8 
REMARK    5  A    between atoms: C_8  and  N_9 
REMARK       I    between atoms: N_9  and  C_10 
REMARK    6  A    between atoms: C_10  and  C_11 
REMARK    7  A    between atoms: C_12  and  C_13 
ROOT
HETATM    1  C   UNL     1      26.944  44.864  50.961  1.00  0.00     0.089 C 
HETATM    2  C   UNL     1      26.467  45.294  52.383  1.00  0.00     0.068 C 
HETATM    3  C   UNL     1      26.025  46.773  52.458  1.00  0.00     0.013 C 
HETATM    4  C   UNL     1      25.072  47.178  51.347  1.00  0.00     0.001 C 
HETATM    5  C   UNL     1      25.709  46.904  49.998  1.00  0.00     0.001 C 
HETATM    6  C   UNL     1      26.026  45.424  49.853  1.00  0.00     0.015 C 
ENDROOT
BRANCH   1   7
HETATM    7  C   UNL     1      27.079  43.321  50.885  1.00  0.00     0.222 C 
HETATM    8  N   UNL     1      25.932  42.570  50.812  1.00  0.00    -0.358 N 
HETATM    9  H   UNL     1      25.038  43.024  50.691  1.00  0.00     0.162 HD
HETATM   10  O   UNL     1      28.177  42.765  50.868  1.00  0.00    -0.273 OA
BRANCH   8  11
HETATM   11  C   UNL     1      25.946  41.131  50.577  1.00  0.00     0.159 C 
BRANCH  11  12
HETATM   12  C   UNL     1      26.188  40.643  49.129  1.00  0.00     0.169 C 
BRANCH  12  13
HETATM   13  C   UNL     1      27.348  39.679  48.983  1.00  0.00    -0.025 A 
HETATM   14  C   UNL     1      28.181  39.380  50.076  1.00  0.00     0.046 A 
HETATM   15  C   UNL     1      29.233  38.473  49.944  1.00  0.00     0.068 A 
HETATM   16  C   UNL     1      29.465  37.870  48.706  1.00  0.00     0.037 A 
HETATM   17  C   UNL     1      28.650  38.159  47.611  1.00  0.00     0.003 A 
HETATM   18  C   UNL     1      27.594  39.057  47.751  1.00  0.00     0.010 A 
BRANCH  15  19
HETATM   19  O   UNL     1      30.097  38.095  50.935  1.00  0.00    -0.356 OA
HETATM   20  C   UNL     1      29.889  36.811  51.510  1.00  0.00     0.210 C 
ENDBRANCH  15  19
ENDBRANCH  12  13
BRANCH  12  21
HETATM   21  O   UNL     1      24.996  39.994  48.663  1.00  0.00    -0.389 OA
HETATM   22  H   UNL     1      24.300  40.676  48.647  1.00  0.00     0.210 HD
ENDBRANCH  12  21
ENDBRANCH  11  12
ENDBRANCH   8  11
ENDBRANCH   1   7
BRANCH   2  23
HETATM   23  C   UNL     1      27.516  45.070  53.453  1.00  0.00     0.110 A 
HETATM   24  N   UNL     1      28.390  44.085  53.523  1.00  0.00    -0.233 NA
HETATM   25  C   UNL     1      29.146  44.333  54.646  1.00  0.00     0.087 A 
HETATM   26  C   UNL     1      28.730  45.498  55.276  1.00  0.00     0.062 A 
HETATM   27  C   UNL     1      30.205  43.596  55.195  1.00  0.00     0.057 A 
HETATM   28  N   UNL     1      27.696  45.944  54.499  1.00  0.00    -0.342 N 
HETATM   29  C   UNL     1      29.301  45.991  56.451  1.00  0.00     0.034 A 
HETATM   30  H   UNL     1      27.068  46.704  54.724  1.00  0.00     0.167 HD
HETATM   31  C   UNL     1      30.356  45.247  56.986  1.00  0.00     0.026 A 
HETATM   32  C   UNL     1      30.797  44.073  56.369  1.00  0.00     0.036 A 
HETATM   33 CL   UNL     1      32.097  43.189  57.074  1.00  0.00    -0.084 Cl
ENDBRANCH   2  23
TORSDOF 7
ENDMDL
MODEL 9
REMARK VINA RESULT:      -8.7      4.198      9.517
REMARK  7 active torsions:
REMARK  status: ('A' for Active; 'I' for Inactive)
REMARK    1  A    between atoms: O_2  and  C_3 
REMARK    2  A    between atoms: C_5  and  C_6 
REMARK    3  A    between atoms: C_6  and  O_7 
REMARK    4  A    between atoms: C_6  and  C_8 
REMARK    5  A    between atoms: C_8  and  N_9 
REMARK       I    between atoms: N_9  and  C_10 
REMARK    6  A    between atoms: C_10  and  C_11 
REMARK    7  A    between atoms: C_12  and  C_13 
ROOT
HETATM    1  C   UNL     1      25.182  48.235  49.922  1.00  0.00     0.089 C 
HETATM    2  C   UNL     1      24.389  48.722  48.670  1.00  0.00     0.068 C 
HETATM    3  C   UNL     1      25.002  49.977  48.008  1.00  0.00     0.013 C 
HETATM    4  C   UNL     1      26.499  49.871  47.779  1.00  0.00     0.001 C 
HETATM    5  C   UNL     1      27.203  49.593  49.094  1.00  0.00     0.001 C 
HETATM    6  C   UNL     1      26.707  48.286  49.692  1.00  0.00     0.015 C 
ENDROOT
BRANCH   1   7
HETATM    7  C   UNL     1      24.699  46.823  50.346  1.00  0.00     0.222 C 
HETATM    8  N   UNL     1      25.159  46.308  51.533  1.00  0.00    -0.358 N 
HETATM    9  H   UNL     1      25.698  46.888  52.160  1.00  0.00     0.162 HD
HETATM   10  O   UNL     1      23.910  46.173  49.661  1.00  0.00    -0.273 OA
BRANCH   8  11
HETATM   11  C   UNL     1      24.649  45.066  52.103  1.00  0.00     0.159 C 
BRANCH  11  12
HETATM   12  C   UNL     1      25.550  44.317  53.112  1.00  0.00     0.169 C 
BRANCH  12  13
HETATM   13  C   UNL     1      26.454  45.219  53.928  1.00  0.00    -0.025 A 
HETATM   14  C   UNL     1      27.732  44.789  54.330  1.00  0.00     0.046 A 
HETATM   15  C   UNL     1      28.571  45.631  55.060  1.00  0.00     0.068 A 
HETATM   16  C   UNL     1      28.125  46.909  55.405  1.00  0.00     0.037 A 
HETATM   17  C   UNL     1      26.859  47.349  55.017  1.00  0.00     0.003 A 
HETATM   18  C   UNL     1      26.030  46.508  54.279  1.00  0.00     0.010 A 
BRANCH  15  19
HETATM   19  O   UNL     1      29.833  45.331  55.492  1.00  0.00    -0.356 OA
HETATM   20  C   UNL     1      30.237  43.970  55.394  1.00  0.00     0.210 C 
ENDBRANCH  15  19
ENDBRANCH  12  13
BRANCH  12  21
HETATM   21  O   UNL     1      24.709  43.582  54.013  1.00  0.00    -0.389 OA
HETATM   22  H   UNL     1      25.294  42.975  54.501  1.00  0.00     0.210 HD
ENDBRANCH  12  21
ENDBRANCH  11  12
ENDBRANCH   8  11
ENDBRANCH   1   7
BRANCH   2  23
HETATM   23  C   UNL     1      22.934  49.021  48.969  1.00  0.00     0.110 A 
HETATM   24  N   UNL     1      22.386  50.203  49.179  1.00  0.00    -0.233 NA
HETATM   25  C   UNL     1      21.044  49.966  49.370  1.00  0.00     0.087 A 
HETATM   26  C   UNL     1      20.761  48.611  49.270  1.00  0.00     0.062 A 
HETATM   27  C   UNL     1      20.005  50.866  49.643  1.00  0.00     0.057 A 
HETATM   28  N   UNL     1      21.977  48.036  49.016  1.00  0.00    -0.342 N 
HETATM   29  C   UNL     1      19.485  48.070  49.437  1.00  0.00     0.034 A 
HETATM   30  H   UNL     1      22.175  47.044  49.007  1.00  0.00     0.167 HD
HETATM   31  C   UNL     1      18.458  48.979  49.708  1.00  0.00     0.026 A 
HETATM   32  C   UNL     1      18.716  50.349  49.809  1.00  0.00     0.036 A 
HETATM   33 CL   UNL     1      17.415  51.427  50.151  1.00  0.00    -0.084 Cl
ENDBRANCH   2  23
TORSDOF 7
ENDMDL
MODEL 10
REMARK VINA RESULT:      -8.6      4.227      9.296
REMARK  7 active torsions:
REMARK  status: ('A' for Active; 'I' for Inactive)
REMARK    1  A    between atoms: O_2  and  C_3 
REMARK    2  A    between atoms: C_5  and  C_6 
REMARK    3  A    between atoms: C_6  and  O_7 
REMARK    4  A    between atoms: C_6  and  C_8 
REMARK    5  A    between atoms: C_8  and  N_9 
REMARK       I    between atoms: N_9  and  C_10 
REMARK    6  A    between atoms: C_10  and  C_11 
REMARK    7  A    between atoms: C_12  and  C_13 
ROOT
HETATM    1  C   UNL     1      25.155  47.916  49.585  1.00  0.00     0.089 C 
HETATM    2  C   UNL     1      24.741  48.914  48.461  1.00  0.00     0.068 C 
HETATM    3  C   UNL     1      25.660  50.153  48.374  1.00  0.00     0.013 C 
HETATM    4  C   UNL     1      27.140  49.811  48.371  1.00  0.00     0.001 C 
HETATM    5  C   UNL     1      27.484  49.006  49.610  1.00  0.00     0.001 C 
HETATM    6  C   UNL     1      26.685  47.713  49.639  1.00  0.00     0.015 C 
ENDROOT
BRANCH   1   7
HETATM    7  C   UNL     1      24.392  46.575  49.420  1.00  0.00     0.222 C 
HETATM    8  N   UNL     1      25.124  45.433  49.205  1.00  0.00    -0.358 N 
HETATM    9  H   UNL     1      26.130  45.457  49.275  1.00  0.00     0.162 HD
HETATM   10  O   UNL     1      23.166  46.512  49.496  1.00  0.00    -0.273 OA
BRANCH   8  11
HETATM   11  C   UNL     1      24.524  44.104  49.196  1.00  0.00     0.159 C 
BRANCH  11  12
HETATM   12  C   UNL     1      24.206  43.451  50.561  1.00  0.00     0.169 C 
BRANCH  12  13
HETATM   13  C   UNL     1      25.175  43.819  51.667  1.00  0.00    -0.025 A 
HETATM   14  C   UNL     1      24.888  44.869  52.559  1.00  0.00     0.046 A 
HETATM   15  C   UNL     1      25.771  45.190  53.591  1.00  0.00     0.068 A 
HETATM   16  C   UNL     1      26.958  44.466  53.725  1.00  0.00     0.037 A 
HETATM   17  C   UNL     1      27.259  43.425  52.846  1.00  0.00     0.003 A 
HETATM   18  C   UNL     1      26.369  43.102  51.824  1.00  0.00     0.010 A 
BRANCH  15  19
HETATM   19  O   UNL     1      25.594  46.175  54.523  1.00  0.00    -0.356 OA
HETATM   20  C   UNL     1      26.062  47.473  54.180  1.00  0.00     0.210 C 
ENDBRANCH  15  19
ENDBRANCH  12  13
BRANCH  12  21
HETATM   21  O   UNL     1      22.887  43.850  50.961  1.00  0.00    -0.389 OA
HETATM   22  H   UNL     1      22.696  43.377  51.790  1.00  0.00     0.210 HD
ENDBRANCH  12  21
ENDBRANCH  11  12
ENDBRANCH   8  11
ENDBRANCH   1   7
BRANCH   2  23
HETATM   23  C   UNL     1      23.315  49.406  48.600  1.00  0.00     0.110 A 
HETATM   24  N   UNL     1      22.853  50.293  49.461  1.00  0.00    -0.233 NA
HETATM   25  C   UNL     1      21.515  50.433  49.176  1.00  0.00     0.087 A 
HETATM   26  C   UNL     1      21.147  49.617  48.114  1.00  0.00     0.062 A 
HETATM   27  C   UNL     1      20.546  51.236  49.792  1.00  0.00     0.057 A 
HETATM   28  N   UNL     1      22.306  48.978  47.769  1.00  0.00    -0.342 N 
HETATM   29  C   UNL     1      19.846  49.535  47.614  1.00  0.00     0.034 A 
HETATM   30  H   UNL     1      22.390  48.212  47.114  1.00  0.00     0.167 HD
HETATM   31  C   UNL     1      18.890  50.343  48.237  1.00  0.00     0.026 A 
HETATM   32  C   UNL     1      19.236  51.176  49.305  1.00  0.00     0.036 A 
HETATM   33 CL   UNL     1      18.018  52.147  50.043  1.00  0.00    -0.084 Cl
ENDBRANCH   2  23
TORSDOF 7
ENDMDL
