MODEL 1
REMARK VINA RESULT:      -9.6      0.000      0.000
REMARK  5 active torsions:
REMARK  status: ('A' for Active; 'I' for Inactive)
REMARK    1  A    between atoms: C_2  and  C_3 
REMARK    2  A    between atoms: N_4  and  C_6 
REMARK    3  A    between atoms: C_6  and  C_7 
REMARK    4  A    between atoms: N_14  and  C_16 
REMARK    5  A    between atoms: C_16  and  C_17 
ROOT
HETATM    1  C   UNL     1      25.468  45.715  51.323  1.00  0.00    -0.032 A 
HETATM    2  C   UNL     1      25.781  45.047  52.528  1.00  0.00     0.020 A 
HETATM    3  C   UNL     1      26.330  43.749  52.529  1.00  0.00     0.002 A 
HETATM    4  C   UNL     1      26.556  43.126  51.301  1.00  0.00     0.076 A 
HETATM    5  O   UNL     1      27.028  41.847  51.236  1.00  0.00    -0.349 OA
HETATM    6  C   UNL     1      28.407  41.766  51.617  1.00  0.00     0.203 C 
HETATM    7  C   UNL     1      28.550  41.499  53.117  1.00  0.00     0.262 C 
HETATM    8  N   UNL     1      28.128  42.681  53.983  1.00  0.00    -0.061 N 
HETATM    9  H   UNL     1      28.209  42.329  54.944  1.00  0.00     0.280 HD
HETATM   10  C   UNL     1      26.663  43.033  53.813  1.00  0.00     0.276 C 
HETATM   11  C   UNL     1      26.250  43.763  50.102  1.00  0.00     0.038 A 
HETATM   12  C   UNL     1      25.735  45.061  50.110  1.00  0.00     0.011 A 
ENDROOT
BRANCH   1  13
HETATM   13  C   UNL     1      24.927  47.131  51.360  1.00  0.00     0.274 C 
BRANCH  13  14
HETATM   14  N   UNL     1      25.509  48.078  50.344  1.00  0.00    -0.053 N 
HETATM   15  C   UNL     1      24.477  48.580  49.288  1.00  0.00     0.279 C 
HETATM   16  C   UNL     1      25.114  49.637  48.358  1.00  0.00     0.248 C 
HETATM   17  N   UNL     1      26.431  49.450  48.017  1.00  0.00    -0.358 N 
HETATM   18  O   UNL     1      24.472  50.566  47.886  1.00  0.00    -0.271 OA
HETATM   19  C   UNL     1      27.387  48.743  48.851  1.00  0.00     0.150 C 
HETATM   20  H   UNL     1      26.785  50.177  47.396  1.00  0.00     0.162 HD
HETATM   21  C   UNL     1      26.786  47.596  49.674  1.00  0.00     0.256 C 
HETATM   22  H   UNL     1      25.760  48.935  50.850  1.00  0.00     0.281 HD
BRANCH  15  23
HETATM   23  C   UNL     1      23.906  47.410  48.470  1.00  0.00     0.038 C 
HETATM   24  C   UNL     1      22.416  47.568  48.187  1.00  0.00     0.007 C 
ENDBRANCH  15  23
ENDBRANCH  13  14
ENDBRANCH   1  13
BRANCH   8  25
HETATM   25  C   UNL     1      29.031  43.892  53.921  1.00  0.00     0.274 C 
BRANCH  25  26
HETATM   26  C   UNL     1      29.756  44.194  55.204  1.00  0.00    -0.029 A 
HETATM   27  C   UNL     1      30.749  43.327  55.687  1.00  0.00     0.054 A 
HETATM   28  C   UNL     1      31.407  43.614  56.884  1.00  0.00     0.155 A 
HETATM   29  F   UNL     1      32.349  42.771  57.321  1.00  0.00    -0.203 F 
HETATM   30  C   UNL     1      31.089  44.754  57.608  1.00  0.00     0.154 A 
HETATM   31  F   UNL     1      31.722  45.026  58.755  1.00  0.00    -0.203 F 
HETATM   32  C   UNL     1      30.108  45.623  57.146  1.00  0.00     0.046 A 
HETATM   33  C   UNL     1      29.442  45.347  55.948  1.00  0.00     0.012 A 
ENDBRANCH  25  26
ENDBRANCH   8  25
TORSDOF 5
ENDMDL
MODEL 2
REMARK VINA RESULT:      -9.5      3.123      6.876
REMARK  5 active torsions:
REMARK  status: ('A' for Active; 'I' for Inactive)
REMARK    1  A    between atoms: C_2  and  C_3 
REMARK    2  A    between atoms: N_4  and  C_6 
REMARK    3  A    between atoms: C_6  and  C_7 
REMARK    4  A    between atoms: N_14  and  C_16 
REMARK    5  A    between atoms: C_16  and  C_17 
ROOT
HETATM    1  C   UNL     1      25.899  41.819  48.780  1.00  0.00    -0.032 A 
HETATM    2  C   UNL     1      26.737  42.814  49.331  1.00  0.00     0.020 A 
HETATM    3  C   UNL     1      26.287  44.139  49.511  1.00  0.00     0.002 A 
HETATM    4  C   UNL     1      24.984  44.452  49.125  1.00  0.00     0.076 A 
HETATM    5  O   UNL     1      24.509  45.728  49.218  1.00  0.00    -0.349 OA
HETATM    6  C   UNL     1      24.280  46.116  50.579  1.00  0.00     0.203 C 
HETATM    7  C   UNL     1      25.523  46.779  51.179  1.00  0.00     0.262 C 
HETATM    8  N   UNL     1      26.679  45.809  51.394  1.00  0.00    -0.061 N 
HETATM    9  H   UNL     1      27.447  46.404  51.725  1.00  0.00     0.280 HD
HETATM   10  C   UNL     1      27.180  45.203  50.097  1.00  0.00     0.276 C 
HETATM   11  C   UNL     1      24.142  43.488  48.576  1.00  0.00     0.038 A 
HETATM   12  C   UNL     1      24.587  42.173  48.429  1.00  0.00     0.011 A 
ENDROOT
BRANCH   1  13
HETATM   13  C   UNL     1      26.400  40.395  48.649  1.00  0.00     0.274 C 
BRANCH  13  14
HETATM   14  N   UNL     1      27.592  40.041  49.500  1.00  0.00    -0.053 N 
HETATM   15  C   UNL     1      28.133  38.598  49.258  1.00  0.00     0.279 C 
HETATM   16  C   UNL     1      29.422  38.352  50.073  1.00  0.00     0.248 C 
HETATM   17  N   UNL     1      29.488  38.924  51.318  1.00  0.00    -0.358 N 
HETATM   18  O   UNL     1      30.323  37.629  49.669  1.00  0.00    -0.271 OA
HETATM   19  C   UNL     1      28.779  40.138  51.687  1.00  0.00     0.150 C 
HETATM   20  H   UNL     1      30.360  38.716  51.804  1.00  0.00     0.162 HD
HETATM   21  C   UNL     1      27.426  40.320  50.985  1.00  0.00     0.256 C 
HETATM   22  H   UNL     1      28.367  40.635  49.184  1.00  0.00     0.281 HD
BRANCH  15  23
HETATM   23  C   UNL     1      27.067  37.542  49.596  1.00  0.00     0.038 C 
HETATM   24  C   UNL     1      26.705  36.674  48.395  1.00  0.00     0.007 C 
ENDBRANCH  15  23
ENDBRANCH  13  14
ENDBRANCH   1  13
BRANCH   8  25
HETATM   25  C   UNL     1      26.474  44.778  52.480  1.00  0.00     0.274 C 
BRANCH  25  26
HETATM   26  C   UNL     1      27.701  44.480  53.296  1.00  0.00    -0.029 A 
HETATM   27  C   UNL     1      28.652  43.549  52.848  1.00  0.00     0.054 A 
HETATM   28  C   UNL     1      29.782  43.275  53.620  1.00  0.00     0.155 A 
HETATM   29  F   UNL     1      30.671  42.384  53.169  1.00  0.00    -0.203 F 
HETATM   30  C   UNL     1      29.978  43.915  54.835  1.00  0.00     0.154 A 
HETATM   31  F   UNL     1      31.062  43.650  55.573  1.00  0.00    -0.203 F 
HETATM   32  C   UNL     1      29.047  44.839  55.296  1.00  0.00     0.046 A 
HETATM   33  C   UNL     1      27.911  45.122  54.531  1.00  0.00     0.012 A 
ENDBRANCH  25  26
ENDBRANCH   8  25
TORSDOF 5
ENDMDL
MODEL 3
REMARK VINA RESULT:      -9.4      4.399      8.505
REMARK  5 active torsions:
REMARK  status: ('A' for Active; 'I' for Inactive)
REMARK    1  A    between atoms: C_2  and  C_3 
REMARK    2  A    between atoms: N_4  and  C_6 
REMARK    3  A    between atoms: C_6  and  C_7 
REMARK    4  A    between atoms: N_14  and  C_16 
REMARK    5  A    between atoms: C_16  and  C_17 
ROOT
HETATM    1  C   UNL     1      28.215  42.246  52.535  1.00  0.00    -0.032 A 
HETATM    2  C   UNL     1      26.974  42.875  52.292  1.00  0.00     0.020 A 
HETATM    3  C   UNL     1      26.569  44.013  53.020  1.00  0.00     0.002 A 
HETATM    4  C   UNL     1      27.427  44.507  54.004  1.00  0.00     0.076 A 
HETATM    5  O   UNL     1      27.068  45.567  54.784  1.00  0.00    -0.349 OA
HETATM    6  C   UNL     1      27.076  46.798  54.051  1.00  0.00     0.203 C 
HETATM    7  C   UNL     1      25.704  47.081  53.434  1.00  0.00     0.262 C 
HETATM    8  N   UNL     1      25.344  46.127  52.301  1.00  0.00    -0.061 N 
HETATM    9  H   UNL     1      24.386  46.392  52.045  1.00  0.00     0.280 HD
HETATM   10  C   UNL     1      25.246  44.685  52.764  1.00  0.00     0.276 C 
HETATM   11  C   UNL     1      28.652  43.899  54.264  1.00  0.00     0.038 A 
HETATM   12  C   UNL     1      29.057  42.791  53.516  1.00  0.00     0.011 A 
ENDROOT
BRANCH   1  13
HETATM   13  C   UNL     1      28.638  41.056  51.696  1.00  0.00     0.274 C 
BRANCH  13  14
HETATM   14  N   UNL     1      27.557  40.438  50.848  1.00  0.00    -0.053 N 
HETATM   15  C   UNL     1      27.955  39.064  50.225  1.00  0.00     0.279 C 
HETATM   16  C   UNL     1      26.760  38.438  49.472  1.00  0.00     0.248 C 
HETATM   17  N   UNL     1      25.931  39.299  48.798  1.00  0.00    -0.358 N 
HETATM   18  O   UNL     1      26.584  37.228  49.415  1.00  0.00    -0.271 OA
HETATM   19  C   UNL     1      25.728  40.687  49.177  1.00  0.00     0.150 C 
HETATM   20  H   UNL     1      25.170  38.820  48.317  1.00  0.00     0.162 HD
HETATM   21  C   UNL     1      26.958  41.361  49.799  1.00  0.00     0.256 C 
HETATM   22  H   UNL     1      26.789  40.192  51.482  1.00  0.00     0.281 HD
BRANCH  15  23
HETATM   23  C   UNL     1      29.169  39.209  49.292  1.00  0.00     0.038 C 
HETATM   24  C   UNL     1      30.163  38.062  49.446  1.00  0.00     0.007 C 
ENDBRANCH  15  23
ENDBRANCH  13  14
ENDBRANCH   1  13
BRANCH   8  25
HETATM   25  C   UNL     1      26.154  46.280  51.035  1.00  0.00     0.274 C 
BRANCH  25  26
HETATM   26  C   UNL     1      25.735  47.431  50.162  1.00  0.00    -0.029 A 
HETATM   27  C   UNL     1      26.693  48.287  49.597  1.00  0.00     0.054 A 
HETATM   28  C   UNL     1      26.290  49.358  48.797  1.00  0.00     0.155 A 
HETATM   29  F   UNL     1      27.225  50.157  48.270  1.00  0.00    -0.203 F 
HETATM   30  C   UNL     1      24.945  49.589  48.553  1.00  0.00     0.154 A 
HETATM   31  F   UNL     1      24.562  50.616  47.787  1.00  0.00    -0.203 F 
HETATM   32  C   UNL     1      23.981  48.752  49.106  1.00  0.00     0.046 A 
HETATM   33  C   UNL     1      24.373  47.676  49.908  1.00  0.00     0.012 A 
ENDBRANCH  25  26
ENDBRANCH   8  25
TORSDOF 5
ENDMDL
MODEL 4
REMARK VINA RESULT:      -9.3      2.226      3.306
REMARK  5 active torsions:
REMARK  status: ('A' for Active; 'I' for Inactive)
REMARK    1  A    between atoms: C_2  and  C_3 
REMARK    2  A    between atoms: N_4  and  C_6 
REMARK    3  A    between atoms: C_6  and  C_7 
REMARK    4  A    between atoms: N_14  and  C_16 
REMARK    5  A    between atoms: C_16  and  C_17 
ROOT
HETATM    1  C   UNL     1      24.281  43.703  49.749  1.00  0.00    -0.032 A 
HETATM    2  C   UNL     1      24.951  43.024  50.791  1.00  0.00     0.020 A 
HETATM    3  C   UNL     1      25.716  41.866  50.542  1.00  0.00     0.002 A 
HETATM    4  C   UNL     1      25.794  41.395  49.231  1.00  0.00     0.076 A 
HETATM    5  O   UNL     1      26.468  40.246  48.933  1.00  0.00    -0.349 OA
HETATM    6  C   UNL     1      27.887  40.416  49.038  1.00  0.00     0.203 C 
HETATM    7  C   UNL     1      28.382  40.072  50.445  1.00  0.00     0.262 C 
HETATM    8  N   UNL     1      27.938  41.076  51.503  1.00  0.00    -0.061 N 
HETATM    9  H   UNL     1      28.279  40.677  52.385  1.00  0.00     0.280 HD
HETATM   10  C   UNL     1      26.430  41.138  51.651  1.00  0.00     0.276 C 
HETATM   11  C   UNL     1      25.137  42.046  48.190  1.00  0.00     0.038 A 
HETATM   12  C   UNL     1      24.407  43.210  48.442  1.00  0.00     0.011 A 
ENDROOT
BRANCH   1  13
HETATM   13  C   UNL     1      23.511  44.975  50.047  1.00  0.00     0.274 C 
BRANCH  13  14
HETATM   14  N   UNL     1      24.112  46.244  49.504  1.00  0.00    -0.053 N 
HETATM   15  C   UNL     1      25.384  46.718  50.273  1.00  0.00     0.279 C 
HETATM   16  C   UNL     1      26.011  47.952  49.587  1.00  0.00     0.248 C 
HETATM   17  N   UNL     1      25.145  48.864  49.038  1.00  0.00    -0.358 N 
HETATM   18  O   UNL     1      27.218  48.155  49.582  1.00  0.00    -0.271 OA
HETATM   19  C   UNL     1      23.820  48.525  48.547  1.00  0.00     0.150 C 
HETATM   20  H   UNL     1      25.623  49.657  48.610  1.00  0.00     0.162 HD
HETATM   21  C   UNL     1      23.130  47.390  49.316  1.00  0.00     0.256 C 
HETATM   22  H   UNL     1      24.474  46.024  48.570  1.00  0.00     0.281 HD
BRANCH  15  23
HETATM   23  C   UNL     1      25.063  47.020  51.746  1.00  0.00     0.038 C 
HETATM   24  C   UNL     1      26.312  47.057  52.620  1.00  0.00     0.007 C 
ENDBRANCH  15  23
ENDBRANCH  13  14
ENDBRANCH   1  13
BRANCH   8  25
HETATM   25  C   UNL     1      28.573  42.445  51.411  1.00  0.00     0.274 C 
BRANCH  25  26
HETATM   26  C   UNL     1      28.980  43.033  52.734  1.00  0.00    -0.029 A 
HETATM   27  C   UNL     1      28.176  43.993  53.369  1.00  0.00     0.054 A 
HETATM   28  C   UNL     1      28.570  44.537  54.593  1.00  0.00     0.155 A 
HETATM   29  F   UNL     1      27.784  45.449  55.175  1.00  0.00    -0.203 F 
HETATM   30  C   UNL     1      29.755  44.140  55.193  1.00  0.00     0.154 A 
HETATM   31  F   UNL     1      30.131  44.664  56.365  1.00  0.00    -0.203 F 
HETATM   32  C   UNL     1      30.565  43.191  54.578  1.00  0.00     0.046 A 
HETATM   33  C   UNL     1      30.181  42.638  53.353  1.00  0.00     0.012 A 
ENDBRANCH  25  26
ENDBRANCH   8  25
TORSDOF 5
ENDMDL
MODEL 5
REMARK VINA RESULT:      -9.3      3.447      6.636
REMARK  5 active torsions:
REMARK  status: ('A' for Active; 'I' for Inactive)
REMARK    1  A    between atoms: C_2  and  C_3 
REMARK    2  A    between atoms: N_4  and  C_6 
REMARK    3  A    between atoms: C_6  and  C_7 
REMARK    4  A    between atoms: N_14  and  C_16 
REMARK    5  A    between atoms: C_16  and  C_17 
ROOT
HETATM    1  C   UNL     1      26.603  42.211  49.625  1.00  0.00    -0.032 A 
HETATM    2  C   UNL     1      27.230  43.317  50.240  1.00  0.00     0.020 A 
HETATM    3  C   UNL     1      26.598  44.044  51.270  1.00  0.00     0.002 A 
HETATM    4  C   UNL     1      25.321  43.649  51.669  1.00  0.00     0.076 A 
HETATM    5  O   UNL     1      24.632  44.348  52.617  1.00  0.00    -0.349 OA
HETATM    6  C   UNL     1      25.183  44.160  53.927  1.00  0.00     0.203 C 
HETATM    7  C   UNL     1      26.238  45.224  54.238  1.00  0.00     0.262 C 
HETATM    8  N   UNL     1      27.512  45.070  53.415  1.00  0.00    -0.061 N 
HETATM    9  H   UNL     1      28.081  45.882  53.679  1.00  0.00     0.280 HD
HETATM   10  C   UNL     1      27.265  45.225  51.926  1.00  0.00     0.276 C 
HETATM   11  C   UNL     1      24.682  42.565  51.073  1.00  0.00     0.038 A 
HETATM   12  C   UNL     1      25.328  41.833  50.076  1.00  0.00     0.011 A 
ENDROOT
BRANCH   1  13
HETATM   13  C   UNL     1      27.335  41.422  48.558  1.00  0.00     0.274 C 
BRANCH  13  14
HETATM   14  N   UNL     1      26.857  40.009  48.348  1.00  0.00    -0.053 N 
HETATM   15  C   UNL     1      27.628  38.951  49.197  1.00  0.00     0.279 C 
HETATM   16  C   UNL     1      27.004  37.548  49.021  1.00  0.00     0.248 C 
HETATM   17  N   UNL     1      26.528  37.232  47.774  1.00  0.00    -0.358 N 
HETATM   18  O   UNL     1      26.988  36.722  49.924  1.00  0.00    -0.271 OA
HETATM   19  C   UNL     1      26.042  38.218  46.822  1.00  0.00     0.150 C 
HETATM   20  H   UNL     1      26.139  36.291  47.725  1.00  0.00     0.162 HD
HETATM   21  C   UNL     1      26.756  39.575  46.895  1.00  0.00     0.256 C 
HETATM   22  H   UNL     1      25.904  39.960  48.726  1.00  0.00     0.281 HD
BRANCH  15  23
HETATM   23  C   UNL     1      29.122  38.930  48.835  1.00  0.00     0.038 C 
HETATM   24  C   UNL     1      29.949  38.107  49.817  1.00  0.00     0.007 C 
ENDBRANCH  15  23
ENDBRANCH  13  14
ENDBRANCH   1  13
BRANCH   8  25
HETATM   25  C   UNL     1      28.360  43.862  53.743  1.00  0.00     0.274 C 
BRANCH  25  26
HETATM   26  C   UNL     1      29.289  44.053  54.910  1.00  0.00    -0.029 A 
HETATM   27  C   UNL     1      29.202  45.199  55.716  1.00  0.00     0.054 A 
HETATM   28  C   UNL     1      30.077  45.368  56.790  1.00  0.00     0.155 A 
HETATM   29  F   UNL     1      29.972  46.470  57.541  1.00  0.00    -0.203 F 
HETATM   30  C   UNL     1      31.038  44.410  57.074  1.00  0.00     0.154 A 
HETATM   31  F   UNL     1      31.876  44.574  58.104  1.00  0.00    -0.203 F 
HETATM   32  C   UNL     1      31.140  43.268  56.286  1.00  0.00     0.046 A 
HETATM   33  C   UNL     1      30.269  43.088  55.208  1.00  0.00     0.012 A 
ENDBRANCH  25  26
ENDBRANCH   8  25
TORSDOF 5
ENDMDL
MODEL 6
REMARK VINA RESULT:      -9.3      4.114      7.768
REMARK  5 active torsions:
REMARK  status: ('A' for Active; 'I' for Inactive)
REMARK    1  A    between atoms: C_2  and  C_3 
REMARK    2  A    between atoms: N_4  and  C_6 
REMARK    3  A    between atoms: C_6  and  C_7 
REMARK    4  A    between atoms: N_14  and  C_16 
REMARK    5  A    between atoms: C_16  and  C_17 
ROOT
HETATM    1  C   UNL     1      28.349  42.038  53.393  1.00  0.00    -0.032 A 
HETATM    2  C   UNL     1      27.107  42.710  53.336  1.00  0.00     0.020 A 
HETATM    3  C   UNL     1      26.952  44.014  53.849  1.00  0.00     0.002 A 
HETATM    4  C   UNL     1      28.061  44.634  54.426  1.00  0.00     0.076 A 
HETATM    5  O   UNL     1      27.961  45.871  54.993  1.00  0.00    -0.349 OA
HETATM    6  C   UNL     1      27.803  46.900  54.009  1.00  0.00     0.203 C 
HETATM    7  C   UNL     1      26.323  47.164  53.721  1.00  0.00     0.262 C 
HETATM    8  N   UNL     1      25.638  46.018  52.986  1.00  0.00    -0.061 N 
HETATM    9  H   UNL     1      24.654  46.307  52.932  1.00  0.00     0.280 HD
HETATM   10  C   UNL     1      25.629  44.733  53.791  1.00  0.00     0.276 C 
HETATM   11  C   UNL     1      29.293  43.988  54.497  1.00  0.00     0.038 A 
HETATM   12  C   UNL     1      29.444  42.708  53.959  1.00  0.00     0.011 A 
ENDROOT
BRANCH   1  13
HETATM   13  C   UNL     1      28.490  40.656  52.785  1.00  0.00     0.274 C 
BRANCH  13  14
HETATM   14  N   UNL     1      28.670  40.617  51.290  1.00  0.00    -0.053 N 
HETATM   15  C   UNL     1      27.517  41.307  50.499  1.00  0.00     0.279 C 
HETATM   16  C   UNL     1      27.829  41.333  48.986  1.00  0.00     0.248 C 
HETATM   17  N   UNL     1      28.478  40.241  48.467  1.00  0.00    -0.358 N 
HETATM   18  O   UNL     1      27.465  42.247  48.258  1.00  0.00    -0.271 OA
HETATM   19  C   UNL     1      29.366  39.388  49.239  1.00  0.00     0.150 C 
HETATM   20  H   UNL     1      28.645  40.319  47.464  1.00  0.00     0.162 HD
HETATM   21  C   UNL     1      28.979  39.242  50.717  1.00  0.00     0.256 C 
HETATM   22  H   UNL     1      29.483  41.204  51.075  1.00  0.00     0.281 HD
BRANCH  15  23
HETATM   23  C   UNL     1      26.170  40.614  50.763  1.00  0.00     0.038 C 
HETATM   24  C   UNL     1      24.979  41.509  50.434  1.00  0.00     0.007 C 
ENDBRANCH  15  23
ENDBRANCH  13  14
ENDBRANCH   1  13
BRANCH   8  25
HETATM   25  C   UNL     1      26.072  45.807  51.554  1.00  0.00     0.274 C 
BRANCH  25  26
HETATM   26  C   UNL     1      25.712  46.931  50.621  1.00  0.00    -0.029 A 
HETATM   27  C   UNL     1      26.706  47.765  50.088  1.00  0.00     0.054 A 
HETATM   28  C   UNL     1      26.357  48.810  49.231  1.00  0.00     0.155 A 
HETATM   29  F   UNL     1      27.325  49.590  48.737  1.00  0.00    -0.203 F 
HETATM   30  C   UNL     1      25.030  49.037  48.899  1.00  0.00     0.154 A 
HETATM   31  F   UNL     1      24.699  50.040  48.078  1.00  0.00    -0.203 F 
HETATM   32  C   UNL     1      24.031  48.222  49.420  1.00  0.00     0.046 A 
HETATM   33  C   UNL     1      24.369  47.171  50.278  1.00  0.00     0.012 A 
ENDBRANCH  25  26
ENDBRANCH   8  25
TORSDOF 5
ENDMDL
MODEL 7
REMARK VINA RESULT:      -9.0      2.373      3.623
REMARK  5 active torsions:
REMARK  status: ('A' for Active; 'I' for Inactive)
REMARK    1  A    between atoms: C_2  and  C_3 
REMARK    2  A    between atoms: N_4  and  C_6 
REMARK    3  A    between atoms: C_6  and  C_7 
REMARK    4  A    between atoms: N_14  and  C_16 
REMARK    5  A    between atoms: C_16  and  C_17 
ROOT
HETATM    1  C   UNL     1      23.250  45.378  48.900  1.00  0.00    -0.032 A 
HETATM    2  C   UNL     1      23.610  44.596  50.020  1.00  0.00     0.020 A 
HETATM    3  C   UNL     1      23.949  43.233  49.889  1.00  0.00     0.002 A 
HETATM    4  C   UNL     1      23.915  42.664  48.615  1.00  0.00     0.076 A 
HETATM    5  O   UNL     1      24.173  41.337  48.429  1.00  0.00    -0.349 OA
HETATM    6  C   UNL     1      25.561  41.031  48.612  1.00  0.00     0.203 C 
HETATM    7  C   UNL     1      25.855  40.651  50.065  1.00  0.00     0.262 C 
HETATM    8  N   UNL     1      25.735  41.823  51.032  1.00  0.00    -0.061 N 
HETATM    9  H   UNL     1      25.886  41.403  51.956  1.00  0.00     0.280 HD
HETATM   10  C   UNL     1      24.332  42.396  51.082  1.00  0.00     0.276 C 
HETATM   11  C   UNL     1      23.557  43.415  47.498  1.00  0.00     0.038 A 
HETATM   12  C   UNL     1      23.253  44.771  47.634  1.00  0.00     0.011 A 
ENDROOT
BRANCH   1  13
HETATM   13  C   UNL     1      22.942  46.852  49.073  1.00  0.00     0.274 C 
BRANCH  13  14
HETATM   14  N   UNL     1      24.056  47.798  48.709  1.00  0.00    -0.053 N 
HETATM   15  C   UNL     1      25.384  47.535  49.485  1.00  0.00     0.279 C 
HETATM   16  C   UNL     1      26.510  48.462  48.973  1.00  0.00     0.248 C 
HETATM   17  N   UNL     1      26.149  49.736  48.613  1.00  0.00    -0.358 N 
HETATM   18  O   UNL     1      27.682  48.113  48.946  1.00  0.00    -0.271 OA
HETATM   19  C   UNL     1      24.826  50.096  48.134  1.00  0.00     0.150 C 
HETATM   20  H   UNL     1      26.940  50.296  48.294  1.00  0.00     0.162 HD
HETATM   21  C   UNL     1      23.684  49.272  48.747  1.00  0.00     0.256 C 
HETATM   22  H   UNL     1      24.311  47.594  47.737  1.00  0.00     0.281 HD
BRANCH  15  23
HETATM   23  C   UNL     1      25.186  47.708  51.000  1.00  0.00     0.038 C 
HETATM   24  C   UNL     1      26.056  46.757  51.815  1.00  0.00     0.007 C 
ENDBRANCH  15  23
ENDBRANCH  13  14
ENDBRANCH   1  13
BRANCH   8  25
HETATM   25  C   UNL     1      26.797  42.891  50.899  1.00  0.00     0.274 C 
BRANCH  25  26
HETATM   26  C   UNL     1      27.652  43.075  52.124  1.00  0.00    -0.029 A 
HETATM   27  C   UNL     1      28.989  42.650  52.134  1.00  0.00     0.054 A 
HETATM   28  C   UNL     1      29.768  42.818  53.280  1.00  0.00     0.155 A 
HETATM   29  F   UNL     1      31.040  42.404  53.263  1.00  0.00    -0.203 F 
HETATM   30  C   UNL     1      29.232  43.404  54.418  1.00  0.00     0.154 A 
HETATM   31  F   UNL     1      29.981  43.563  55.515  1.00  0.00    -0.203 F 
HETATM   32  C   UNL     1      27.909  43.829  54.426  1.00  0.00     0.046 A 
HETATM   33  C   UNL     1      27.119  43.667  53.284  1.00  0.00     0.012 A 
ENDBRANCH  25  26
ENDBRANCH   8  25
TORSDOF 5
ENDMDL
MODEL 8
REMARK VINA RESULT:      -8.9      3.949      7.112
REMARK  5 active torsions:
REMARK  status: ('A' for Active; 'I' for Inactive)
REMARK    1  A    between atoms: C_2  and  C_3 
REMARK    2  A    between atoms: N_4  and  C_6 
REMARK    3  A    between atoms: C_6  and  C_7 
REMARK    4  A    between atoms: N_14  and  C_16 
REMARK    5  A    between atoms: C_16  and  C_17 
ROOT
HETATM    1  C   UNL     1      26.259  41.265  49.283  1.00  0.00    -0.032 A 
HETATM    2  C   UNL     1      27.013  42.338  49.807  1.00  0.00     0.020 A 
HETATM    3  C   UNL     1      26.498  43.650  49.848  1.00  0.00     0.002 A 
HETATM    4  C   UNL     1      25.215  43.871  49.348  1.00  0.00     0.076 A 
HETATM    5  O   UNL     1      24.683  45.127  49.303  1.00  0.00    -0.349 OA
HETATM    6  C   UNL     1      24.340  45.610  50.608  1.00  0.00     0.203 C 
HETATM    7  C   UNL     1      25.508  46.375  51.236  1.00  0.00     0.262 C 
HETATM    8  N   UNL     1      26.684  45.479  51.610  1.00  0.00    -0.061 N 
HETATM    9  H   UNL     1      27.401  46.134  51.944  1.00  0.00     0.280 HD
HETATM   10  C   UNL     1      27.302  44.797  50.405  1.00  0.00     0.276 C 
HETATM   11  C   UNL     1      24.456  42.829  48.822  1.00  0.00     0.038 A 
HETATM   12  C   UNL     1      24.962  41.528  48.814  1.00  0.00     0.011 A 
ENDROOT
BRANCH   1  13
HETATM   13  C   UNL     1      26.826  39.859  49.304  1.00  0.00     0.274 C 
BRANCH  13  14
HETATM   14  N   UNL     1      27.200  39.287  47.962  1.00  0.00    -0.053 N 
HETATM   15  C   UNL     1      28.107  38.020  48.049  1.00  0.00     0.279 C 
HETATM   16  C   UNL     1      28.348  37.421  46.645  1.00  0.00     0.248 C 
HETATM   17  N   UNL     1      28.482  38.309  45.607  1.00  0.00    -0.358 N 
HETATM   18  O   UNL     1      28.481  36.219  46.461  1.00  0.00    -0.271 OA
HETATM   19  C   UNL     1      27.875  39.628  45.590  1.00  0.00     0.150 C 
HETATM   20  H   UNL     1      28.647  37.848  44.712  1.00  0.00     0.162 HD
HETATM   21  C   UNL     1      27.760  40.292  46.969  1.00  0.00     0.256 C 
HETATM   22  H   UNL     1      26.336  38.925  47.544  1.00  0.00     0.281 HD
BRANCH  15  23
HETATM   23  C   UNL     1      29.443  38.340  48.740  1.00  0.00     0.038 C 
HETATM   24  C   UNL     1      29.581  37.650  50.093  1.00  0.00     0.007 C 
ENDBRANCH  15  23
ENDBRANCH  13  14
ENDBRANCH   1  13
BRANCH   8  25
HETATM   25  C   UNL     1      26.442  44.528  52.760  1.00  0.00     0.274 C 
BRANCH  25  26
HETATM   26  C   UNL     1      27.680  44.148  53.525  1.00  0.00    -0.029 A 
HETATM   27  C   UNL     1      28.262  45.043  54.435  1.00  0.00     0.054 A 
HETATM   28  C   UNL     1      29.417  44.682  55.132  1.00  0.00     0.155 A 
HETATM   29  F   UNL     1      29.950  45.554  55.994  1.00  0.00    -0.203 F 
HETATM   30  C   UNL     1      30.000  43.440  54.933  1.00  0.00     0.154 A 
HETATM   31  F   UNL     1      31.107  43.096  55.601  1.00  0.00    -0.203 F 
HETATM   32  C   UNL     1      29.438  42.540  54.033  1.00  0.00     0.046 A 
HETATM   33  C   UNL     1      28.282  42.891  53.331  1.00  0.00     0.012 A 
ENDBRANCH  25  26
ENDBRANCH   8  25
TORSDOF 5
ENDMDL
MODEL 9
REMARK VINA RESULT:      -8.9      4.505      8.342
REMARK  5 active torsions:
REMARK  status: ('A' for Active; 'I' for Inactive)
REMARK    1  A    between atoms: C_2  and  C_3 
REMARK    2  A    between atoms: N_4  and  C_6 
REMARK    3  A    between atoms: C_6  and  C_7 
REMARK    4  A    between atoms: N_14  and  C_16 
REMARK    5  A    between atoms: C_16  and  C_17 
ROOT
HETATM    1  C   UNL     1      28.729  41.981  52.873  1.00  0.00    -0.032 A 
HETATM    2  C   UNL     1      27.426  42.508  53.008  1.00  0.00     0.020 A 
HETATM    3  C   UNL     1      27.162  43.615  53.841  1.00  0.00     0.002 A 
HETATM    4  C   UNL     1      28.226  44.183  54.541  1.00  0.00     0.076 A 
HETATM    5  O   UNL     1      28.026  45.218  55.409  1.00  0.00    -0.349 OA
HETATM    6  C   UNL     1      27.725  46.440  54.724  1.00  0.00     0.203 C 
HETATM    7  C   UNL     1      26.216  46.608  54.535  1.00  0.00     0.262 C 
HETATM    8  N   UNL     1      25.618  45.619  53.540  1.00  0.00    -0.061 N 
HETATM    9  H   UNL     1      24.609  45.805  53.576  1.00  0.00     0.280 HD
HETATM   10  C   UNL     1      25.772  44.178  53.989  1.00  0.00     0.276 C 
HETATM   11  C   UNL     1      29.518  43.677  54.427  1.00  0.00     0.038 A 
HETATM   12  C   UNL     1      29.775  42.600  53.576  1.00  0.00     0.011 A 
ENDROOT
BRANCH   1  13
HETATM   13  C   UNL     1      28.984  40.823  51.929  1.00  0.00     0.274 C 
BRANCH  13  14
HETATM   14  N   UNL     1      27.796  40.363  51.124  1.00  0.00    -0.053 N 
HETATM   15  C   UNL     1      28.060  39.069  50.294  1.00  0.00     0.279 C 
HETATM   16  C   UNL     1      26.767  38.594  49.594  1.00  0.00     0.248 C 
HETATM   17  N   UNL     1      25.922  39.567  49.124  1.00  0.00    -0.358 N 
HETATM   18  O   UNL     1      26.525  37.410  49.402  1.00  0.00    -0.271 OA
HETATM   19  C   UNL     1      25.828  40.899  49.696  1.00  0.00     0.150 C 
HETATM   20  H   UNL     1      25.094  39.185  48.667  1.00  0.00     0.162 HD
HETATM   21  C   UNL     1      27.146  41.439  50.268  1.00  0.00     0.256 C 
HETATM   22  H   UNL     1      27.081  40.065  51.797  1.00  0.00     0.281 HD
BRANCH  15  23
HETATM   23  C   UNL     1      29.184  39.288  49.267  1.00  0.00     0.038 C 
HETATM   24  C   UNL     1      30.189  38.142  49.249  1.00  0.00     0.007 C 
ENDBRANCH  15  23
ENDBRANCH  13  14
ENDBRANCH   1  13
BRANCH   8  25
HETATM   25  C   UNL     1      26.013  45.826  52.096  1.00  0.00     0.274 C 
BRANCH  25  26
HETATM   26  C   UNL     1      24.934  45.494  51.102  1.00  0.00    -0.029 A 
HETATM   27  C   UNL     1      24.353  44.216  51.074  1.00  0.00     0.054 A 
HETATM   28  C   UNL     1      23.359  43.919  50.140  1.00  0.00     0.155 A 
HETATM   29  F   UNL     1      22.823  42.694  50.137  1.00  0.00    -0.203 F 
HETATM   30  C   UNL     1      22.936  44.877  49.232  1.00  0.00     0.154 A 
HETATM   31  F   UNL     1      21.984  44.589  48.337  1.00  0.00    -0.203 F 
HETATM   32  C   UNL     1      23.501  46.148  49.243  1.00  0.00     0.046 A 
HETATM   33  C   UNL     1      24.496  46.458  50.174  1.00  0.00     0.012 A 
ENDBRANCH  25  26
ENDBRANCH   8  25
TORSDOF 5
ENDMDL
MODEL 10
REMARK VINA RESULT:      -8.8      3.768      6.385
REMARK  5 active torsions:
REMARK  status: ('A' for Active; 'I' for Inactive)
REMARK    1  A    between atoms: C_2  and  C_3 
REMARK    2  A    between atoms: N_4  and  C_6 
REMARK    3  A    between atoms: C_6  and  C_7 
REMARK    4  A    between atoms: N_14  and  C_16 
REMARK    5  A    between atoms: C_16  and  C_17 
ROOT
HETATM    1  C   UNL     1      25.990  41.024  49.985  1.00  0.00    -0.032 A 
HETATM    2  C   UNL     1      26.929  42.020  50.333  1.00  0.00     0.020 A 
HETATM    3  C   UNL     1      26.556  43.375  50.453  1.00  0.00     0.002 A 
HETATM    4  C   UNL     1      25.225  43.717  50.213  1.00  0.00     0.076 A 
HETATM    5  O   UNL     1      24.813  45.017  50.254  1.00  0.00    -0.349 OA
HETATM    6  C   UNL     1      24.781  45.527  51.593  1.00  0.00     0.203 C 
HETATM    7  C   UNL     1      26.115  46.176  51.966  1.00  0.00     0.262 C 
HETATM    8  N   UNL     1      27.254  45.174  52.115  1.00  0.00    -0.061 N 
HETATM    9  H   UNL     1      28.081  45.757  52.291  1.00  0.00     0.280 HD
HETATM   10  C   UNL     1      27.556  44.440  50.823  1.00  0.00     0.276 C 
HETATM   11  C   UNL     1      24.284  42.752  49.863  1.00  0.00     0.038 A 
HETATM   12  C   UNL     1      24.656  41.409  49.777  1.00  0.00     0.011 A 
ENDROOT
BRANCH   1  13
HETATM   13  C   UNL     1      26.418  39.572  49.916  1.00  0.00     0.274 C 
BRANCH  13  14
HETATM   14  N   UNL     1      27.314  39.209  48.761  1.00  0.00    -0.053 N 
HETATM   15  C   UNL     1      26.708  39.548  47.364  1.00  0.00     0.279 C 
HETATM   16  C   UNL     1      27.729  39.261  46.240  1.00  0.00     0.248 C 
HETATM   17  N   UNL     1      28.543  38.168  46.404  1.00  0.00    -0.358 N 
HETATM   18  O   UNL     1      27.778  39.928  45.215  1.00  0.00    -0.271 OA
HETATM   19  C   UNL     1      28.926  37.636  47.700  1.00  0.00     0.150 C 
HETATM   20  H   UNL     1      29.185  38.032  45.624  1.00  0.00     0.162 HD
HETATM   21  C   UNL     1      27.858  37.789  48.791  1.00  0.00     0.256 C 
HETATM   22  H   UNL     1      28.131  39.828  48.816  1.00  0.00     0.281 HD
BRANCH  15  23
HETATM   23  C   UNL     1      25.403  38.772  47.122  1.00  0.00     0.038 C 
HETATM   24  C   UNL     1      24.295  39.655  46.557  1.00  0.00     0.007 C 
ENDBRANCH  15  23
ENDBRANCH  13  14
ENDBRANCH   1  13
BRANCH   8  25
HETATM   25  C   UNL     1      27.158  44.247  53.305  1.00  0.00     0.274 C 
BRANCH  25  26
HETATM   26  C   UNL     1      28.396  44.195  54.156  1.00  0.00    -0.029 A 
HETATM   27  C   UNL     1      28.623  45.159  55.151  1.00  0.00     0.054 A 
HETATM   28  C   UNL     1      29.781  45.104  55.928  1.00  0.00     0.155 A 
HETATM   29  F   UNL     1      29.971  46.035  56.869  1.00  0.00    -0.203 F 
HETATM   30  C   UNL     1      30.719  44.103  55.726  1.00  0.00     0.154 A 
HETATM   31  F   UNL     1      31.829  44.054  56.472  1.00  0.00    -0.203 F 
HETATM   32  C   UNL     1      30.513  43.140  54.744  1.00  0.00     0.046 A 
HETATM   33  C   UNL     1      29.356  43.184  53.960  1.00  0.00     0.012 A 
ENDBRANCH  25  26
ENDBRANCH   8  25
TORSDOF 5
ENDMDL
