MODEL 1
REMARK VINA RESULT:      -8.2      0.000      0.000
REMARK  7 active torsions:
REMARK  status: ('A' for Active; 'I' for Inactive)
REMARK    1  A    between atoms: C_3  and  N_4 
REMARK       I    between atoms: N_4  and  C_5 
REMARK    2  A    between atoms: C_5  and  C_6 
REMARK    3  A    between atoms: C_7  and  C_8 
REMARK    4  A    between atoms: C_19  and  C_20 
REMARK    5  A    between atoms: C_20  and  C_21 
REMARK    6  A    between atoms: C_21  and  C_22 
REMARK    7  A    between atoms: C_22  and  O_23 
ROOT
HETATM    1  C   UNL     1      27.376  42.682  51.729  1.00  0.00     0.062 A 
HETATM    2  C   UNL     1      27.038  42.959  50.270  1.00  0.00     0.202 A 
HETATM    3  N   UNL     1      27.463  41.853  49.403  1.00  0.00    -0.083 N 
HETATM    4  C   UNL     1      28.150  40.754  49.846  1.00  0.00     0.726 A 
HETATM    5  N   UNL     1      28.449  40.644  51.153  1.00  0.00    -0.192 N 
HETATM    6  N   UNL     1      27.343  41.843  48.057  1.00  0.00    -0.140 NA
HETATM    7  C   UNL     1      27.888  40.652  47.766  1.00  0.00     0.166 A 
HETATM    8  N   UNL     1      28.410  39.965  48.836  1.00  0.00    -0.046 NA
HETATM    9  C   UNL     1      28.048  41.569  52.110  1.00  0.00     0.037 A 
HETATM   10  C   UNL     1      28.414  41.237  53.536  1.00  0.00     0.070 C 
HETATM   11  H   UNL     1      28.920  39.804  51.477  1.00  0.00     0.184 HD
ENDROOT
BRANCH   1  12
HETATM   12  C   UNL     1      26.816  43.606  52.752  1.00  0.00     0.256 C 
HETATM   13  N   UNL     1      27.581  44.737  52.939  1.00  0.00    -0.323 N 
HETATM   14  H   UNL     1      28.460  44.788  52.445  1.00  0.00     0.169 HD
HETATM   15  O   UNL     1      25.781  43.295  53.324  1.00  0.00    -0.267 OA
BRANCH  13  16
HETATM   16  C   UNL     1      27.291  45.834  53.791  1.00  0.00     0.041 A 
HETATM   17  C   UNL     1      28.058  46.013  54.964  1.00  0.00    -0.035 A 
HETATM   18  C   UNL     1      29.185  45.091  55.347  1.00  0.00     0.050 C 
HETATM   19  C   UNL     1      27.789  47.109  55.805  1.00  0.00     0.009 A 
HETATM   20  C   UNL     1      26.773  48.012  55.503  1.00  0.00     0.001 A 
HETATM   21  C   UNL     1      26.018  47.836  54.352  1.00  0.00     0.002 A 
HETATM   22  C   UNL     1      26.277  46.758  53.503  1.00  0.00     0.030 A 
ENDBRANCH  13  16
ENDBRANCH   1  12
BRANCH   2  23
HETATM   23  C   UNL     1      25.572  43.299  50.028  1.00  0.00    -0.027 A 
HETATM   24  C   UNL     1      25.209  44.613  49.684  1.00  0.00     0.028 A 
HETATM   25  C   UNL     1      23.869  44.944  49.482  1.00  0.00     0.011 A 
HETATM   26 BR   UNL     1      23.403  46.720  49.030  1.00  0.00    -0.051 Br
HETATM   27  C   UNL     1      22.875  43.980  49.615  1.00  0.00     0.019 A 
HETATM   28  C   UNL     1      23.222  42.672  49.948  1.00  0.00     0.002 A 
HETATM   29  C   UNL     1      24.561  42.330  50.151  1.00  0.00     0.010 A 
ENDBRANCH   2  23
BRANCH   7  30
HETATM   30  C   UNL     1      27.948  40.110  46.386  1.00  0.00     0.085 C 
BRANCH  30  31
HETATM   31  C   UNL     1      27.448  38.672  46.275  1.00  0.00     0.034 C 
BRANCH  31  32
HETATM   32  C   UNL     1      28.576  37.647  46.253  1.00  0.00     0.164 C 
BRANCH  32  33
HETATM   33  O   UNL     1      28.772  37.127  47.564  1.00  0.00    -0.401 OA
HETATM   34  H   UNL     1      28.445  37.791  48.195  1.00  0.00     0.209 HD
ENDBRANCH  32  33
ENDBRANCH  31  32
ENDBRANCH  30  31
ENDBRANCH   7  30
TORSDOF 7
ENDMDL
MODEL 2
REMARK VINA RESULT:      -8.2      4.282      7.528
REMARK  7 active torsions:
REMARK  status: ('A' for Active; 'I' for Inactive)
REMARK    1  A    between atoms: C_3  and  N_4 
REMARK       I    between atoms: N_4  and  C_5 
REMARK    2  A    between atoms: C_5  and  C_6 
REMARK    3  A    between atoms: C_7  and  C_8 
REMARK    4  A    between atoms: C_19  and  C_20 
REMARK    5  A    between atoms: C_20  and  C_21 
REMARK    6  A    between atoms: C_21  and  C_22 
REMARK    7  A    between atoms: C_22  and  O_23 
ROOT
HETATM    1  C   UNL     1      25.768  47.021  49.922  1.00  0.00     0.062 A 
HETATM    2  C   UNL     1      24.252  46.871  49.962  1.00  0.00     0.202 A 
HETATM    3  N   UNL     1      23.586  47.986  49.276  1.00  0.00    -0.083 N 
HETATM    4  C   UNL     1      24.245  49.060  48.744  1.00  0.00     0.726 A 
HETATM    5  N   UNL     1      25.587  49.117  48.820  1.00  0.00    -0.192 N 
HETATM    6  N   UNL     1      22.246  48.148  49.199  1.00  0.00    -0.140 NA
HETATM    7  C   UNL     1      22.172  49.296  48.510  1.00  0.00     0.166 A 
HETATM    8  N   UNL     1      23.379  49.894  48.230  1.00  0.00    -0.046 NA
HETATM    9  C   UNL     1      26.365  48.104  49.369  1.00  0.00     0.037 A 
HETATM   10  C   UNL     1      27.858  48.314  49.298  1.00  0.00     0.070 C 
HETATM   11  H   UNL     1      26.069  49.898  48.384  1.00  0.00     0.184 HD
ENDROOT
BRANCH   1  12
HETATM   12  C   UNL     1      26.585  45.867  50.381  1.00  0.00     0.256 C 
HETATM   13  N   UNL     1      26.470  45.623  51.732  1.00  0.00    -0.323 N 
HETATM   14  H   UNL     1      25.928  46.279  52.276  1.00  0.00     0.169 HD
HETATM   15  O   UNL     1      27.271  45.267  49.564  1.00  0.00    -0.267 OA
BRANCH  13  16
HETATM   16  C   UNL     1      27.067  44.565  52.464  1.00  0.00     0.041 A 
HETATM   17  C   UNL     1      27.604  44.834  53.743  1.00  0.00    -0.035 A 
HETATM   18  C   UNL     1      27.560  46.201  54.373  1.00  0.00     0.050 C 
HETATM   19  C   UNL     1      28.182  43.785  54.485  1.00  0.00     0.009 A 
HETATM   20  C   UNL     1      28.241  42.492  53.972  1.00  0.00     0.001 A 
HETATM   21  C   UNL     1      27.715  42.228  52.715  1.00  0.00     0.002 A 
HETATM   22  C   UNL     1      27.131  43.255  51.970  1.00  0.00     0.030 A 
ENDBRANCH  13  16
ENDBRANCH   1  12
BRANCH   2  23
HETATM   23  C   UNL     1      23.748  45.534  49.431  1.00  0.00    -0.027 A 
HETATM   24  C   UNL     1      23.653  45.327  48.043  1.00  0.00     0.028 A 
HETATM   25  C   UNL     1      23.172  44.116  47.544  1.00  0.00     0.011 A 
HETATM   26 BR   UNL     1      23.043  43.863  45.674  1.00  0.00    -0.051 Br
HETATM   27  C   UNL     1      22.783  43.098  48.408  1.00  0.00     0.019 A 
HETATM   28  C   UNL     1      22.880  43.288  49.785  1.00  0.00     0.002 A 
HETATM   29  C   UNL     1      23.362  44.495  50.297  1.00  0.00     0.010 A 
ENDBRANCH   2  23
BRANCH   7  30
HETATM   30  C   UNL     1      20.885  49.903  48.090  1.00  0.00     0.085 C 
BRANCH  30  31
HETATM   31  C   UNL     1      20.548  51.192  48.834  1.00  0.00     0.034 C 
BRANCH  31  32
HETATM   32  C   UNL     1      20.501  51.015  50.347  1.00  0.00     0.164 C 
BRANCH  32  33
HETATM   33  O   UNL     1      21.828  50.966  50.862  1.00  0.00    -0.401 OA
HETATM   34  H   UNL     1      22.403  50.618  50.159  1.00  0.00     0.209 HD
ENDBRANCH  32  33
ENDBRANCH  31  32
ENDBRANCH  30  31
ENDBRANCH   7  30
TORSDOF 7
ENDMDL
MODEL 3
REMARK VINA RESULT:      -8.0      2.796      3.558
REMARK  7 active torsions:
REMARK  status: ('A' for Active; 'I' for Inactive)
REMARK    1  A    between atoms: C_3  and  N_4 
REMARK       I    between atoms: N_4  and  C_5 
REMARK    2  A    between atoms: C_5  and  C_6 
REMARK    3  A    between atoms: C_7  and  C_8 
REMARK    4  A    between atoms: C_19  and  C_20 
REMARK    5  A    between atoms: C_20  and  C_21 
REMARK    6  A    between atoms: C_21  and  C_22 
REMARK    7  A    between atoms: C_22  and  O_23 
ROOT
HETATM    1  C   UNL     1      28.048  42.338  51.530  1.00  0.00     0.062 A 
HETATM    2  C   UNL     1      27.312  42.926  50.333  1.00  0.00     0.202 A 
HETATM    3  N   UNL     1      26.389  41.950  49.740  1.00  0.00    -0.083 N 
HETATM    4  C   UNL     1      26.272  40.653  50.163  1.00  0.00     0.726 A 
HETATM    5  N   UNL     1      27.020  40.224  51.195  1.00  0.00    -0.192 N 
HETATM    6  N   UNL     1      25.643  42.173  48.636  1.00  0.00    -0.140 NA
HETATM    7  C   UNL     1      25.018  40.992  48.513  1.00  0.00     0.166 A 
HETATM    8  N   UNL     1      25.393  40.030  49.421  1.00  0.00    -0.046 NA
HETATM    9  C   UNL     1      27.882  41.047  51.909  1.00  0.00     0.037 A 
HETATM   10  C   UNL     1      28.582  40.404  53.082  1.00  0.00     0.070 C 
HETATM   11  H   UNL     1      26.893  39.272  51.527  1.00  0.00     0.184 HD
ENDROOT
BRANCH   1  12
HETATM   12  C   UNL     1      28.853  43.267  52.366  1.00  0.00     0.256 C 
HETATM   13  N   UNL     1      28.313  43.481  53.615  1.00  0.00    -0.323 N 
HETATM   14  H   UNL     1      27.411  43.068  53.806  1.00  0.00     0.169 HD
HETATM   15  O   UNL     1      29.872  43.753  51.894  1.00  0.00    -0.267 OA
BRANCH  13  16
HETATM   16  C   UNL     1      28.866  44.258  54.665  1.00  0.00     0.041 A 
HETATM   17  C   UNL     1      28.171  45.407  55.106  1.00  0.00    -0.035 A 
HETATM   18  C   UNL     1      26.855  45.838  54.516  1.00  0.00     0.050 C 
HETATM   19  C   UNL     1      28.704  46.175  56.160  1.00  0.00     0.009 A 
HETATM   20  C   UNL     1      29.908  45.824  56.765  1.00  0.00     0.001 A 
HETATM   21  C   UNL     1      30.592  44.697  56.330  1.00  0.00     0.002 A 
HETATM   22  C   UNL     1      30.073  43.920  55.292  1.00  0.00     0.030 A 
ENDBRANCH  13  16
ENDBRANCH   1  12
BRANCH   2  23
HETATM   23  C   UNL     1      26.591  44.235  50.633  1.00  0.00    -0.027 A 
HETATM   24  C   UNL     1      27.018  45.423  50.014  1.00  0.00     0.028 A 
HETATM   25  C   UNL     1      26.382  46.632  50.297  1.00  0.00     0.011 A 
HETATM   26 BR   UNL     1      26.980  48.219  49.460  1.00  0.00    -0.051 Br
HETATM   27  C   UNL     1      25.317  46.680  51.190  1.00  0.00     0.019 A 
HETATM   28  C   UNL     1      24.879  45.508  51.804  1.00  0.00     0.002 A 
HETATM   29  C   UNL     1      25.507  44.292  51.527  1.00  0.00     0.010 A 
ENDBRANCH   2  23
BRANCH   7  30
HETATM   30  C   UNL     1      24.005  40.721  47.463  1.00  0.00     0.085 C 
BRANCH  30  31
HETATM   31  C   UNL     1      22.892  41.763  47.409  1.00  0.00     0.034 C 
BRANCH  31  32
HETATM   32  C   UNL     1      23.066  42.767  46.275  1.00  0.00     0.164 C 
BRANCH  32  33
HETATM   33  O   UNL     1      23.792  43.897  46.748  1.00  0.00    -0.401 OA
HETATM   34  H   UNL     1      24.565  44.012  46.168  1.00  0.00     0.209 HD
ENDBRANCH  32  33
ENDBRANCH  31  32
ENDBRANCH  30  31
ENDBRANCH   7  30
TORSDOF 7
ENDMDL
MODEL 4
REMARK VINA RESULT:      -8.0      3.893      7.973
REMARK  7 active torsions:
REMARK  status: ('A' for Active; 'I' for Inactive)
REMARK    1  A    between atoms: C_3  and  N_4 
REMARK       I    between atoms: N_4  and  C_5 
REMARK    2  A    between atoms: C_5  and  C_6 
REMARK    3  A    between atoms: C_7  and  C_8 
REMARK    4  A    between atoms: C_19  and  C_20 
REMARK    5  A    between atoms: C_20  and  C_21 
REMARK    6  A    between atoms: C_21  and  C_22 
REMARK    7  A    between atoms: C_22  and  O_23 
ROOT
HETATM    1  C   UNL     1      24.412  45.144  50.656  1.00  0.00     0.062 A 
HETATM    2  C   UNL     1      24.682  46.509  51.274  1.00  0.00     0.202 A 
HETATM    3  N   UNL     1      25.527  46.398  52.470  1.00  0.00    -0.083 N 
HETATM    4  C   UNL     1      25.945  45.209  53.002  1.00  0.00     0.726 A 
HETATM    5  N   UNL     1      25.593  44.056  52.404  1.00  0.00    -0.192 N 
HETATM    6  N   UNL     1      25.885  47.438  53.255  1.00  0.00    -0.140 NA
HETATM    7  C   UNL     1      26.611  46.806  54.190  1.00  0.00     0.166 A 
HETATM    8  N   UNL     1      26.654  45.436  54.077  1.00  0.00    -0.046 NA
HETATM    9  C   UNL     1      24.863  43.999  51.223  1.00  0.00     0.037 A 
HETATM   10  C   UNL     1      24.629  42.617  50.663  1.00  0.00     0.070 C 
HETATM   11  H   UNL     1      25.945  43.182  52.784  1.00  0.00     0.184 HD
ENDROOT
BRANCH   1  12
HETATM   12  C   UNL     1      23.755  45.110  49.322  1.00  0.00     0.256 C 
HETATM   13  N   UNL     1      22.398  45.338  49.378  1.00  0.00    -0.323 N 
HETATM   14  H   UNL     1      21.980  45.419  50.293  1.00  0.00     0.169 HD
HETATM   15  O   UNL     1      24.440  44.881  48.333  1.00  0.00    -0.267 OA
BRANCH  13  16
HETATM   16  C   UNL     1      21.501  45.433  48.283  1.00  0.00     0.041 A 
HETATM   17  C   UNL     1      20.880  46.673  48.011  1.00  0.00    -0.035 A 
HETATM   18  C   UNL     1      21.138  47.909  48.831  1.00  0.00     0.050 C 
HETATM   19  C   UNL     1      20.002  46.782  46.916  1.00  0.00     0.009 A 
HETATM   20  C   UNL     1      19.730  45.683  46.104  1.00  0.00     0.001 A 
HETATM   21  C   UNL     1      20.338  44.465  46.371  1.00  0.00     0.002 A 
HETATM   22  C   UNL     1      21.218  44.343  47.449  1.00  0.00     0.030 A 
ENDBRANCH  13  16
ENDBRANCH   1  12
BRANCH   2  23
HETATM   23  C   UNL     1      25.263  47.526  50.298  1.00  0.00    -0.027 A 
HETATM   24  C   UNL     1      24.411  48.446  49.661  1.00  0.00     0.028 A 
HETATM   25  C   UNL     1      24.926  49.367  48.748  1.00  0.00     0.011 A 
HETATM   26 BR   UNL     1      23.760  50.589  47.897  1.00  0.00    -0.051 Br
HETATM   27  C   UNL     1      26.285  49.391  48.457  1.00  0.00     0.019 A 
HETATM   28  C   UNL     1      27.142  48.490  49.087  1.00  0.00     0.002 A 
HETATM   29  C   UNL     1      26.637  47.564  50.004  1.00  0.00     0.010 A 
ENDBRANCH   2  23
BRANCH   7  30
HETATM   30  C   UNL     1      27.308  47.521  55.288  1.00  0.00     0.085 C 
BRANCH  30  31
HETATM   31  C   UNL     1      28.095  46.597  56.212  1.00  0.00     0.034 C 
BRANCH  31  32
HETATM   32  C   UNL     1      29.427  46.151  55.620  1.00  0.00     0.164 C 
BRANCH  32  33
HETATM   33  O   UNL     1      29.408  44.743  55.411  1.00  0.00    -0.401 OA
HETATM   34  H   UNL     1      28.567  44.406  55.765  1.00  0.00     0.209 HD
ENDBRANCH  32  33
ENDBRANCH  31  32
ENDBRANCH  30  31
ENDBRANCH   7  30
TORSDOF 7
ENDMDL
MODEL 5
REMARK VINA RESULT:      -7.8      7.661     11.316
REMARK  7 active torsions:
REMARK  status: ('A' for Active; 'I' for Inactive)
REMARK    1  A    between atoms: C_3  and  N_4 
REMARK       I    between atoms: N_4  and  C_5 
REMARK    2  A    between atoms: C_5  and  C_6 
REMARK    3  A    between atoms: C_7  and  C_8 
REMARK    4  A    between atoms: C_19  and  C_20 
REMARK    5  A    between atoms: C_20  and  C_21 
REMARK    6  A    between atoms: C_21  and  C_22 
REMARK    7  A    between atoms: C_22  and  O_23 
ROOT
HETATM    1  C   UNL     1      21.428  49.285  48.800  1.00  0.00     0.062 A 
HETATM    2  C   UNL     1      19.993  48.888  49.122  1.00  0.00     0.202 A 
HETATM    3  N   UNL     1      19.115  50.063  49.190  1.00  0.00    -0.083 N 
HETATM    4  C   UNL     1      19.553  51.353  49.063  1.00  0.00     0.726 A 
HETATM    5  N   UNL     1      20.859  51.590  48.840  1.00  0.00    -0.192 N 
HETATM    6  N   UNL     1      17.803  50.022  49.510  1.00  0.00    -0.140 NA
HETATM    7  C   UNL     1      17.491  51.326  49.453  1.00  0.00     0.166 A 
HETATM    8  N   UNL     1      18.543  52.173  49.199  1.00  0.00    -0.046 NA
HETATM    9  C   UNL     1      21.801  50.581  48.673  1.00  0.00     0.037 A 
HETATM   10  C   UNL     1      23.204  51.041  48.358  1.00  0.00     0.070 C 
HETATM   11  H   UNL     1      21.165  52.549  48.704  1.00  0.00     0.184 HD
ENDROOT
BRANCH   1  12
HETATM   12  C   UNL     1      22.389  48.195  48.484  1.00  0.00     0.256 C 
HETATM   13  N   UNL     1      23.096  47.758  49.583  1.00  0.00    -0.323 N 
HETATM   14  H   UNL     1      22.961  48.258  50.449  1.00  0.00     0.169 HD
HETATM   15  O   UNL     1      22.478  47.804  47.328  1.00  0.00    -0.267 OA
BRANCH  13  16
HETATM   16  C   UNL     1      24.036  46.696  49.628  1.00  0.00     0.041 A 
HETATM   17  C   UNL     1      25.415  47.001  49.613  1.00  0.00    -0.035 A 
HETATM   18  C   UNL     1      25.935  48.413  49.563  1.00  0.00     0.050 C 
HETATM   19  C   UNL     1      26.355  45.954  49.676  1.00  0.00     0.009 A 
HETATM   20  C   UNL     1      25.945  44.625  49.742  1.00  0.00     0.001 A 
HETATM   21  C   UNL     1      24.590  44.325  49.755  1.00  0.00     0.002 A 
HETATM   22  C   UNL     1      23.645  45.352  49.702  1.00  0.00     0.030 A 
ENDBRANCH  13  16
ENDBRANCH   1  12
BRANCH   2  23
HETATM   23  C   UNL     1      19.415  47.839  48.179  1.00  0.00    -0.027 A 
HETATM   24  C   UNL     1      19.096  48.192  46.856  1.00  0.00     0.028 A 
HETATM   25  C   UNL     1      18.545  47.248  45.988  1.00  0.00     0.011 A 
HETATM   26 BR   UNL     1      18.115  47.748  44.216  1.00  0.00    -0.051 Br
HETATM   27  C   UNL     1      18.307  45.947  46.417  1.00  0.00     0.019 A 
HETATM   28  C   UNL     1      18.627  45.581  47.724  1.00  0.00     0.002 A 
HETATM   29  C   UNL     1      19.180  46.518  48.600  1.00  0.00     0.010 A 
ENDBRANCH   2  23
BRANCH   7  30
HETATM   30  C   UNL     1      16.113  51.834  49.666  1.00  0.00     0.085 C 
BRANCH  30  31
HETATM   31  C   UNL     1      16.066  53.290  50.122  1.00  0.00     0.034 C 
BRANCH  31  32
HETATM   32  C   UNL     1      14.647  53.834  50.241  1.00  0.00     0.164 C 
BRANCH  32  33
HETATM   33  O   UNL     1      13.933  53.093  51.224  1.00  0.00    -0.401 OA
HETATM   34  H   UNL     1      13.165  52.689  50.786  1.00  0.00     0.209 HD
ENDBRANCH  32  33
ENDBRANCH  31  32
ENDBRANCH  30  31
ENDBRANCH   7  30
TORSDOF 7
ENDMDL
MODEL 6
REMARK VINA RESULT:      -7.7      3.476      7.797
REMARK  7 active torsions:
REMARK  status: ('A' for Active; 'I' for Inactive)
REMARK    1  A    between atoms: C_3  and  N_4 
REMARK       I    between atoms: N_4  and  C_5 
REMARK    2  A    between atoms: C_5  and  C_6 
REMARK    3  A    between atoms: C_7  and  C_8 
REMARK    4  A    between atoms: C_19  and  C_20 
REMARK    5  A    between atoms: C_20  and  C_21 
REMARK    6  A    between atoms: C_21  and  C_22 
REMARK    7  A    between atoms: C_22  and  O_23 
ROOT
HETATM    1  C   UNL     1      25.478  42.642  49.468  1.00  0.00     0.062 A 
HETATM    2  C   UNL     1      26.080  43.940  49.994  1.00  0.00     0.202 A 
HETATM    3  N   UNL     1      25.219  45.090  49.691  1.00  0.00    -0.083 N 
HETATM    4  C   UNL     1      24.067  45.011  48.958  1.00  0.00     0.726 A 
HETATM    5  N   UNL     1      23.661  43.817  48.490  1.00  0.00    -0.192 N 
HETATM    6  N   UNL     1      25.522  46.373  49.988  1.00  0.00    -0.140 NA
HETATM    7  C   UNL     1      24.448  47.005  49.491  1.00  0.00     0.166 A 
HETATM    8  N   UNL     1      23.543  46.203  48.836  1.00  0.00    -0.046 NA
HETATM    9  C   UNL     1      24.325  42.625  48.757  1.00  0.00     0.037 A 
HETATM   10  C   UNL     1      23.679  41.377  48.208  1.00  0.00     0.070 C 
HETATM   11  H   UNL     1      22.782  43.763  47.983  1.00  0.00     0.184 HD
ENDROOT
BRANCH   1  12
HETATM   12  C   UNL     1      26.122  41.368  49.884  1.00  0.00     0.256 C 
HETATM   13  N   UNL     1      27.298  41.109  49.214  1.00  0.00    -0.323 N 
HETATM   14  H   UNL     1      27.557  41.742  48.473  1.00  0.00     0.169 HD
HETATM   15  O   UNL     1      25.573  40.681  50.736  1.00  0.00    -0.267 OA
BRANCH  13  16
HETATM   16  C   UNL     1      28.177  40.016  49.423  1.00  0.00     0.041 A 
HETATM   17  C   UNL     1      28.486  39.167  48.336  1.00  0.00    -0.035 A 
HETATM   18  C   UNL     1      27.928  39.381  46.954  1.00  0.00     0.050 C 
HETATM   19  C   UNL     1      29.373  38.091  48.529  1.00  0.00     0.009 A 
HETATM   20  C   UNL     1      29.940  37.845  49.777  1.00  0.00     0.001 A 
HETATM   21  C   UNL     1      29.636  38.676  50.845  1.00  0.00     0.002 A 
HETATM   22  C   UNL     1      28.765  39.753  50.669  1.00  0.00     0.030 A 
ENDBRANCH  13  16
ENDBRANCH   1  12
BRANCH   2  23
HETATM   23  C   UNL     1      26.428  43.903  51.478  1.00  0.00    -0.027 A 
HETATM   24  C   UNL     1      27.741  43.600  51.878  1.00  0.00     0.028 A 
HETATM   25  C   UNL     1      28.068  43.541  53.233  1.00  0.00     0.011 A 
HETATM   26 BR   UNL     1      29.838  43.121  53.749  1.00  0.00    -0.051 Br
HETATM   27  C   UNL     1      27.103  43.783  54.205  1.00  0.00     0.019 A 
HETATM   28  C   UNL     1      25.800  44.093  53.821  1.00  0.00     0.002 A 
HETATM   29  C   UNL     1      25.462  44.156  52.467  1.00  0.00     0.010 A 
ENDBRANCH   2  23
BRANCH   7  30
HETATM   30  C   UNL     1      24.246  48.470  49.616  1.00  0.00     0.085 C 
BRANCH  30  31
HETATM   31  C   UNL     1      22.876  48.938  49.132  1.00  0.00     0.034 C 
BRANCH  31  32
HETATM   32  C   UNL     1      22.956  50.059  48.103  1.00  0.00     0.164 C 
BRANCH  32  33
HETATM   33  O   UNL     1      24.163  49.936  47.358  1.00  0.00    -0.401 OA
HETATM   34  H   UNL     1      24.885  49.785  47.992  1.00  0.00     0.209 HD
ENDBRANCH  32  33
ENDBRANCH  31  32
ENDBRANCH  30  31
ENDBRANCH   7  30
TORSDOF 7
ENDMDL
MODEL 7
REMARK VINA RESULT:      -7.6      3.605      5.475
REMARK  7 active torsions:
REMARK  status: ('A' for Active; 'I' for Inactive)
REMARK    1  A    between atoms: C_3  and  N_4 
REMARK       I    between atoms: N_4  and  C_5 
REMARK    2  A    between atoms: C_5  and  C_6 
REMARK    3  A    between atoms: C_7  and  C_8 
REMARK    4  A    between atoms: C_19  and  C_20 
REMARK    5  A    between atoms: C_20  and  C_21 
REMARK    6  A    between atoms: C_21  and  C_22 
REMARK    7  A    between atoms: C_22  and  O_23 
ROOT
HETATM    1  C   UNL     1      25.498  43.550  49.836  1.00  0.00     0.062 A 
HETATM    2  C   UNL     1      25.189  42.102  49.475  1.00  0.00     0.202 A 
HETATM    3  N   UNL     1      24.008  42.007  48.608  1.00  0.00    -0.083 N 
HETATM    4  C   UNL     1      23.239  43.079  48.243  1.00  0.00     0.726 A 
HETATM    5  N   UNL     1      23.572  44.309  48.673  1.00  0.00    -0.192 N 
HETATM    6  N   UNL     1      23.468  40.848  48.173  1.00  0.00    -0.140 NA
HETATM    7  C   UNL     1      22.428  41.308  47.460  1.00  0.00     0.166 A 
HETATM    8  N   UNL     1      22.246  42.670  47.496  1.00  0.00    -0.046 NA
HETATM    9  C   UNL     1      24.705  44.572  49.435  1.00  0.00     0.037 A 
HETATM   10  C   UNL     1      24.953  46.025  49.759  1.00  0.00     0.070 C 
HETATM   11  H   UNL     1      23.019  45.102  48.361  1.00  0.00     0.184 HD
ENDROOT
BRANCH   1  12
HETATM   12  C   UNL     1      26.786  43.826  50.526  1.00  0.00     0.256 C 
HETATM   13  N   UNL     1      26.850  43.290  51.793  1.00  0.00    -0.323 N 
HETATM   14  H   UNL     1      26.015  42.849  52.151  1.00  0.00     0.169 HD
HETATM   15  O   UNL     1      27.637  44.488  49.945  1.00  0.00    -0.267 OA
BRANCH  13  16
HETATM   16  C   UNL     1      27.956  43.322  52.680  1.00  0.00     0.041 A 
HETATM   17  C   UNL     1      27.880  44.123  53.842  1.00  0.00    -0.035 A 
HETATM   18  C   UNL     1      26.664  44.941  54.188  1.00  0.00     0.050 C 
HETATM   19  C   UNL     1      28.966  44.147  54.738  1.00  0.00     0.009 A 
HETATM   20  C   UNL     1      30.116  43.401  54.490  1.00  0.00     0.001 A 
HETATM   21  C   UNL     1      30.192  42.616  53.349  1.00  0.00     0.002 A 
HETATM   22  C   UNL     1      29.120  42.574  52.454  1.00  0.00     0.030 A 
ENDBRANCH  13  16
ENDBRANCH   1  12
BRANCH   2  23
HETATM   23  C   UNL     1      26.368  41.353  48.862  1.00  0.00    -0.027 A 
HETATM   24  C   UNL     1      27.074  40.415  49.636  1.00  0.00     0.028 A 
HETATM   25  C   UNL     1      28.168  39.738  49.095  1.00  0.00     0.011 A 
HETATM   26 BR   UNL     1      29.109  38.488  50.157  1.00  0.00    -0.051 Br
HETATM   27  C   UNL     1      28.574  39.979  47.787  1.00  0.00     0.019 A 
HETATM   28  C   UNL     1      27.877  40.901  47.007  1.00  0.00     0.002 A 
HETATM   29  C   UNL     1      26.779  41.582  47.537  1.00  0.00     0.010 A 
ENDBRANCH   2  23
BRANCH   7  30
HETATM   30  C   UNL     1      21.518  40.419  46.697  1.00  0.00     0.085 C 
BRANCH  30  31
HETATM   31  C   UNL     1      21.816  38.934  46.888  1.00  0.00     0.034 C 
BRANCH  31  32
HETATM   32  C   UNL     1      20.590  38.125  47.292  1.00  0.00     0.164 C 
BRANCH  32  33
HETATM   33  O   UNL     1      19.751  38.916  48.128  1.00  0.00    -0.401 OA
HETATM   34  H   UNL     1      18.863  38.920  47.733  1.00  0.00     0.209 HD
ENDBRANCH  32  33
ENDBRANCH  31  32
ENDBRANCH  30  31
ENDBRANCH   7  30
TORSDOF 7
ENDMDL
MODEL 8
REMARK VINA RESULT:      -7.6      2.202      3.090
REMARK  7 active torsions:
REMARK  status: ('A' for Active; 'I' for Inactive)
REMARK    1  A    between atoms: C_3  and  N_4 
REMARK       I    between atoms: N_4  and  C_5 
REMARK    2  A    between atoms: C_5  and  C_6 
REMARK    3  A    between atoms: C_7  and  C_8 
REMARK    4  A    between atoms: C_19  and  C_20 
REMARK    5  A    between atoms: C_20  and  C_21 
REMARK    6  A    between atoms: C_21  and  C_22 
REMARK    7  A    between atoms: C_22  and  O_23 
ROOT
HETATM    1  C   UNL     1      28.434  40.788  50.601  1.00  0.00     0.062 A 
HETATM    2  C   UNL     1      27.895  41.638  49.457  1.00  0.00     0.202 A 
HETATM    3  N   UNL     1      27.800  40.864  48.213  1.00  0.00    -0.083 N 
HETATM    4  C   UNL     1      28.222  39.569  48.084  1.00  0.00     0.726 A 
HETATM    5  N   UNL     1      28.741  38.933  49.150  1.00  0.00    -0.192 N 
HETATM    6  N   UNL     1      27.407  41.370  47.024  1.00  0.00    -0.140 NA
HETATM    7  C   UNL     1      27.519  40.286  46.241  1.00  0.00     0.166 A 
HETATM    8  N   UNL     1      28.033  39.168  46.854  1.00  0.00    -0.046 NA
HETATM    9  C   UNL     1      28.826  39.504  50.415  1.00  0.00     0.037 A 
HETATM   10  C   UNL     1      29.369  38.610  51.503  1.00  0.00     0.070 C 
HETATM   11  H   UNL     1      29.011  37.958  49.054  1.00  0.00     0.184 HD
ENDROOT
BRANCH   1  12
HETATM   12  C   UNL     1      28.383  41.365  51.970  1.00  0.00     0.256 C 
HETATM   13  N   UNL     1      29.333  42.339  52.185  1.00  0.00    -0.323 N 
HETATM   14  H   UNL     1      30.003  42.503  51.447  1.00  0.00     0.169 HD
HETATM   15  O   UNL     1      27.552  40.937  52.760  1.00  0.00    -0.267 OA
BRANCH  13  16
HETATM   16  C   UNL     1      29.506  43.122  53.355  1.00  0.00     0.041 A 
HETATM   17  C   UNL     1      28.589  44.162  53.626  1.00  0.00    -0.035 A 
HETATM   18  C   UNL     1      27.422  44.472  52.726  1.00  0.00     0.050 C 
HETATM   19  C   UNL     1      28.742  44.932  54.795  1.00  0.00     0.009 A 
HETATM   20  C   UNL     1      29.789  44.690  55.681  1.00  0.00     0.001 A 
HETATM   21  C   UNL     1      30.691  43.669  55.415  1.00  0.00     0.002 A 
HETATM   22  C   UNL     1      30.548  42.891  54.264  1.00  0.00     0.030 A 
ENDBRANCH  13  16
ENDBRANCH   1  12
BRANCH   2  23
HETATM   23  C   UNL     1      26.568  42.322  49.768  1.00  0.00    -0.027 A 
HETATM   24  C   UNL     1      26.461  43.719  49.649  1.00  0.00     0.028 A 
HETATM   25  C   UNL     1      25.259  44.361  49.952  1.00  0.00     0.011 A 
HETATM   26 BR   UNL     1      25.140  46.241  49.794  1.00  0.00    -0.051 Br
HETATM   27  C   UNL     1      24.153  43.630  50.372  1.00  0.00     0.019 A 
HETATM   28  C   UNL     1      24.244  42.244  50.487  1.00  0.00     0.002 A 
HETATM   29  C   UNL     1      25.442  41.591  50.184  1.00  0.00     0.010 A 
ENDBRANCH   2  23
BRANCH   7  30
HETATM   30  C   UNL     1      27.136  40.284  44.807  1.00  0.00     0.085 C 
BRANCH  30  31
HETATM   31  C   UNL     1      28.119  41.036  43.915  1.00  0.00     0.034 C 
BRANCH  31  32
HETATM   32  C   UNL     1      29.072  40.113  43.164  1.00  0.00     0.164 C 
BRANCH  32  33
HETATM   33  O   UNL     1      29.988  40.892  42.402  1.00  0.00    -0.401 OA
HETATM   34  H   UNL     1      29.629  41.794  42.344  1.00  0.00     0.209 HD
ENDBRANCH  32  33
ENDBRANCH  31  32
ENDBRANCH  30  31
ENDBRANCH   7  30
TORSDOF 7
ENDMDL
MODEL 9
REMARK VINA RESULT:      -7.5      3.319      5.624
REMARK  7 active torsions:
REMARK  status: ('A' for Active; 'I' for Inactive)
REMARK    1  A    between atoms: C_3  and  N_4 
REMARK       I    between atoms: N_4  and  C_5 
REMARK    2  A    between atoms: C_5  and  C_6 
REMARK    3  A    between atoms: C_7  and  C_8 
REMARK    4  A    between atoms: C_19  and  C_20 
REMARK    5  A    between atoms: C_20  and  C_21 
REMARK    6  A    between atoms: C_21  and  C_22 
REMARK    7  A    between atoms: C_22  and  O_23 
ROOT
HETATM    1  C   UNL     1      25.752  44.772  52.730  1.00  0.00     0.062 A 
HETATM    2  C   UNL     1      25.225  43.686  51.801  1.00  0.00     0.202 A 
HETATM    3  N   UNL     1      24.566  44.264  50.622  1.00  0.00    -0.083 N 
HETATM    4  C   UNL     1      24.380  45.606  50.431  1.00  0.00     0.726 A 
HETATM    5  N   UNL     1      24.834  46.474  51.352  1.00  0.00    -0.192 N 
HETATM    6  N   UNL     1      23.958  43.543  49.654  1.00  0.00    -0.140 NA
HETATM    7  C   UNL     1      23.515  44.524  48.854  1.00  0.00     0.166 A 
HETATM    8  N   UNL     1      23.739  45.803  49.308  1.00  0.00    -0.046 NA
HETATM    9  C   UNL     1      25.546  46.088  52.482  1.00  0.00     0.037 A 
HETATM   10  C   UNL     1      26.038  47.211  53.362  1.00  0.00     0.070 C 
HETATM   11  H   UNL     1      24.728  47.470  51.179  1.00  0.00     0.184 HD
ENDROOT
BRANCH   1  12
HETATM   12  C   UNL     1      26.631  44.350  53.853  1.00  0.00     0.256 C 
HETATM   13  N   UNL     1      27.955  44.677  53.660  1.00  0.00    -0.323 N 
HETATM   14  H   UNL     1      28.206  45.082  52.770  1.00  0.00     0.169 HD
HETATM   15  O   UNL     1      26.132  43.761  54.803  1.00  0.00    -0.267 OA
BRANCH  13  16
HETATM   16  C   UNL     1      29.027  44.471  54.565  1.00  0.00     0.041 A 
HETATM   17  C   UNL     1      29.279  45.439  55.562  1.00  0.00    -0.035 A 
HETATM   18  C   UNL     1      28.446  46.684  55.715  1.00  0.00     0.050 C 
HETATM   19  C   UNL     1      30.330  45.233  56.476  1.00  0.00     0.009 A 
HETATM   20  C   UNL     1      31.130  44.096  56.404  1.00  0.00     0.001 A 
HETATM   21  C   UNL     1      30.885  43.145  55.424  1.00  0.00     0.002 A 
HETATM   22  C   UNL     1      29.841  43.330  54.515  1.00  0.00     0.030 A 
ENDBRANCH  13  16
ENDBRANCH   1  12
BRANCH   2  23
HETATM   23  C   UNL     1      26.278  42.666  51.383  1.00  0.00    -0.027 A 
HETATM   24  C   UNL     1      26.495  42.408  50.017  1.00  0.00     0.028 A 
HETATM   25  C   UNL     1      27.439  41.460  49.622  1.00  0.00     0.011 A 
HETATM   26 BR   UNL     1      27.708  41.124  47.780  1.00  0.00    -0.051 Br
HETATM   27  C   UNL     1      28.179  40.760  50.568  1.00  0.00     0.019 A 
HETATM   28  C   UNL     1      27.980  41.012  51.924  1.00  0.00     0.002 A 
HETATM   29  C   UNL     1      27.038  41.960  52.332  1.00  0.00     0.010 A 
ENDBRANCH   2  23
BRANCH   7  30
HETATM   30  C   UNL     1      22.811  44.264  47.573  1.00  0.00     0.085 C 
BRANCH  30  31
HETATM   31  C   UNL     1      21.684  45.251  47.286  1.00  0.00     0.034 C 
BRANCH  31  32
HETATM   32  C   UNL     1      20.388  44.907  48.011  1.00  0.00     0.164 C 
BRANCH  32  33
HETATM   33  O   UNL     1      20.372  45.542  49.285  1.00  0.00    -0.401 OA
HETATM   34  H   UNL     1      19.657  46.200  49.275  1.00  0.00     0.209 HD
ENDBRANCH  32  33
ENDBRANCH  31  32
ENDBRANCH  30  31
ENDBRANCH   7  30
TORSDOF 7
ENDMDL
MODEL 10
REMARK VINA RESULT:      -7.5      1.895      7.487
REMARK  7 active torsions:
REMARK  status: ('A' for Active; 'I' for Inactive)
REMARK    1  A    between atoms: C_3  and  N_4 
REMARK       I    between atoms: N_4  and  C_5 
REMARK    2  A    between atoms: C_5  and  C_6 
REMARK    3  A    between atoms: C_7  and  C_8 
REMARK    4  A    between atoms: C_19  and  C_20 
REMARK    5  A    between atoms: C_20  and  C_21 
REMARK    6  A    between atoms: C_21  and  C_22 
REMARK    7  A    between atoms: C_22  and  O_23 
ROOT
HETATM    1  C   UNL     1      27.437  41.692  52.000  1.00  0.00     0.062 A 
HETATM    2  C   UNL     1      26.679  42.929  52.466  1.00  0.00     0.202 A 
HETATM    3  N   UNL     1      27.463  43.703  53.436  1.00  0.00    -0.083 N 
HETATM    4  C   UNL     1      28.683  43.313  53.918  1.00  0.00     0.726 A 
HETATM    5  N   UNL     1      29.232  42.166  53.479  1.00  0.00    -0.192 N 
HETATM    6  N   UNL     1      27.025  44.818  54.061  1.00  0.00    -0.140 NA
HETATM    7  C   UNL     1      28.084  45.105  54.833  1.00  0.00     0.166 A 
HETATM    8  N   UNL     1      29.112  44.194  54.785  1.00  0.00    -0.046 NA
HETATM    9  C   UNL     1      28.650  41.363  52.505  1.00  0.00     0.037 A 
HETATM   10  C   UNL     1      29.451  40.154  52.089  1.00  0.00     0.070 C 
HETATM   11  H   UNL     1      30.157  41.909  53.812  1.00  0.00     0.184 HD
ENDROOT
BRANCH   1  12
HETATM   12  C   UNL     1      26.868  40.927  50.859  1.00  0.00     0.256 C 
HETATM   13  N   UNL     1      27.457  41.232  49.651  1.00  0.00    -0.323 N 
HETATM   14  H   UNL     1      28.134  41.980  49.644  1.00  0.00     0.169 HD
HETATM   15  O   UNL     1      25.958  40.137  51.074  1.00  0.00    -0.267 OA
BRANCH  13  16
HETATM   16  C   UNL     1      27.186  40.636  48.393  1.00  0.00     0.041 A 
HETATM   17  C   UNL     1      28.015  39.584  47.941  1.00  0.00    -0.035 A 
HETATM   18  C   UNL     1      29.172  39.057  48.746  1.00  0.00     0.050 C 
HETATM   19  C   UNL     1      27.742  38.974  46.701  1.00  0.00     0.009 A 
HETATM   20  C   UNL     1      26.677  39.399  45.912  1.00  0.00     0.001 A 
HETATM   21  C   UNL     1      25.864  40.433  46.355  1.00  0.00     0.002 A 
HETATM   22  C   UNL     1      26.115  41.043  47.585  1.00  0.00     0.030 A 
ENDBRANCH  13  16
ENDBRANCH   1  12
BRANCH   2  23
HETATM   23  C   UNL     1      26.195  43.823  51.329  1.00  0.00    -0.027 A 
HETATM   24  C   UNL     1      24.852  43.760  50.918  1.00  0.00     0.028 A 
HETATM   25  C   UNL     1      24.401  44.556  49.864  1.00  0.00     0.011 A 
HETATM   26 BR   UNL     1      22.593  44.449  49.320  1.00  0.00    -0.051 Br
HETATM   27  C   UNL     1      25.270  45.422  49.209  1.00  0.00     0.019 A 
HETATM   28  C   UNL     1      26.602  45.499  49.612  1.00  0.00     0.002 A 
HETATM   29  C   UNL     1      27.064  44.708  50.667  1.00  0.00     0.010 A 
ENDBRANCH   2  23
BRANCH   7  30
HETATM   30  C   UNL     1      28.147  46.309  55.699  1.00  0.00     0.085 C 
BRANCH  30  31
HETATM   31  C   UNL     1      27.737  47.594  54.985  1.00  0.00     0.034 C 
BRANCH  31  32
HETATM   32  C   UNL     1      26.566  48.302  55.654  1.00  0.00     0.164 C 
BRANCH  32  33
HETATM   33  O   UNL     1      25.540  48.537  54.695  1.00  0.00    -0.401 OA
HETATM   34  H   UNL     1      25.312  47.681  54.294  1.00  0.00     0.209 HD
ENDBRANCH  32  33
ENDBRANCH  31  32
ENDBRANCH  30  31
ENDBRANCH   7  30
TORSDOF 7
ENDMDL
