MODEL 1
REMARK VINA RESULT:      -7.5      0.000      0.000
REMARK  3 active torsions:
REMARK  status: ('A' for Active; 'I' for Inactive)
REMARK    1  A    between atoms: C_8  and  C_9 
REMARK    2  A    between atoms: C_10  and  O_11 
REMARK    3  A    between atoms: C_24  and  N_25 
ROOT
HETATM    1  C   UNL     1      25.165  47.107  50.008  1.00  0.00     0.070 C 
HETATM    2  C   UNL     1      24.113  46.069  49.945  1.00  0.00     0.035 A 
HETATM    3  N   UNL     1      24.001  45.067  50.882  1.00  0.00    -0.280 N 
HETATM    4  H   UNL     1      24.581  44.906  51.699  1.00  0.00     0.189 HD
HETATM    5  N   UNL     1      22.994  44.203  50.637  1.00  0.00    -0.148 NA
HETATM    6  C   UNL     1      22.464  44.690  49.523  1.00  0.00     0.199 A 
HETATM    7  C   UNL     1      23.081  45.853  49.054  1.00  0.00     0.034 A 
HETATM    8  C   UNL     1      22.595  46.522  47.814  1.00  0.00     0.107 C 
HETATM    9  C   UNL     1      21.639  45.608  47.070  1.00  0.00     0.067 C 
HETATM   10  C   UNL     1      21.455  45.859  45.582  1.00  0.00     0.020 C 
HETATM   11  N   UNL     1      21.302  46.069  44.348  1.00  0.00    -0.096 N 
HETATM   12  C   UNL     1      21.110  44.480  47.617  1.00  0.00     0.139 C 
HETATM   13  O   UNL     1      21.438  44.062  48.917  1.00  0.00    -0.277 OA
ENDROOT
BRANCH   8  14
HETATM   14  C   UNL     1      21.928  47.816  48.269  1.00  0.00    -0.010 A 
HETATM   15  C   UNL     1      22.595  49.043  48.146  1.00  0.00     0.076 A 
HETATM   16  C   UNL     1      21.962  50.240  48.505  1.00  0.00     0.049 A 
HETATM   17  C   UNL     1      20.663  50.239  49.039  1.00  0.00    -0.023 A 
HETATM   18  C   UNL     1      19.985  49.013  49.193  1.00  0.00    -0.025 A 
HETATM   19  C   UNL     1      20.018  51.428  49.417  1.00  0.00     0.012 A 
HETATM   20  C   UNL     1      20.616  47.825  48.793  1.00  0.00     0.023 A 
HETATM   21  C   UNL     1      18.690  49.003  49.736  1.00  0.00     0.012 A 
HETATM   22  C   UNL     1      18.067  50.191  50.116  1.00  0.00     0.001 A 
HETATM   23  C   UNL     1      18.729  51.404  49.952  1.00  0.00     0.001 A 
BRANCH  15  24
HETATM   24  O   UNL     1      23.849  49.035  47.590  1.00  0.00    -0.355 OA
HETATM   25  C   UNL     1      24.623  50.180  47.941  1.00  0.00     0.210 C 
ENDBRANCH  15  24
ENDBRANCH   8  14
BRANCH  12  26
HETATM   26  N   UNL     1      20.257  43.606  46.979  1.00  0.00    -0.282 NA
HETATM   27  H   UNL     1      20.384  43.504  45.975  1.00  0.00     0.126 HD
HETATM   28  H   UNL     1      20.188  42.716  47.467  1.00  0.00     0.126 HD
ENDBRANCH  12  26
TORSDOF 3
ENDMDL
MODEL 2
REMARK VINA RESULT:      -7.2     10.659     13.089
REMARK  3 active torsions:
REMARK  status: ('A' for Active; 'I' for Inactive)
REMARK    1  A    between atoms: C_8  and  C_9 
REMARK    2  A    between atoms: C_10  and  O_11 
REMARK    3  A    between atoms: C_24  and  N_25 
ROOT
HETATM    1  C   UNL     1      31.934  50.691  43.398  1.00  0.00     0.070 C 
HETATM    2  C   UNL     1      32.480  50.585  42.028  1.00  0.00     0.035 A 
HETATM    3  N   UNL     1      33.799  50.278  41.776  1.00  0.00    -0.280 N 
HETATM    4  H   UNL     1      34.536  50.090  42.447  1.00  0.00     0.189 HD
HETATM    5  N   UNL     1      34.110  50.254  40.463  1.00  0.00    -0.148 NA
HETATM    6  C   UNL     1      32.951  50.545  39.889  1.00  0.00     0.199 A 
HETATM    7  C   UNL     1      31.896  50.733  40.787  1.00  0.00     0.034 A 
HETATM    8  C   UNL     1      30.529  51.061  40.292  1.00  0.00     0.107 C 
HETATM    9  C   UNL     1      30.585  51.442  38.823  1.00  0.00     0.067 C 
HETATM   10  C   UNL     1      29.446  52.292  38.284  1.00  0.00     0.020 C 
HETATM   11  N   UNL     1      28.501  52.997  37.836  1.00  0.00    -0.096 N 
HETATM   12  C   UNL     1      31.677  51.232  38.041  1.00  0.00     0.139 C 
HETATM   13  O   UNL     1      32.858  50.666  38.551  1.00  0.00    -0.277 OA
ENDROOT
BRANCH   8  14
HETATM   14  C   UNL     1      29.683  49.817  40.539  1.00  0.00    -0.010 A 
HETATM   15  C   UNL     1      28.573  49.868  41.393  1.00  0.00     0.076 A 
HETATM   16  C   UNL     1      27.757  48.743  41.574  1.00  0.00     0.049 A 
HETATM   17  C   UNL     1      28.055  47.525  40.943  1.00  0.00    -0.023 A 
HETATM   18  C   UNL     1      29.181  47.447  40.099  1.00  0.00    -0.025 A 
HETATM   19  C   UNL     1      27.256  46.384  41.123  1.00  0.00     0.012 A 
HETATM   20  C   UNL     1      29.967  48.591  39.895  1.00  0.00     0.023 A 
HETATM   21  C   UNL     1      29.491  46.229  39.471  1.00  0.00     0.012 A 
HETATM   22  C   UNL     1      28.694  45.102  39.669  1.00  0.00     0.001 A 
HETATM   23  C   UNL     1      27.574  45.181  40.491  1.00  0.00     0.001 A 
BRANCH  15  24
HETATM   24  O   UNL     1      28.271  51.072  41.976  1.00  0.00    -0.355 OA
HETATM   25  C   UNL     1      27.335  51.839  41.222  1.00  0.00     0.210 C 
ENDBRANCH  15  24
ENDBRANCH   8  14
BRANCH  12  26
HETATM   26  N   UNL     1      31.787  51.578  36.712  1.00  0.00    -0.282 NA
HETATM   27  H   UNL     1      31.420  50.909  36.040  1.00  0.00     0.126 HD
HETATM   28  H   UNL     1      31.475  52.531  36.539  1.00  0.00     0.126 HD
ENDBRANCH  12  26
TORSDOF 3
ENDMDL
MODEL 3
REMARK VINA RESULT:      -7.1      4.683      6.288
REMARK  3 active torsions:
REMARK  status: ('A' for Active; 'I' for Inactive)
REMARK    1  A    between atoms: C_8  and  C_9 
REMARK    2  A    between atoms: C_10  and  O_11 
REMARK    3  A    between atoms: C_24  and  N_25 
ROOT
HETATM    1  C   UNL     1      20.261  51.946  48.553  1.00  0.00     0.070 C 
HETATM    2  C   UNL     1      19.638  50.787  49.228  1.00  0.00     0.035 A 
HETATM    3  N   UNL     1      20.057  50.331  50.458  1.00  0.00    -0.280 N 
HETATM    4  H   UNL     1      20.801  50.700  51.042  1.00  0.00     0.189 HD
HETATM    5  N   UNL     1      19.382  49.248  50.895  1.00  0.00    -0.148 NA
HETATM    6  C   UNL     1      18.517  49.034  49.913  1.00  0.00     0.199 A 
HETATM    7  C   UNL     1      18.595  49.958  48.867  1.00  0.00     0.034 A 
HETATM    8  C   UNL     1      17.684  49.854  47.693  1.00  0.00     0.107 C 
HETATM    9  C   UNL     1      16.978  48.510  47.701  1.00  0.00     0.067 C 
HETATM   10  C   UNL     1      16.441  48.001  46.373  1.00  0.00     0.020 C 
HETATM   11  N   UNL     1      15.994  47.579  45.272  1.00  0.00    -0.096 N 
HETATM   12  C   UNL     1      16.983  47.672  48.773  1.00  0.00     0.139 C 
HETATM   13  O   UNL     1      17.674  47.985  49.955  1.00  0.00    -0.277 OA
ENDROOT
BRANCH   8  14
HETATM   14  C   UNL     1      16.711  51.022  47.811  1.00  0.00    -0.010 A 
HETATM   15  C   UNL     1      16.372  51.784  46.683  1.00  0.00     0.076 A 
HETATM   16  C   UNL     1      15.432  52.818  46.775  1.00  0.00     0.049 A 
HETATM   17  C   UNL     1      14.840  53.150  48.004  1.00  0.00    -0.023 A 
HETATM   18  C   UNL     1      15.186  52.412  49.154  1.00  0.00    -0.025 A 
HETATM   19  C   UNL     1      13.906  54.193  48.118  1.00  0.00     0.012 A 
HETATM   20  C   UNL     1      16.099  51.352  49.041  1.00  0.00     0.023 A 
HETATM   21  C   UNL     1      14.605  52.743  50.390  1.00  0.00     0.012 A 
HETATM   22  C   UNL     1      13.687  53.788  50.487  1.00  0.00     0.001 A 
HETATM   23  C   UNL     1      13.334  54.509  49.351  1.00  0.00     0.001 A 
BRANCH  15  24
HETATM   24  O   UNL     1      16.930  51.428  45.482  1.00  0.00    -0.355 OA
HETATM   25  C   UNL     1      17.123  52.536  44.606  1.00  0.00     0.210 C 
ENDBRANCH  15  24
ENDBRANCH   8  14
BRANCH  12  26
HETATM   26  N   UNL     1      16.378  46.435  48.824  1.00  0.00    -0.282 NA
HETATM   27  H   UNL     1      16.831  45.736  49.406  1.00  0.00     0.126 HD
HETATM   28  H   UNL     1      15.377  46.508  48.990  1.00  0.00     0.126 HD
ENDBRANCH  12  26
TORSDOF 3
ENDMDL
MODEL 4
REMARK VINA RESULT:      -6.9      3.874      5.688
REMARK  3 active torsions:
REMARK  status: ('A' for Active; 'I' for Inactive)
REMARK    1  A    between atoms: C_8  and  C_9 
REMARK    2  A    between atoms: C_10  and  O_11 
REMARK    3  A    between atoms: C_24  and  N_25 
ROOT
HETATM    1  C   UNL     1      16.429  47.331  48.937  1.00  0.00     0.070 C 
HETATM    2  C   UNL     1      17.739  46.973  48.352  1.00  0.00     0.035 A 
HETATM    3  N   UNL     1      17.983  45.749  47.772  1.00  0.00    -0.280 N 
HETATM    4  H   UNL     1      17.344  44.969  47.664  1.00  0.00     0.189 HD
HETATM    5  N   UNL     1      19.246  45.603  47.319  1.00  0.00    -0.148 NA
HETATM    6  C   UNL     1      19.794  46.773  47.621  1.00  0.00     0.199 A 
HETATM    7  C   UNL     1      18.920  47.677  48.232  1.00  0.00     0.034 A 
HETATM    8  C   UNL     1      19.388  49.036  48.626  1.00  0.00     0.107 C 
HETATM    9  C   UNL     1      20.903  49.106  48.553  1.00  0.00     0.067 C 
HETATM   10  C   UNL     1      21.589  50.174  49.388  1.00  0.00     0.020 C 
HETATM   11  N   UNL     1      22.158  51.061  50.081  1.00  0.00    -0.096 N 
HETATM   12  C   UNL     1      21.664  48.154  47.949  1.00  0.00     0.139 C 
HETATM   13  O   UNL     1      21.095  47.009  47.365  1.00  0.00    -0.277 OA
ENDROOT
BRANCH   8  14
HETATM   14  C   UNL     1      18.714  50.008  47.664  1.00  0.00    -0.010 A 
HETATM   15  C   UNL     1      17.917  51.054  48.150  1.00  0.00     0.076 A 
HETATM   16  C   UNL     1      17.346  51.986  47.273  1.00  0.00     0.049 A 
HETATM   17  C   UNL     1      17.518  51.870  45.884  1.00  0.00    -0.023 A 
HETATM   18  C   UNL     1      18.296  50.811  45.374  1.00  0.00    -0.025 A 
HETATM   19  C   UNL     1      16.943  52.787  44.989  1.00  0.00     0.012 A 
HETATM   20  C   UNL     1      18.894  49.908  46.266  1.00  0.00     0.023 A 
HETATM   21  C   UNL     1      18.465  50.683  43.985  1.00  0.00     0.012 A 
HETATM   22  C   UNL     1      17.878  51.596  43.110  1.00  0.00     0.001 A 
HETATM   23  C   UNL     1      17.121  52.650  43.611  1.00  0.00     0.001 A 
BRANCH  15  24
HETATM   24  O   UNL     1      17.786  51.177  49.509  1.00  0.00    -0.355 OA
HETATM   25  C   UNL     1      16.895  52.223  49.892  1.00  0.00     0.210 C 
ENDBRANCH  15  24
ENDBRANCH   8  14
BRANCH  12  26
HETATM   26  N   UNL     1      23.039  48.159  47.874  1.00  0.00    -0.282 NA
HETATM   27  H   UNL     1      23.451  48.781  47.184  1.00  0.00     0.126 HD
HETATM   28  H   UNL     1      23.470  48.236  48.792  1.00  0.00     0.126 HD
ENDBRANCH  12  26
TORSDOF 3
ENDMDL
MODEL 5
REMARK VINA RESULT:      -6.7      6.183      8.494
REMARK  3 active torsions:
REMARK  status: ('A' for Active; 'I' for Inactive)
REMARK    1  A    between atoms: C_8  and  C_9 
REMARK    2  A    between atoms: C_10  and  O_11 
REMARK    3  A    between atoms: C_24  and  N_25 
ROOT
HETATM    1  C   UNL     1      13.731  48.638  45.849  1.00  0.00     0.070 C 
HETATM    2  C   UNL     1      14.975  48.509  46.637  1.00  0.00     0.035 A 
HETATM    3  N   UNL     1      15.629  47.308  46.804  1.00  0.00    -0.280 N 
HETATM    4  H   UNL     1      15.371  46.400  46.433  1.00  0.00     0.189 HD
HETATM    5  N   UNL     1      16.731  47.391  47.577  1.00  0.00    -0.148 NA
HETATM    6  C   UNL     1      16.765  48.680  47.889  1.00  0.00     0.199 A 
HETATM    7  C   UNL     1      15.734  49.436  47.324  1.00  0.00     0.034 A 
HETATM    8  C   UNL     1      15.641  50.901  47.578  1.00  0.00     0.107 C 
HETATM    9  C   UNL     1      16.572  51.292  48.711  1.00  0.00     0.067 C 
HETATM   10  C   UNL     1      16.253  52.576  49.459  1.00  0.00     0.020 C 
HETATM   11  N   UNL     1      15.989  53.642  50.079  1.00  0.00    -0.096 N 
HETATM   12  C   UNL     1      17.534  50.466  49.203  1.00  0.00     0.139 C 
HETATM   13  O   UNL     1      17.717  49.164  48.709  1.00  0.00    -0.277 OA
ENDROOT
BRANCH   8  14
HETATM   14  C   UNL     1      16.006  51.580  46.263  1.00  0.00    -0.010 A 
HETATM   15  C   UNL     1      15.422  52.804  45.907  1.00  0.00     0.076 A 
HETATM   16  C   UNL     1      15.801  53.462  44.730  1.00  0.00     0.049 A 
HETATM   17  C   UNL     1      16.739  52.892  43.854  1.00  0.00    -0.023 A 
HETATM   18  C   UNL     1      17.320  51.650  44.182  1.00  0.00    -0.025 A 
HETATM   19  C   UNL     1      17.121  53.531  42.662  1.00  0.00     0.012 A 
HETATM   20  C   UNL     1      16.960  51.022  45.384  1.00  0.00     0.023 A 
HETATM   21  C   UNL     1      18.252  51.069  43.306  1.00  0.00     0.012 A 
HETATM   22  C   UNL     1      18.612  51.711  42.122  1.00  0.00     0.001 A 
HETATM   23  C   UNL     1      18.051  52.944  41.803  1.00  0.00     0.001 A 
BRANCH  15  24
HETATM   24  O   UNL     1      14.535  53.368  46.788  1.00  0.00    -0.355 OA
HETATM   25  C   UNL     1      14.021  54.620  46.338  1.00  0.00     0.210 C 
ENDBRANCH  15  24
ENDBRANCH   8  14
BRANCH  12  26
HETATM   26  N   UNL     1      18.389  50.764  50.242  1.00  0.00    -0.282 NA
HETATM   27  H   UNL     1      19.378  50.604  50.071  1.00  0.00     0.126 HD
HETATM   28  H   UNL     1      18.194  51.677  50.645  1.00  0.00     0.126 HD
ENDBRANCH  12  26
TORSDOF 3
ENDMDL
MODEL 6
REMARK VINA RESULT:      -6.5      8.711     11.055
REMARK  3 active torsions:
REMARK  status: ('A' for Active; 'I' for Inactive)
REMARK    1  A    between atoms: C_8  and  C_9 
REMARK    2  A    between atoms: C_10  and  O_11 
REMARK    3  A    between atoms: C_24  and  N_25 
ROOT
HETATM    1  C   UNL     1      29.185  45.243  37.562  1.00  0.00     0.070 C 
HETATM    2  C   UNL     1      28.515  44.871  38.827  1.00  0.00     0.035 A 
HETATM    3  N   UNL     1      28.752  43.677  39.470  1.00  0.00    -0.280 N 
HETATM    4  H   UNL     1      29.380  42.930  39.191  1.00  0.00     0.189 HD
HETATM    5  N   UNL     1      28.026  43.511  40.595  1.00  0.00    -0.148 NA
HETATM    6  C   UNL     1      27.328  44.637  40.653  1.00  0.00     0.199 A 
HETATM    7  C   UNL     1      27.597  45.535  39.615  1.00  0.00     0.034 A 
HETATM    8  C   UNL     1      26.895  46.848  39.547  1.00  0.00     0.107 C 
HETATM    9  C   UNL     1      25.726  46.863  40.515  1.00  0.00     0.067 C 
HETATM   10  C   UNL     1      24.605  47.850  40.233  1.00  0.00     0.020 C 
HETATM   11  N   UNL     1      23.675  48.669  39.999  1.00  0.00    -0.096 N 
HETATM   12  C   UNL     1      25.546  45.922  41.480  1.00  0.00     0.139 C 
HETATM   13  O   UNL     1      26.427  44.839  41.633  1.00  0.00    -0.277 OA
ENDROOT
BRANCH   8  14
HETATM   14  C   UNL     1      27.943  47.903  39.883  1.00  0.00    -0.010 A 
HETATM   15  C   UNL     1      28.104  49.032  39.068  1.00  0.00     0.076 A 
HETATM   16  C   UNL     1      29.023  50.034  39.407  1.00  0.00     0.049 A 
HETATM   17  C   UNL     1      29.837  49.913  40.545  1.00  0.00    -0.023 A 
HETATM   18  C   UNL     1      29.707  48.773  41.364  1.00  0.00    -0.025 A 
HETATM   19  C   UNL     1      30.773  50.900  40.893  1.00  0.00     0.012 A 
HETATM   20  C   UNL     1      28.756  47.796  41.034  1.00  0.00     0.023 A 
HETATM   21  C   UNL     1      30.525  48.640  42.498  1.00  0.00     0.012 A 
HETATM   22  C   UNL     1      31.456  49.625  42.825  1.00  0.00     0.001 A 
HETATM   23  C   UNL     1      31.577  50.757  42.025  1.00  0.00     0.001 A 
BRANCH  15  24
HETATM   24  O   UNL     1      27.279  49.157  37.980  1.00  0.00    -0.355 OA
HETATM   25  C   UNL     1      26.453  50.318  38.035  1.00  0.00     0.210 C 
ENDBRANCH  15  24
ENDBRANCH   8  14
BRANCH  12  26
HETATM   26  N   UNL     1      24.493  45.878  42.368  1.00  0.00    -0.282 NA
HETATM   27  H   UNL     1      24.515  46.554  43.127  1.00  0.00     0.126 HD
HETATM   28  H   UNL     1      23.595  45.839  41.891  1.00  0.00     0.126 HD
ENDBRANCH  12  26
TORSDOF 3
ENDMDL
MODEL 7
REMARK VINA RESULT:      -6.5     22.640     24.662
REMARK  3 active torsions:
REMARK  status: ('A' for Active; 'I' for Inactive)
REMARK    1  A    between atoms: C_8  and  C_9 
REMARK    2  A    between atoms: C_10  and  O_11 
REMARK    3  A    between atoms: C_24  and  N_25 
ROOT
HETATM    1  C   UNL     1      35.493  44.590  66.733  1.00  0.00     0.070 C 
HETATM    2  C   UNL     1      36.400  44.823  65.589  1.00  0.00     0.035 A 
HETATM    3  N   UNL     1      36.020  44.605  64.283  1.00  0.00    -0.280 N 
HETATM    4  H   UNL     1      35.123  44.279  63.939  1.00  0.00     0.189 HD
HETATM    5  N   UNL     1      36.996  44.850  63.384  1.00  0.00    -0.148 NA
HETATM    6  C   UNL     1      38.003  45.238  64.154  1.00  0.00     0.199 A 
HETATM    7  C   UNL     1      37.702  45.274  65.519  1.00  0.00     0.034 A 
HETATM    8  C   UNL     1      38.731  45.696  66.512  1.00  0.00     0.107 C 
HETATM    9  C   UNL     1      40.100  45.739  65.855  1.00  0.00     0.067 C 
HETATM   10  C   UNL     1      41.310  45.624  66.768  1.00  0.00     0.020 C 
HETATM   11  N   UNL     1      42.314  45.530  67.525  1.00  0.00    -0.096 N 
HETATM   12  C   UNL     1      40.282  45.675  64.509  1.00  0.00     0.139 C 
HETATM   13  O   UNL     1      39.203  45.534  63.620  1.00  0.00    -0.277 OA
ENDROOT
BRANCH   8  14
HETATM   14  C   UNL     1      38.288  47.062  67.022  1.00  0.00    -0.010 A 
HETATM   15  C   UNL     1      37.773  47.205  68.319  1.00  0.00     0.076 A 
HETATM   16  C   UNL     1      37.422  48.468  68.814  1.00  0.00     0.049 A 
HETATM   17  C   UNL     1      37.532  49.615  68.011  1.00  0.00    -0.023 A 
HETATM   18  C   UNL     1      38.025  49.489  66.696  1.00  0.00    -0.025 A 
HETATM   19  C   UNL     1      37.172  50.887  68.485  1.00  0.00     0.012 A 
HETATM   20  C   UNL     1      38.410  48.223  66.227  1.00  0.00     0.023 A 
HETATM   21  C   UNL     1      38.129  50.630  65.884  1.00  0.00     0.012 A 
HETATM   22  C   UNL     1      37.758  51.884  66.367  1.00  0.00     0.001 A 
HETATM   23  C   UNL     1      37.285  52.014  67.669  1.00  0.00     0.001 A 
BRANCH  15  24
HETATM   24  O   UNL     1      37.703  46.084  69.105  1.00  0.00    -0.355 OA
HETATM   25  C   UNL     1      36.596  46.100  70.004  1.00  0.00     0.210 C 
ENDBRANCH  15  24
ENDBRANCH   8  14
BRANCH  12  26
HETATM   26  N   UNL     1      41.500  45.688  63.866  1.00  0.00    -0.282 NA
HETATM   27  H   UNL     1      42.070  46.520  63.997  1.00  0.00     0.126 HD
HETATM   28  H   UNL     1      42.016  44.822  64.008  1.00  0.00     0.126 HD
ENDBRANCH  12  26
TORSDOF 3
ENDMDL
MODEL 8
REMARK VINA RESULT:      -6.4      4.193      8.095
REMARK  3 active torsions:
REMARK  status: ('A' for Active; 'I' for Inactive)
REMARK    1  A    between atoms: C_8  and  C_9 
REMARK    2  A    between atoms: C_10  and  O_11 
REMARK    3  A    between atoms: C_24  and  N_25 
ROOT
HETATM    1  C   UNL     1      24.708  44.193  54.952  1.00  0.00     0.070 C 
HETATM    2  C   UNL     1      25.553  45.175  54.238  1.00  0.00     0.035 A 
HETATM    3  N   UNL     1      26.605  45.827  54.842  1.00  0.00    -0.280 N 
HETATM    4  H   UNL     1      26.934  45.733  55.797  1.00  0.00     0.189 HD
HETATM    5  N   UNL     1      27.238  46.703  54.034  1.00  0.00    -0.148 NA
HETATM    6  C   UNL     1      26.564  46.582  52.898  1.00  0.00     0.199 A 
HETATM    7  C   UNL     1      25.532  45.640  52.939  1.00  0.00     0.034 A 
HETATM    8  C   UNL     1      24.688  45.387  51.737  1.00  0.00     0.107 C 
HETATM    9  C   UNL     1      24.923  46.470  50.699  1.00  0.00     0.067 C 
HETATM   10  C   UNL     1      23.825  46.698  49.674  1.00  0.00     0.020 C 
HETATM   11  N   UNL     1      22.914  46.886  48.823  1.00  0.00    -0.096 N 
HETATM   12  C   UNL     1      25.954  47.355  50.767  1.00  0.00     0.139 C 
HETATM   13  O   UNL     1      26.869  47.347  51.833  1.00  0.00    -0.277 OA
ENDROOT
BRANCH   8  14
HETATM   14  C   UNL     1      25.079  44.002  51.233  1.00  0.00    -0.010 A 
HETATM   15  C   UNL     1      24.137  43.184  50.594  1.00  0.00     0.076 A 
HETATM   16  C   UNL     1      24.507  41.937  50.074  1.00  0.00     0.049 A 
HETATM   17  C   UNL     1      25.818  41.454  50.219  1.00  0.00    -0.023 A 
HETATM   18  C   UNL     1      26.775  42.252  50.879  1.00  0.00    -0.025 A 
HETATM   19  C   UNL     1      26.204  40.201  49.716  1.00  0.00     0.012 A 
HETATM   20  C   UNL     1      26.400  43.516  51.360  1.00  0.00     0.023 A 
HETATM   21  C   UNL     1      28.085  41.773  51.036  1.00  0.00     0.012 A 
HETATM   22  C   UNL     1      28.450  40.521  50.540  1.00  0.00     0.001 A 
HETATM   23  C   UNL     1      27.511  39.738  49.876  1.00  0.00     0.001 A 
BRANCH  15  24
HETATM   24  O   UNL     1      22.869  43.680  50.428  1.00  0.00    -0.355 OA
HETATM   25  C   UNL     1      22.346  43.449  49.122  1.00  0.00     0.210 C 
ENDBRANCH  15  24
ENDBRANCH   8  14
BRANCH  12  26
HETATM   26  N   UNL     1      26.199  48.367  49.866  1.00  0.00    -0.282 NA
HETATM   27  H   UNL     1      25.382  48.831  49.476  1.00  0.00     0.126 HD
HETATM   28  H   UNL     1      26.905  49.016  50.205  1.00  0.00     0.126 HD
ENDBRANCH  12  26
TORSDOF 3
ENDMDL
MODEL 9
REMARK VINA RESULT:      -6.4      5.292      7.169
REMARK  3 active torsions:
REMARK  status: ('A' for Active; 'I' for Inactive)
REMARK    1  A    between atoms: C_8  and  C_9 
REMARK    2  A    between atoms: C_10  and  O_11 
REMARK    3  A    between atoms: C_24  and  N_25 
ROOT
HETATM    1  C   UNL     1      14.828  48.520  46.582  1.00  0.00     0.070 C 
HETATM    2  C   UNL     1      16.179  47.928  46.489  1.00  0.00     0.035 A 
HETATM    3  N   UNL     1      16.393  46.616  46.130  1.00  0.00    -0.280 N 
HETATM    4  H   UNL     1      15.702  45.913  45.889  1.00  0.00     0.189 HD
HETATM    5  N   UNL     1      17.693  46.256  46.128  1.00  0.00    -0.148 NA
HETATM    6  C   UNL     1      18.300  47.379  46.487  1.00  0.00     0.199 A 
HETATM    7  C   UNL     1      17.437  48.458  46.698  1.00  0.00     0.034 A 
HETATM    8  C   UNL     1      17.971  49.789  47.102  1.00  0.00     0.107 C 
HETATM    9  C   UNL     1      19.424  49.662  47.520  1.00  0.00     0.067 C 
HETATM   10  C   UNL     1      19.980  50.740  48.435  1.00  0.00     0.020 C 
HETATM   11  N   UNL     1      20.441  51.635  49.195  1.00  0.00    -0.096 N 
HETATM   12  C   UNL     1      20.173  48.551  47.282  1.00  0.00     0.139 C 
HETATM   13  O   UNL     1      19.637  47.417  46.649  1.00  0.00    -0.277 OA
ENDROOT
BRANCH   8  14
HETATM   14  C   UNL     1      17.791  50.698  45.891  1.00  0.00    -0.010 A 
HETATM   15  C   UNL     1      17.063  51.892  45.998  1.00  0.00     0.076 A 
HETATM   16  C   UNL     1      16.948  52.761  44.905  1.00  0.00     0.049 A 
HETATM   17  C   UNL     1      17.518  52.438  43.662  1.00  0.00    -0.023 A 
HETATM   18  C   UNL     1      18.233  51.230  43.528  1.00  0.00    -0.025 A 
HETATM   19  C   UNL     1      17.402  53.289  42.551  1.00  0.00     0.012 A 
HETATM   20  C   UNL     1      18.374  50.389  44.642  1.00  0.00     0.023 A 
HETATM   21  C   UNL     1      18.798  50.895  42.286  1.00  0.00     0.012 A 
HETATM   22  C   UNL     1      18.664  51.747  41.190  1.00  0.00     0.001 A 
HETATM   23  C   UNL     1      17.970  52.946  41.324  1.00  0.00     0.001 A 
BRANCH  15  24
HETATM   24  O   UNL     1      16.542  52.214  47.225  1.00  0.00    -0.355 OA
HETATM   25  C   UNL     1      15.181  52.633  47.161  1.00  0.00     0.210 C 
ENDBRANCH  15  24
ENDBRANCH   8  14
BRANCH  12  26
HETATM   26  N   UNL     1      21.486  48.376  47.659  1.00  0.00    -0.282 NA
HETATM   27  H   UNL     1      22.155  48.232  46.907  1.00  0.00     0.126 HD
HETATM   28  H   UNL     1      21.785  49.077  48.334  1.00  0.00     0.126 HD
ENDBRANCH  12  26
TORSDOF 3
ENDMDL
MODEL 10
REMARK VINA RESULT:      -6.4     12.793     16.277
REMARK  3 active torsions:
REMARK  status: ('A' for Active; 'I' for Inactive)
REMARK    1  A    between atoms: C_8  and  C_9 
REMARK    2  A    between atoms: C_10  and  O_11 
REMARK    3  A    between atoms: C_24  and  N_25 
ROOT
HETATM    1  C   UNL     1      20.502  35.515  46.709  1.00  0.00     0.070 C 
HETATM    2  C   UNL     1      20.402  34.986  48.086  1.00  0.00     0.035 A 
HETATM    3  N   UNL     1      19.707  35.633  49.083  1.00  0.00    -0.280 N 
HETATM    4  H   UNL     1      19.194  36.506  49.021  1.00  0.00     0.189 HD
HETATM    5  N   UNL     1      19.755  35.006  50.276  1.00  0.00    -0.148 NA
HETATM    6  C   UNL     1      20.492  33.937  50.008  1.00  0.00     0.199 A 
HETATM    7  C   UNL     1      20.903  33.842  48.675  1.00  0.00     0.034 A 
HETATM    8  C   UNL     1      21.733  32.692  48.217  1.00  0.00     0.107 C 
HETATM    9  C   UNL     1      22.266  31.926  49.415  1.00  0.00     0.067 C 
HETATM   10  C   UNL     1      23.513  31.084  49.201  1.00  0.00     0.020 C 
HETATM   11  N   UNL     1      24.547  30.385  49.024  1.00  0.00    -0.096 N 
HETATM   12  C   UNL     1      21.808  32.113  50.682  1.00  0.00     0.139 C 
HETATM   13  O   UNL     1      20.815  33.062  50.979  1.00  0.00    -0.277 OA
ENDROOT
BRANCH   8  14
HETATM   14  C   UNL     1      20.825  31.840  47.339  1.00  0.00    -0.010 A 
HETATM   15  C   UNL     1      21.162  31.585  46.001  1.00  0.00     0.076 A 
HETATM   16  C   UNL     1      20.362  30.752  45.209  1.00  0.00     0.049 A 
HETATM   17  C   UNL     1      19.179  30.189  45.716  1.00  0.00    -0.023 A 
HETATM   18  C   UNL     1      18.811  30.453  47.051  1.00  0.00    -0.025 A 
HETATM   19  C   UNL     1      18.358  29.362  44.932  1.00  0.00     0.012 A 
HETATM   20  C   UNL     1      19.642  31.257  47.846  1.00  0.00     0.023 A 
HETATM   21  C   UNL     1      17.625  29.901  47.563  1.00  0.00     0.012 A 
HETATM   22  C   UNL     1      16.815  29.091  46.768  1.00  0.00     0.001 A 
HETATM   23  C   UNL     1      17.184  28.818  45.455  1.00  0.00     0.001 A 
BRANCH  15  24
HETATM   24  O   UNL     1      22.336  32.111  45.528  1.00  0.00    -0.355 OA
HETATM   25  C   UNL     1      22.141  33.068  44.490  1.00  0.00     0.210 C 
ENDBRANCH  15  24
ENDBRANCH   8  14
BRANCH  12  26
HETATM   26  N   UNL     1      22.270  31.461  51.804  1.00  0.00    -0.282 NA
HETATM   27  H   UNL     1      21.572  31.204  52.496  1.00  0.00     0.126 HD
HETATM   28  H   UNL     1      22.902  30.699  51.568  1.00  0.00     0.126 HD
ENDBRANCH  12  26
TORSDOF 3
ENDMDL
