MODEL 1
REMARK VINA RESULT:      -8.6      0.000      0.000
REMARK  8 active torsions:
REMARK  status: ('A' for Active; 'I' for Inactive)
REMARK    1  A    between atoms: C_8  and  C_9 
REMARK       I    between atoms: C_9  and  N_10 
REMARK    2  A    between atoms: N_10  and  N_11 
REMARK    3  A    between atoms: N_11  and  C_12 
REMARK    4  A    between atoms: C_12  and  N_13 
REMARK    5  A    between atoms: N_13  and  C_14 
REMARK    6  A    between atoms: C_15  and  O_16 
REMARK    7  A    between atoms: C_19  and  O_20 
REMARK    8  A    between atoms: C_26  and  C_27 
ROOT
HETATM    1  C   UNL     1      25.426  46.717  50.714  1.00  0.00     0.275 C 
HETATM    2  N   UNL     1      24.198  47.325  50.531  1.00  0.00    -0.263 N 
HETATM    3  O   UNL     1      26.150  46.393  49.775  1.00  0.00    -0.266 OA
HETATM    4  H   UNL     1      23.508  47.281  51.280  1.00  0.00     0.190 HD
ENDROOT
BRANCH   2   5
HETATM    5  N   UNL     1      23.703  47.467  49.222  1.00  0.00    -0.273 N 
HETATM    6  H   UNL     1      22.981  46.787  48.978  1.00  0.00     0.189 HD
BRANCH   5   7
HETATM    7  C   UNL     1      23.630  48.703  48.634  1.00  0.00     0.191 C 
HETATM    8  S   UNL     1      24.891  49.811  48.605  1.00  0.00    -0.039 SA
BRANCH   7   9
HETATM    9  N   UNL     1      22.446  49.060  48.063  1.00  0.00    -0.330 N 
HETATM   10  H   UNL     1      22.389  48.873  47.064  1.00  0.00     0.168 HD
BRANCH   9  11
HETATM   11  C   UNL     1      21.267  49.631  48.596  1.00  0.00     0.068 A 
HETATM   12  C   UNL     1      20.301  48.739  49.109  1.00  0.00     0.097 A 
HETATM   13  C   UNL     1      19.110  49.233  49.660  1.00  0.00     0.075 A 
HETATM   14  C   UNL     1      18.883  50.609  49.717  1.00  0.00     0.070 A 
HETATM   15  C   UNL     1      19.861  51.487  49.249  1.00  0.00     0.039 A 
HETATM   16  C   UNL     1      21.050  51.005  48.696  1.00  0.00     0.035 A 
BRANCH  12  17
HETATM   17  O   UNL     1      20.628  47.405  49.015  1.00  0.00    -0.354 OA
HETATM   18  C   UNL     1      19.700  46.547  48.363  1.00  0.00     0.210 C 
ENDBRANCH  12  17
BRANCH  14  19
HETATM   19  O   UNL     1      17.771  51.221  50.227  1.00  0.00    -0.356 OA
HETATM   20  C   UNL     1      17.514  52.553  49.800  1.00  0.00     0.210 C 
ENDBRANCH  14  19
ENDBRANCH   9  11
ENDBRANCH   7   9
ENDBRANCH   5   7
ENDBRANCH   2   5
BRANCH   1  21
HETATM   21  C   UNL     1      25.765  46.456  52.097  1.00  0.00     0.098 A 
HETATM   22  C   UNL     1      26.481  45.405  52.639  1.00  0.00     0.138 A 
HETATM   23  N   UNL     1      27.015  44.276  52.106  1.00  0.00    -0.370 N 
HETATM   24  N   UNL     1      26.568  45.668  53.982  1.00  0.00    -0.240 N 
HETATM   25  C   UNL     1      27.743  43.300  52.908  1.00  0.00     0.081 C 
HETATM   26  H   UNL     1      26.730  43.940  51.186  1.00  0.00     0.161 HD
HETATM   27  C   UNL     1      29.235  43.420  52.621  1.00  0.00     0.032 C 
HETATM   28  C   UNL     1      27.358  43.386  54.391  1.00  0.00     0.061 C 
HETATM   29  C   UNL     1      27.217  44.810  54.951  1.00  0.00     0.221 C 
HETATM   30  N   UNL     1      25.868  46.747  54.371  1.00  0.00    -0.181 NA
HETATM   31  C   UNL     1      25.397  47.235  53.220  1.00  0.00     0.160 A 
BRANCH  29  32
HETATM   32  C   UNL     1      28.519  45.424  55.411  1.00  0.00     0.409 C 
HETATM   33  F   UNL     1      29.505  44.527  55.605  1.00  0.00    -0.169 F 
HETATM   34  F   UNL     1      28.983  46.356  54.548  1.00  0.00    -0.169 F 
HETATM   35  F   UNL     1      28.335  46.066  56.595  1.00  0.00    -0.169 F 
ENDBRANCH  29  32
ENDBRANCH   1  21
TORSDOF 8
ENDMDL
MODEL 2
REMARK VINA RESULT:      -8.4      4.398      9.703
REMARK  8 active torsions:
REMARK  status: ('A' for Active; 'I' for Inactive)
REMARK    1  A    between atoms: C_8  and  C_9 
REMARK       I    between atoms: C_9  and  N_10 
REMARK    2  A    between atoms: N_10  and  N_11 
REMARK    3  A    between atoms: N_11  and  C_12 
REMARK    4  A    between atoms: C_12  and  N_13 
REMARK    5  A    between atoms: N_13  and  C_14 
REMARK    6  A    between atoms: C_15  and  O_16 
REMARK    7  A    between atoms: C_19  and  O_20 
REMARK    8  A    between atoms: C_26  and  C_27 
ROOT
HETATM    1  C   UNL     1      24.633  47.963  49.567  1.00  0.00     0.275 C 
HETATM    2  N   UNL     1      24.176  47.408  50.749  1.00  0.00    -0.263 N 
HETATM    3  O   UNL     1      25.742  47.707  49.101  1.00  0.00    -0.266 OA
HETATM    4  H   UNL     1      23.425  47.874  51.255  1.00  0.00     0.190 HD
ENDROOT
BRANCH   2   5
HETATM    5  N   UNL     1      25.058  46.618  51.508  1.00  0.00    -0.273 N 
HETATM    6  H   UNL     1      25.510  47.123  52.272  1.00  0.00     0.189 HD
BRANCH   5   7
HETATM    7  C   UNL     1      24.816  45.281  51.692  1.00  0.00     0.191 C 
HETATM    8  S   UNL     1      24.019  44.305  50.582  1.00  0.00    -0.039 SA
BRANCH   7   9
HETATM    9  N   UNL     1      25.225  44.721  52.864  1.00  0.00    -0.330 N 
HETATM   10  H   UNL     1      24.489  44.240  53.377  1.00  0.00     0.168 HD
BRANCH   9  11
HETATM   11  C   UNL     1      26.484  44.667  53.504  1.00  0.00     0.068 A 
HETATM   12  C   UNL     1      26.757  45.666  54.464  1.00  0.00     0.097 A 
HETATM   13  C   UNL     1      27.983  45.671  55.145  1.00  0.00     0.075 A 
HETATM   14  C   UNL     1      28.931  44.679  54.888  1.00  0.00     0.070 A 
HETATM   15  C   UNL     1      28.637  43.669  53.970  1.00  0.00     0.039 A 
HETATM   16  C   UNL     1      27.420  43.656  53.285  1.00  0.00     0.035 A 
BRANCH  12  17
HETATM   17  O   UNL     1      25.751  46.587  54.651  1.00  0.00    -0.354 OA
HETATM   18  C   UNL     1      26.127  47.955  54.754  1.00  0.00     0.210 C 
ENDBRANCH  12  17
BRANCH  14  19
HETATM   19  O   UNL     1      30.159  44.567  55.479  1.00  0.00    -0.356 OA
HETATM   20  C   UNL     1      30.685  43.254  55.631  1.00  0.00     0.210 C 
ENDBRANCH  14  19
ENDBRANCH   9  11
ENDBRANCH   7   9
ENDBRANCH   5   7
ENDBRANCH   2   5
BRANCH   1  21
HETATM   21  C   UNL     1      23.717  48.901  48.953  1.00  0.00     0.098 A 
HETATM   22  C   UNL     1      22.350  48.798  48.771  1.00  0.00     0.138 A 
HETATM   23  N   UNL     1      21.456  47.806  49.016  1.00  0.00    -0.370 N 
HETATM   24  N   UNL     1      21.962  49.982  48.199  1.00  0.00    -0.240 N 
HETATM   25  C   UNL     1      20.033  47.946  48.729  1.00  0.00     0.081 C 
HETATM   26  H   UNL     1      21.763  46.847  49.181  1.00  0.00     0.161 HD
HETATM   27  C   UNL     1      19.270  48.136  50.034  1.00  0.00     0.032 C 
HETATM   28  C   UNL     1      19.774  49.018  47.663  1.00  0.00     0.061 C 
HETATM   29  C   UNL     1      20.605  50.304  47.808  1.00  0.00     0.221 C 
HETATM   30  N   UNL     1      22.984  50.799  47.892  1.00  0.00    -0.181 NA
HETATM   31  C   UNL     1      24.048  50.147  48.369  1.00  0.00     0.160 A 
BRANCH  29  32
HETATM   32  C   UNL     1      20.010  51.319  48.756  1.00  0.00     0.409 C 
HETATM   33  F   UNL     1      20.566  51.309  49.983  1.00  0.00    -0.169 F 
HETATM   34  F   UNL     1      20.099  52.582  48.281  1.00  0.00    -0.169 F 
HETATM   35  F   UNL     1      18.684  51.073  48.926  1.00  0.00    -0.169 F 
ENDBRANCH  29  32
ENDBRANCH   1  21
TORSDOF 8
ENDMDL
MODEL 3
REMARK VINA RESULT:      -8.4      4.080      5.567
REMARK  8 active torsions:
REMARK  status: ('A' for Active; 'I' for Inactive)
REMARK    1  A    between atoms: C_8  and  C_9 
REMARK       I    between atoms: C_9  and  N_10 
REMARK    2  A    between atoms: N_10  and  N_11 
REMARK    3  A    between atoms: N_11  and  C_12 
REMARK    4  A    between atoms: C_12  and  N_13 
REMARK    5  A    between atoms: N_13  and  C_14 
REMARK    6  A    between atoms: C_15  and  O_16 
REMARK    7  A    between atoms: C_19  and  O_20 
REMARK    8  A    between atoms: C_26  and  C_27 
ROOT
HETATM    1  C   UNL     1      27.097  43.465  53.268  1.00  0.00     0.275 C 
HETATM    2  N   UNL     1      26.928  42.562  52.234  1.00  0.00    -0.263 N 
HETATM    3  O   UNL     1      26.197  44.208  53.652  1.00  0.00    -0.266 OA
HETATM    4  H   UNL     1      27.750  42.213  51.743  1.00  0.00     0.190 HD
ENDROOT
BRANCH   2   5
HETATM    5  N   UNL     1      25.720  42.580  51.515  1.00  0.00    -0.273 N 
HETATM    6  H   UNL     1      25.001  43.174  51.931  1.00  0.00     0.189 HD
BRANCH   5   7
HETATM    7  C   UNL     1      25.718  42.450  50.149  1.00  0.00     0.191 C 
HETATM    8  S   UNL     1      25.473  40.999  49.340  1.00  0.00    -0.039 SA
BRANCH   7   9
HETATM    9  N   UNL     1      25.959  43.568  49.409  1.00  0.00    -0.330 N 
HETATM   10  H   UNL     1      26.578  43.418  48.615  1.00  0.00     0.168 HD
BRANCH   9  11
HETATM   11  C   UNL     1      25.501  44.901  49.522  1.00  0.00     0.068 A 
HETATM   12  C   UNL     1      24.174  45.158  49.113  1.00  0.00     0.097 A 
HETATM   13  C   UNL     1      23.649  46.455  49.203  1.00  0.00     0.075 A 
HETATM   14  C   UNL     1      24.431  47.493  49.712  1.00  0.00     0.070 A 
HETATM   15  C   UNL     1      25.726  47.223  50.156  1.00  0.00     0.039 A 
HETATM   16  C   UNL     1      26.260  45.935  50.069  1.00  0.00     0.035 A 
BRANCH  12  17
HETATM   17  O   UNL     1      23.486  44.063  48.638  1.00  0.00    -0.354 OA
HETATM   18  C   UNL     1      23.083  44.084  47.274  1.00  0.00     0.210 C 
ENDBRANCH  12  17
BRANCH  14  19
HETATM   19  O   UNL     1      24.044  48.797  49.855  1.00  0.00    -0.356 OA
HETATM   20  C   UNL     1      24.288  49.666  48.756  1.00  0.00     0.210 C 
ENDBRANCH  14  19
ENDBRANCH   9  11
ENDBRANCH   7   9
ENDBRANCH   5   7
ENDBRANCH   2   5
BRANCH   1  21
HETATM   21  C   UNL     1      28.433  43.491  53.827  1.00  0.00     0.098 A 
HETATM   22  C   UNL     1      28.956  44.314  54.806  1.00  0.00     0.138 A 
HETATM   23  N   UNL     1      28.455  45.376  55.487  1.00  0.00    -0.370 N 
HETATM   24  N   UNL     1      30.242  43.881  55.008  1.00  0.00    -0.240 N 
HETATM   25  C   UNL     1      29.225  46.093  56.497  1.00  0.00     0.081 C 
HETATM   26  H   UNL     1      27.622  45.867  55.163  1.00  0.00     0.161 HD
HETATM   27  C   UNL     1      28.710  45.727  57.883  1.00  0.00     0.032 C 
HETATM   28  C   UNL     1      30.735  45.907  56.294  1.00  0.00     0.061 C 
HETATM   29  C   UNL     1      31.178  44.479  55.937  1.00  0.00     0.221 C 
HETATM   30  N   UNL     1      30.630  42.916  54.157  1.00  0.00    -0.181 NA
HETATM   31  C   UNL     1      29.522  42.667  53.452  1.00  0.00     0.160 A 
BRANCH  29  32
HETATM   32  C   UNL     1      31.381  43.578  57.133  1.00  0.00     0.409 C 
HETATM   33  F   UNL     1      30.414  42.652  57.287  1.00  0.00    -0.169 F 
HETATM   34  F   UNL     1      32.564  42.925  57.093  1.00  0.00    -0.169 F 
HETATM   35  F   UNL     1      31.397  44.319  58.273  1.00  0.00    -0.169 F 
ENDBRANCH  29  32
ENDBRANCH   1  21
TORSDOF 8
ENDMDL
MODEL 4
REMARK VINA RESULT:      -8.4      2.138      2.940
REMARK  8 active torsions:
REMARK  status: ('A' for Active; 'I' for Inactive)
REMARK    1  A    between atoms: C_8  and  C_9 
REMARK       I    between atoms: C_9  and  N_10 
REMARK    2  A    between atoms: N_10  and  N_11 
REMARK    3  A    between atoms: N_11  and  C_12 
REMARK    4  A    between atoms: C_12  and  N_13 
REMARK    5  A    between atoms: N_13  and  C_14 
REMARK    6  A    between atoms: C_15  and  O_16 
REMARK    7  A    between atoms: C_19  and  O_20 
REMARK    8  A    between atoms: C_26  and  C_27 
ROOT
HETATM    1  C   UNL     1      24.945  46.954  51.019  1.00  0.00     0.275 C 
HETATM    2  N   UNL     1      24.070  47.177  49.971  1.00  0.00    -0.263 N 
HETATM    3  O   UNL     1      24.950  47.645  52.035  1.00  0.00    -0.266 OA
HETATM    4  H   UNL     1      24.303  46.814  49.048  1.00  0.00     0.190 HD
ENDROOT
BRANCH   2   5
HETATM    5  N   UNL     1      23.239  48.310  50.017  1.00  0.00    -0.273 N 
HETATM    6  H   UNL     1      23.237  48.784  50.922  1.00  0.00     0.189 HD
BRANCH   5   7
HETATM    7  C   UNL     1      23.050  49.084  48.901  1.00  0.00     0.191 C 
HETATM    8  S   UNL     1      24.267  49.959  48.142  1.00  0.00    -0.039 SA
BRANCH   7   9
HETATM    9  N   UNL     1      21.788  49.168  48.397  1.00  0.00    -0.330 N 
HETATM   10  H   UNL     1      21.609  48.549  47.609  1.00  0.00     0.168 HD
BRANCH   9  11
HETATM   11  C   UNL     1      20.664  49.942  48.769  1.00  0.00     0.068 A 
HETATM   12  C   UNL     1      19.588  49.257  49.375  1.00  0.00     0.097 A 
HETATM   13  C   UNL     1      18.444  49.961  49.776  1.00  0.00     0.075 A 
HETATM   14  C   UNL     1      18.372  51.343  49.594  1.00  0.00     0.070 A 
HETATM   15  C   UNL     1      19.457  52.020  49.036  1.00  0.00     0.039 A 
HETATM   16  C   UNL     1      20.601  51.328  48.630  1.00  0.00     0.035 A 
BRANCH  12  17
HETATM   17  O   UNL     1      19.766  47.899  49.519  1.00  0.00    -0.354 OA
HETATM   18  C   UNL     1      18.954  47.044  48.724  1.00  0.00     0.210 C 
ENDBRANCH  12  17
BRANCH  14  19
HETATM   19  O   UNL     1      17.321  52.146  49.940  1.00  0.00    -0.356 OA
HETATM   20  C   UNL     1      16.069  51.873  49.321  1.00  0.00     0.210 C 
ENDBRANCH  14  19
ENDBRANCH   9  11
ENDBRANCH   7   9
ENDBRANCH   5   7
ENDBRANCH   2   5
BRANCH   1  21
HETATM   21  C   UNL     1      25.880  45.870  50.797  1.00  0.00     0.098 A 
HETATM   22  C   UNL     1      26.615  45.146  51.718  1.00  0.00     0.138 A 
HETATM   23  N   UNL     1      26.771  45.247  53.062  1.00  0.00    -0.370 N 
HETATM   24  N   UNL     1      27.290  44.199  50.991  1.00  0.00    -0.240 N 
HETATM   25  C   UNL     1      27.624  44.340  53.822  1.00  0.00     0.081 C 
HETATM   26  H   UNL     1      26.499  46.093  53.564  1.00  0.00     0.161 HD
HETATM   27  C   UNL     1      26.755  43.361  54.601  1.00  0.00     0.032 C 
HETATM   28  C   UNL     1      28.695  43.694  52.933  1.00  0.00     0.061 C 
HETATM   29  C   UNL     1      28.209  43.230  51.551  1.00  0.00     0.221 C 
HETATM   30  N   UNL     1      27.139  44.324  49.662  1.00  0.00    -0.181 NA
HETATM   31  C   UNL     1      26.265  45.328  49.547  1.00  0.00     0.160 A 
BRANCH  29  32
HETATM   32  C   UNL     1      27.589  41.852  51.545  1.00  0.00     0.409 C 
HETATM   33  F   UNL     1      27.967  41.081  52.583  1.00  0.00    -0.169 F 
HETATM   34  F   UNL     1      26.238  41.894  51.542  1.00  0.00    -0.169 F 
HETATM   35  F   UNL     1      27.949  41.188  50.414  1.00  0.00    -0.169 F 
ENDBRANCH  29  32
ENDBRANCH   1  21
TORSDOF 8
ENDMDL
MODEL 5
REMARK VINA RESULT:      -8.3      4.964      9.064
REMARK  8 active torsions:
REMARK  status: ('A' for Active; 'I' for Inactive)
REMARK    1  A    between atoms: C_8  and  C_9 
REMARK       I    between atoms: C_9  and  N_10 
REMARK    2  A    between atoms: N_10  and  N_11 
REMARK    3  A    between atoms: N_11  and  C_12 
REMARK    4  A    between atoms: C_12  and  N_13 
REMARK    5  A    between atoms: N_13  and  C_14 
REMARK    6  A    between atoms: C_15  and  O_16 
REMARK    7  A    between atoms: C_19  and  O_20 
REMARK    8  A    between atoms: C_26  and  C_27 
ROOT
HETATM    1  C   UNL     1      21.679  46.041  48.298  1.00  0.00     0.275 C 
HETATM    2  N   UNL     1      21.687  45.100  49.311  1.00  0.00    -0.263 N 
HETATM    3  O   UNL     1      22.412  45.960  47.314  1.00  0.00    -0.266 OA
HETATM    4  H   UNL     1      21.324  45.357  50.228  1.00  0.00     0.190 HD
ENDROOT
BRANCH   2   5
HETATM    5  N   UNL     1      22.654  44.079  49.276  1.00  0.00    -0.273 N 
HETATM    6  H   UNL     1      22.691  43.577  48.387  1.00  0.00     0.189 HD
BRANCH   5   7
HETATM    7  C   UNL     1      23.824  44.201  49.980  1.00  0.00     0.191 C 
HETATM    8  S   UNL     1      25.277  43.491  49.527  1.00  0.00    -0.039 SA
BRANCH   7   9
HETATM    9  N   UNL     1      23.793  44.921  51.136  1.00  0.00    -0.330 N 
HETATM   10  H   UNL     1      22.859  45.204  51.428  1.00  0.00     0.168 HD
BRANCH   9  11
HETATM   11  C   UNL     1      24.811  45.341  52.024  1.00  0.00     0.068 A 
HETATM   12  C   UNL     1      25.282  46.663  51.874  1.00  0.00     0.097 A 
HETATM   13  C   UNL     1      26.286  47.151  52.723  1.00  0.00     0.075 A 
HETATM   14  C   UNL     1      26.809  46.338  53.730  1.00  0.00     0.070 A 
HETATM   15  C   UNL     1      26.307  45.047  53.900  1.00  0.00     0.039 A 
HETATM   16  C   UNL     1      25.309  44.550  53.058  1.00  0.00     0.035 A 
BRANCH  12  17
HETATM   17  O   UNL     1      24.691  47.384  50.861  1.00  0.00    -0.354 OA
HETATM   18  C   UNL     1      25.536  47.877  49.829  1.00  0.00     0.210 C 
ENDBRANCH  12  17
BRANCH  14  19
HETATM   19  O   UNL     1      27.784  46.688  54.622  1.00  0.00    -0.356 OA
HETATM   20  C   UNL     1      28.677  45.662  55.038  1.00  0.00     0.210 C 
ENDBRANCH  14  19
ENDBRANCH   9  11
ENDBRANCH   7   9
ENDBRANCH   5   7
ENDBRANCH   2   5
BRANCH   1  21
HETATM   21  C   UNL     1      20.770  47.147  48.516  1.00  0.00     0.098 A 
HETATM   22  C   UNL     1      21.040  48.426  48.966  1.00  0.00     0.138 A 
HETATM   23  N   UNL     1      22.170  49.030  49.413  1.00  0.00    -0.370 N 
HETATM   24  N   UNL     1      19.842  49.092  48.931  1.00  0.00    -0.240 N 
HETATM   25  C   UNL     1      22.196  50.424  49.841  1.00  0.00     0.081 C 
HETATM   26  H   UNL     1      22.985  48.485  49.696  1.00  0.00     0.161 HD
HETATM   27  C   UNL     1      22.885  51.269  48.776  1.00  0.00     0.032 C 
HETATM   28  C   UNL     1      20.803  50.913  50.258  1.00  0.00     0.061 C 
HETATM   29  C   UNL     1      19.649  50.466  49.345  1.00  0.00     0.221 C 
HETATM   30  N   UNL     1      18.796  48.315  48.602  1.00  0.00    -0.181 NA
HETATM   31  C   UNL     1      19.366  47.137  48.331  1.00  0.00     0.160 A 
BRANCH  29  32
HETATM   32  C   UNL     1      19.434  51.354  48.142  1.00  0.00     0.409 C 
HETATM   33  F   UNL     1      19.840  52.626  48.325  1.00  0.00    -0.169 F 
HETATM   34  F   UNL     1      20.056  50.885  47.037  1.00  0.00    -0.169 F 
HETATM   35  F   UNL     1      18.110  51.407  47.837  1.00  0.00    -0.169 F 
ENDBRANCH  29  32
ENDBRANCH   1  21
TORSDOF 8
ENDMDL
MODEL 6
REMARK VINA RESULT:      -8.3      4.610      9.556
REMARK  8 active torsions:
REMARK  status: ('A' for Active; 'I' for Inactive)
REMARK    1  A    between atoms: C_8  and  C_9 
REMARK       I    between atoms: C_9  and  N_10 
REMARK    2  A    between atoms: N_10  and  N_11 
REMARK    3  A    between atoms: N_11  and  C_12 
REMARK    4  A    between atoms: C_12  and  N_13 
REMARK    5  A    between atoms: N_13  and  C_14 
REMARK    6  A    between atoms: C_15  and  O_16 
REMARK    7  A    between atoms: C_19  and  O_20 
REMARK    8  A    between atoms: C_26  and  C_27 
ROOT
HETATM    1  C   UNL     1      23.797  47.965  49.579  1.00  0.00     0.275 C 
HETATM    2  N   UNL     1      23.369  46.653  49.671  1.00  0.00    -0.263 N 
HETATM    3  O   UNL     1      24.878  48.341  50.028  1.00  0.00    -0.266 OA
HETATM    4  H   UNL     1      22.374  46.451  49.590  1.00  0.00     0.190 HD
ENDROOT
BRANCH   2   5
HETATM    5  N   UNL     1      24.142  45.742  50.413  1.00  0.00    -0.273 N 
HETATM    6  H   UNL     1      24.503  46.125  51.289  1.00  0.00     0.189 HD
BRANCH   5   7
HETATM    7  C   UNL     1      23.865  44.400  50.379  1.00  0.00     0.191 C 
HETATM    8  S   UNL     1      22.694  43.703  49.397  1.00  0.00    -0.039 SA
BRANCH   7   9
HETATM    9  N   UNL     1      24.566  43.589  51.219  1.00  0.00    -0.330 N 
HETATM   10  H   UNL     1      24.239  42.625  51.240  1.00  0.00     0.168 HD
BRANCH   9  11
HETATM   11  C   UNL     1      25.677  43.824  52.061  1.00  0.00     0.068 A 
HETATM   12  C   UNL     1      26.954  43.556  51.524  1.00  0.00     0.097 A 
HETATM   13  C   UNL     1      28.102  43.773  52.299  1.00  0.00     0.075 A 
HETATM   14  C   UNL     1      27.987  44.270  53.598  1.00  0.00     0.070 A 
HETATM   15  C   UNL     1      26.724  44.574  54.107  1.00  0.00     0.039 A 
HETATM   16  C   UNL     1      25.573  44.360  53.344  1.00  0.00     0.035 A 
BRANCH  12  17
HETATM   17  O   UNL     1      26.958  43.082  50.231  1.00  0.00    -0.354 OA
HETATM   18  C   UNL     1      27.379  41.739  50.027  1.00  0.00     0.210 C 
ENDBRANCH  12  17
BRANCH  14  19
HETATM   19  O   UNL     1      29.020  44.526  54.457  1.00  0.00    -0.356 OA
HETATM   20  C   UNL     1      28.898  45.673  55.290  1.00  0.00     0.210 C 
ENDBRANCH  14  19
ENDBRANCH   9  11
ENDBRANCH   7   9
ENDBRANCH   5   7
ENDBRANCH   2   5
BRANCH   1  21
HETATM   21  C   UNL     1      22.849  48.861  48.952  1.00  0.00     0.098 A 
HETATM   22  C   UNL     1      21.471  48.898  49.067  1.00  0.00     0.138 A 
HETATM   23  N   UNL     1      20.575  48.104  49.705  1.00  0.00    -0.370 N 
HETATM   24  N   UNL     1      21.065  49.974  48.320  1.00  0.00    -0.240 N 
HETATM   25  C   UNL     1      19.139  48.362  49.675  1.00  0.00     0.081 C 
HETATM   26  H   UNL     1      20.830  47.170  50.027  1.00  0.00     0.161 HD
HETATM   27  C   UNL     1      18.696  48.920  51.021  1.00  0.00     0.032 C 
HETATM   28  C   UNL     1      18.743  49.208  48.458  1.00  0.00     0.061 C 
HETATM   29  C   UNL     1      19.687  50.377  48.135  1.00  0.00     0.221 C 
HETATM   30  N   UNL     1      22.059  50.569  47.638  1.00  0.00    -0.181 NA
HETATM   31  C   UNL     1      23.145  49.903  48.039  1.00  0.00     0.160 A 
BRANCH  29  32
HETATM   32  C   UNL     1      19.397  51.638  48.916  1.00  0.00     0.409 C 
HETATM   33  F   UNL     1      19.636  52.771  48.227  1.00  0.00    -0.169 F 
HETATM   34  F   UNL     1      18.119  51.693  49.353  1.00  0.00    -0.169 F 
HETATM   35  F   UNL     1      20.178  51.684  50.028  1.00  0.00    -0.169 F 
ENDBRANCH  29  32
ENDBRANCH   1  21
TORSDOF 8
ENDMDL
MODEL 7
REMARK VINA RESULT:      -8.2      1.582      2.054
REMARK  8 active torsions:
REMARK  status: ('A' for Active; 'I' for Inactive)
REMARK    1  A    between atoms: C_8  and  C_9 
REMARK       I    between atoms: C_9  and  N_10 
REMARK    2  A    between atoms: N_10  and  N_11 
REMARK    3  A    between atoms: N_11  and  C_12 
REMARK    4  A    between atoms: C_12  and  N_13 
REMARK    5  A    between atoms: N_13  and  C_14 
REMARK    6  A    between atoms: C_15  and  O_16 
REMARK    7  A    between atoms: C_19  and  O_20 
REMARK    8  A    between atoms: C_26  and  C_27 
ROOT
HETATM    1  C   UNL     1      25.444  47.049  51.112  1.00  0.00     0.275 C 
HETATM    2  N   UNL     1      24.422  46.271  50.599  1.00  0.00    -0.263 N 
HETATM    3  O   UNL     1      25.994  47.934  50.459  1.00  0.00    -0.266 OA
HETATM    4  H   UNL     1      24.224  45.369  51.030  1.00  0.00     0.190 HD
ENDROOT
BRANCH   2   5
HETATM    5  N   UNL     1      24.082  46.414  49.242  1.00  0.00    -0.273 N 
HETATM    6  H   UNL     1      24.846  46.197  48.600  1.00  0.00     0.189 HD
BRANCH   5   7
HETATM    7  C   UNL     1      22.805  46.160  48.811  1.00  0.00     0.191 C 
HETATM    8  S   UNL     1      22.053  44.663  48.921  1.00  0.00    -0.039 SA
BRANCH   7   9
HETATM    9  N   UNL     1      22.119  47.185  48.232  1.00  0.00    -0.330 N 
HETATM   10  H   UNL     1      22.087  47.144  47.215  1.00  0.00     0.168 HD
BRANCH   9  11
HETATM   11  C   UNL     1      21.427  48.292  48.773  1.00  0.00     0.068 A 
HETATM   12  C   UNL     1      22.185  49.455  49.031  1.00  0.00     0.097 A 
HETATM   13  C   UNL     1      21.564  50.595  49.561  1.00  0.00     0.075 A 
HETATM   14  C   UNL     1      20.192  50.590  49.820  1.00  0.00     0.070 A 
HETATM   15  C   UNL     1      19.442  49.453  49.520  1.00  0.00     0.039 A 
HETATM   16  C   UNL     1      20.050  48.311  48.994  1.00  0.00     0.035 A 
BRANCH  12  17
HETATM   17  O   UNL     1      23.525  49.359  48.730  1.00  0.00    -0.354 OA
HETATM   18  C   UNL     1      24.074  50.345  47.864  1.00  0.00     0.210 C 
ENDBRANCH  12  17
BRANCH  14  19
HETATM   19  O   UNL     1      19.466  51.629  50.332  1.00  0.00    -0.356 OA
HETATM   20  C   UNL     1      18.268  51.978  49.649  1.00  0.00     0.210 C 
ENDBRANCH  14  19
ENDBRANCH   9  11
ENDBRANCH   7   9
ENDBRANCH   5   7
ENDBRANCH   2   5
BRANCH   1  21
HETATM   21  C   UNL     1      25.840  46.703  52.461  1.00  0.00     0.098 A 
HETATM   22  C   UNL     1      26.538  45.598  52.913  1.00  0.00     0.138 A 
HETATM   23  N   UNL     1      26.996  44.479  52.298  1.00  0.00    -0.370 N 
HETATM   24  N   UNL     1      26.702  45.788  54.261  1.00  0.00    -0.240 N 
HETATM   25  C   UNL     1      27.723  43.434  53.011  1.00  0.00     0.081 C 
HETATM   26  H   UNL     1      26.653  44.202  51.377  1.00  0.00     0.161 HD
HETATM   27  C   UNL     1      29.202  43.511  52.653  1.00  0.00     0.032 C 
HETATM   28  C   UNL     1      27.415  43.458  54.514  1.00  0.00     0.061 C 
HETATM   29  C   UNL     1      27.363  44.856  55.151  1.00  0.00     0.221 C 
HETATM   30  N   UNL     1      26.068  46.872  54.739  1.00  0.00    -0.181 NA
HETATM   31  C   UNL     1      25.561  47.438  53.639  1.00  0.00     0.160 A 
BRANCH  29  32
HETATM   32  C   UNL     1      28.710  45.395  55.572  1.00  0.00     0.409 C 
HETATM   33  F   UNL     1      29.671  44.454  55.653  1.00  0.00    -0.169 F 
HETATM   34  F   UNL     1      29.161  46.363  54.744  1.00  0.00    -0.169 F 
HETATM   35  F   UNL     1      28.616  45.964  56.803  1.00  0.00    -0.169 F 
ENDBRANCH  29  32
ENDBRANCH   1  21
TORSDOF 8
ENDMDL
MODEL 8
REMARK VINA RESULT:      -8.0      2.361      3.314
REMARK  8 active torsions:
REMARK  status: ('A' for Active; 'I' for Inactive)
REMARK    1  A    between atoms: C_8  and  C_9 
REMARK       I    between atoms: C_9  and  N_10 
REMARK    2  A    between atoms: N_10  and  N_11 
REMARK    3  A    between atoms: N_11  and  C_12 
REMARK    4  A    between atoms: C_12  and  N_13 
REMARK    5  A    between atoms: N_13  and  C_14 
REMARK    6  A    between atoms: C_15  and  O_16 
REMARK    7  A    between atoms: C_19  and  O_20 
REMARK    8  A    between atoms: C_26  and  C_27 
ROOT
HETATM    1  C   UNL     1      24.738  46.517  50.532  1.00  0.00     0.275 C 
HETATM    2  N   UNL     1      23.756  46.029  49.689  1.00  0.00    -0.263 N 
HETATM    3  O   UNL     1      24.668  47.627  51.056  1.00  0.00    -0.266 OA
HETATM    4  H   UNL     1      23.990  45.280  49.039  1.00  0.00     0.190 HD
ENDROOT
BRANCH   2   5
HETATM    5  N   UNL     1      22.699  46.880  49.321  1.00  0.00    -0.273 N 
HETATM    6  H   UNL     1      22.878  47.868  49.513  1.00  0.00     0.189 HD
BRANCH   5   7
HETATM    7  C   UNL     1      21.904  46.583  48.244  1.00  0.00     0.191 C 
HETATM    8  S   UNL     1      21.473  45.024  47.791  1.00  0.00    -0.039 SA
BRANCH   7   9
HETATM    9  N   UNL     1      21.465  47.620  47.478  1.00  0.00    -0.330 N 
HETATM   10  H   UNL     1      21.588  47.483  46.477  1.00  0.00     0.168 HD
BRANCH   9  11
HETATM   11  C   UNL     1      20.853  48.852  47.806  1.00  0.00     0.068 A 
HETATM   12  C   UNL     1      21.689  49.989  47.847  1.00  0.00     0.097 A 
HETATM   13  C   UNL     1      21.151  51.246  48.158  1.00  0.00     0.075 A 
HETATM   14  C   UNL     1      19.784  51.380  48.411  1.00  0.00     0.070 A 
HETATM   15  C   UNL     1      18.957  50.259  48.324  1.00  0.00     0.039 A 
HETATM   16  C   UNL     1      19.483  49.002  48.017  1.00  0.00     0.035 A 
BRANCH  12  17
HETATM   17  O   UNL     1      23.016  49.750  47.571  1.00  0.00    -0.354 OA
HETATM   18  C   UNL     1      23.966  50.093  48.572  1.00  0.00     0.210 C 
ENDBRANCH  12  17
BRANCH  14  19
HETATM   19  O   UNL     1      19.134  52.541  48.723  1.00  0.00    -0.356 OA
HETATM   20  C   UNL     1      17.979  52.433  49.547  1.00  0.00     0.210 C 
ENDBRANCH  14  19
ENDBRANCH   9  11
ENDBRANCH   7   9
ENDBRANCH   5   7
ENDBRANCH   2   5
BRANCH   1  21
HETATM   21  C   UNL     1      25.870  45.632  50.707  1.00  0.00     0.098 A 
HETATM   22  C   UNL     1      26.455  45.179  51.875  1.00  0.00     0.138 A 
HETATM   23  N   UNL     1      26.237  45.454  53.186  1.00  0.00    -0.370 N 
HETATM   24  N   UNL     1      27.448  44.319  51.483  1.00  0.00    -0.240 N 
HETATM   25  C   UNL     1      27.006  44.829  54.256  1.00  0.00     0.081 C 
HETATM   26  H   UNL     1      25.701  46.274  53.472  1.00  0.00     0.161 HD
HETATM   27  C   UNL     1      26.146  43.782  54.953  1.00  0.00     0.032 C 
HETATM   28  C   UNL     1      28.366  44.326  53.755  1.00  0.00     0.061 C 
HETATM   29  C   UNL     1      28.343  43.626  52.387  1.00  0.00     0.221 C 
HETATM   30  N   UNL     1      27.629  44.265  50.153  1.00  0.00    -0.181 NA
HETATM   31  C   UNL     1      26.655  45.050  49.682  1.00  0.00     0.160 A 
BRANCH  29  32
HETATM   32  C   UNL     1      27.994  42.157  52.450  1.00  0.00     0.409 C 
HETATM   33  F   UNL     1      28.183  41.605  53.665  1.00  0.00    -0.169 F 
HETATM   34  F   UNL     1      26.714  41.915  52.090  1.00  0.00    -0.169 F 
HETATM   35  F   UNL     1      28.770  41.459  51.579  1.00  0.00    -0.169 F 
ENDBRANCH  29  32
ENDBRANCH   1  21
TORSDOF 8
ENDMDL
MODEL 9
REMARK VINA RESULT:      -8.0      4.546      6.265
REMARK  8 active torsions:
REMARK  status: ('A' for Active; 'I' for Inactive)
REMARK    1  A    between atoms: C_8  and  C_9 
REMARK       I    between atoms: C_9  and  N_10 
REMARK    2  A    between atoms: N_10  and  N_11 
REMARK    3  A    between atoms: N_11  and  C_12 
REMARK    4  A    between atoms: C_12  and  N_13 
REMARK    5  A    between atoms: N_13  and  C_14 
REMARK    6  A    between atoms: C_15  and  O_16 
REMARK    7  A    between atoms: C_19  and  O_20 
REMARK    8  A    between atoms: C_26  and  C_27 
ROOT
HETATM    1  C   UNL     1      28.877  41.839  53.184  1.00  0.00     0.275 C 
HETATM    2  N   UNL     1      28.931  42.090  51.825  1.00  0.00    -0.263 N 
HETATM    3  O   UNL     1      28.479  40.770  53.643  1.00  0.00    -0.266 OA
HETATM    4  H   UNL     1      28.949  43.056  51.502  1.00  0.00     0.190 HD
ENDROOT
BRANCH   2   5
HETATM    5  N   UNL     1      28.398  41.136  50.941  1.00  0.00    -0.273 N 
HETATM    6  H   UNL     1      28.293  40.206  51.352  1.00  0.00     0.189 HD
BRANCH   5   7
HETATM    7  C   UNL     1      27.495  41.504  49.976  1.00  0.00     0.191 C 
HETATM    8  S   UNL     1      27.651  41.131  48.346  1.00  0.00    -0.039 SA
BRANCH   7   9
HETATM    9  N   UNL     1      26.421  42.245  50.367  1.00  0.00    -0.330 N 
HETATM   10  H   UNL     1      25.638  41.695  50.715  1.00  0.00     0.168 HD
BRANCH   9  11
HETATM   11  C   UNL     1      26.188  43.639  50.397  1.00  0.00     0.068 A 
HETATM   12  C   UNL     1      24.919  44.064  50.850  1.00  0.00     0.097 A 
HETATM   13  C   UNL     1      24.618  45.432  50.913  1.00  0.00     0.075 A 
HETATM   14  C   UNL     1      25.577  46.378  50.545  1.00  0.00     0.070 A 
HETATM   15  C   UNL     1      26.843  45.952  50.142  1.00  0.00     0.039 A 
HETATM   16  C   UNL     1      27.152  44.592  50.072  1.00  0.00     0.035 A 
BRANCH  12  17
HETATM   17  O   UNL     1      24.054  43.053  51.199  1.00  0.00    -0.354 OA
HETATM   18  C   UNL     1      22.957  42.799  50.330  1.00  0.00     0.210 C 
ENDBRANCH  12  17
BRANCH  14  19
HETATM   19  O   UNL     1      25.415  47.736  50.561  1.00  0.00    -0.356 OA
HETATM   20  C   UNL     1      24.964  48.346  49.358  1.00  0.00     0.210 C 
ENDBRANCH  14  19
ENDBRANCH   9  11
ENDBRANCH   7   9
ENDBRANCH   5   7
ENDBRANCH   2   5
BRANCH   1  21
HETATM   21  C   UNL     1      29.284  42.953  54.015  1.00  0.00     0.098 A 
HETATM   22  C   UNL     1      28.701  44.199  54.155  1.00  0.00     0.138 A 
HETATM   23  N   UNL     1      27.656  44.806  53.539  1.00  0.00    -0.370 N 
HETATM   24  N   UNL     1      29.441  44.849  55.110  1.00  0.00    -0.240 N 
HETATM   25  C   UNL     1      27.227  46.159  53.874  1.00  0.00     0.081 C 
HETATM   26  H   UNL     1      27.279  44.448  52.661  1.00  0.00     0.161 HD
HETATM   27  C   UNL     1      25.937  46.096  54.682  1.00  0.00     0.032 C 
HETATM   28  C   UNL     1      28.360  46.967  54.521  1.00  0.00     0.061 C 
HETATM   29  C   UNL     1      29.201  46.204  55.558  1.00  0.00     0.221 C 
HETATM   30  N   UNL     1      30.524  44.166  55.517  1.00  0.00    -0.181 NA
HETATM   31  C   UNL     1      30.415  43.005  54.864  1.00  0.00     0.160 A 
BRANCH  29  32
HETATM   32  C   UNL     1      28.612  46.203  56.950  1.00  0.00     0.409 C 
HETATM   33  F   UNL     1      27.905  45.094  57.240  1.00  0.00    -0.169 F 
HETATM   34  F   UNL     1      29.555  46.344  57.909  1.00  0.00    -0.169 F 
HETATM   35  F   UNL     1      27.765  47.256  57.095  1.00  0.00    -0.169 F 
ENDBRANCH  29  32
ENDBRANCH   1  21
TORSDOF 8
ENDMDL
MODEL 10
REMARK VINA RESULT:      -8.0     12.146     13.690
REMARK  8 active torsions:
REMARK  status: ('A' for Active; 'I' for Inactive)
REMARK    1  A    between atoms: C_8  and  C_9 
REMARK       I    between atoms: C_9  and  N_10 
REMARK    2  A    between atoms: N_10  and  N_11 
REMARK    3  A    between atoms: N_11  and  C_12 
REMARK    4  A    between atoms: C_12  and  N_13 
REMARK    5  A    between atoms: N_13  and  C_14 
REMARK    6  A    between atoms: C_15  and  O_16 
REMARK    7  A    between atoms: C_19  and  O_20 
REMARK    8  A    between atoms: C_26  and  C_27 
ROOT
HETATM    1  C   UNL     1      28.316  51.829  39.877  1.00  0.00     0.275 C 
HETATM    2  N   UNL     1      27.403  51.211  40.711  1.00  0.00    -0.263 N 
HETATM    3  O   UNL     1      28.069  52.084  38.700  1.00  0.00    -0.266 OA
HETATM    4  H   UNL     1      27.741  50.736  41.547  1.00  0.00     0.190 HD
ENDROOT
BRANCH   2   5
HETATM    5  N   UNL     1      26.194  50.747  40.163  1.00  0.00    -0.273 N 
HETATM    6  H   UNL     1      25.716  51.435  39.577  1.00  0.00     0.189 HD
BRANCH   5   7
HETATM    7  C   UNL     1      26.036  49.424  39.839  1.00  0.00     0.191 C 
HETATM    8  S   UNL     1      25.063  48.869  38.587  1.00  0.00    -0.039 SA
BRANCH   7   9
HETATM    9  N   UNL     1      26.689  48.505  40.603  1.00  0.00    -0.330 N 
HETATM   10  H   UNL     1      26.766  48.757  41.586  1.00  0.00     0.168 HD
BRANCH   9  11
HETATM   11  C   UNL     1      27.271  47.254  40.295  1.00  0.00     0.068 A 
HETATM   12  C   UNL     1      28.578  47.271  39.760  1.00  0.00     0.097 A 
HETATM   13  C   UNL     1      29.221  46.068  39.438  1.00  0.00     0.075 A 
HETATM   14  C   UNL     1      28.580  44.849  39.661  1.00  0.00     0.070 A 
HETATM   15  C   UNL     1      27.306  44.837  40.231  1.00  0.00     0.039 A 
HETATM   16  C   UNL     1      26.655  46.030  40.554  1.00  0.00     0.035 A 
BRANCH  12  17
HETATM   17  O   UNL     1      29.124  48.524  39.592  1.00  0.00    -0.354 OA
HETATM   18  C   UNL     1      30.223  48.644  38.698  1.00  0.00     0.210 C 
ENDBRANCH  12  17
BRANCH  14  19
HETATM   19  O   UNL     1      29.092  43.609  39.394  1.00  0.00    -0.356 OA
HETATM   20  C   UNL     1      29.351  43.298  38.031  1.00  0.00     0.210 C 
ENDBRANCH  14  19
ENDBRANCH   9  11
ENDBRANCH   7   9
ENDBRANCH   5   7
ENDBRANCH   2   5
BRANCH   1  21
HETATM   21  C   UNL     1      29.597  52.107  40.492  1.00  0.00     0.098 A 
HETATM   22  C   UNL     1      30.361  51.308  41.322  1.00  0.00     0.138 A 
HETATM   23  N   UNL     1      30.152  50.090  41.883  1.00  0.00    -0.370 N 
HETATM   24  N   UNL     1      31.507  52.019  41.570  1.00  0.00    -0.240 N 
HETATM   25  C   UNL     1      31.137  49.444  42.743  1.00  0.00     0.081 C 
HETATM   26  H   UNL     1      29.218  49.682  41.929  1.00  0.00     0.161 HD
HETATM   27  C   UNL     1      31.809  48.309  41.980  1.00  0.00     0.032 C 
HETATM   28  C   UNL     1      32.097  50.464  43.369  1.00  0.00     0.061 C 
HETATM   29  C   UNL     1      32.589  51.570  42.421  1.00  0.00     0.221 C 
HETATM   30  N   UNL     1      31.498  53.261  41.058  1.00  0.00    -0.181 NA
HETATM   31  C   UNL     1      30.343  53.306  40.387  1.00  0.00     0.160 A 
BRANCH  29  32
HETATM   32  C   UNL     1      33.788  51.180  41.588  1.00  0.00     0.409 C 
HETATM   33  F   UNL     1      33.471  50.682  40.377  1.00  0.00    -0.169 F 
HETATM   34  F   UNL     1      34.637  52.214  41.391  1.00  0.00    -0.169 F 
HETATM   35  F   UNL     1      34.505  50.220  42.230  1.00  0.00    -0.169 F 
ENDBRANCH  29  32
ENDBRANCH   1  21
TORSDOF 8
ENDMDL
