MODEL 1
REMARK VINA RESULT:      -8.0      0.000      0.000
REMARK  10 active torsions:
REMARK  status: ('A' for Active; 'I' for Inactive)
REMARK    1  A    between atoms: C_2  and  N_3 
REMARK    2  A    between atoms: N_7  and  C_8 
REMARK    3  A    between atoms: C_8  and  C_9 
REMARK    4  A    between atoms: C_9  and  N_10 
REMARK    5  A    between atoms: N_10  and  C_11 
REMARK    6  A    between atoms: C_13  and  C_14 
REMARK    7  A    between atoms: C_14  and  N_15 
REMARK    8  A    between atoms: C_23  and  C_24 
REMARK    9  A    between atoms: C_24  and  O_25 
REMARK   10  A    between atoms: O_25  and  C_26 
ROOT
HETATM    1  C   UNL     1      26.340  45.528  51.779  1.00  0.00     0.139 A 
HETATM    2  N   UNL     1      26.297  44.644  50.748  1.00  0.00    -0.214 NA
HETATM    3  C   UNL     1      27.032  43.522  50.803  1.00  0.00     0.155 A 
HETATM    4  N   UNL     1      27.882  43.176  51.777  1.00  0.00    -0.224 NA
HETATM    5  C   UNL     1      27.918  44.066  52.780  1.00  0.00     0.115 A 
HETATM    6  C   UNL     1      27.178  45.232  52.887  1.00  0.00     0.053 A 
HETATM    7  S   UNL     1      28.954  43.800  54.090  1.00  0.00    -0.063 SA
HETATM    8  C   UNL     1      28.445  45.224  54.888  1.00  0.00     0.089 A 
HETATM    9  C   UNL     1      27.444  45.882  54.169  1.00  0.00    -0.022 A 
HETATM   10  C   UNL     1      26.734  47.110  54.664  1.00  0.00     0.051 C 
ENDROOT
BRANCH   1  11
HETATM   11  N   UNL     1      25.558  46.675  51.716  1.00  0.00    -0.372 N 
HETATM   12  H   UNL     1      26.047  47.494  52.062  1.00  0.00     0.161 HD
BRANCH  11  13
HETATM   13  C   UNL     1      24.749  46.940  50.534  1.00  0.00     0.145 C 
BRANCH  13  14
HETATM   14  C   UNL     1      25.086  48.274  49.813  1.00  0.00     0.092 C 
HETATM   15  C   UNL     1      26.553  48.296  49.346  1.00  0.00     0.033 C 
BRANCH  14  16
HETATM   16  N   UNL     1      24.172  48.660  48.709  1.00  0.00    -0.404 N 
HETATM   17  C   UNL     1      24.140  50.088  48.377  1.00  0.00     0.145 C 
HETATM   18  C   UNL     1      22.996  50.913  49.009  1.00  0.00     0.254 C 
HETATM   19  N   UNL     1      21.654  50.238  48.798  1.00  0.00    -0.068 N 
HETATM   20  H   UNL     1      21.486  50.201  47.783  1.00  0.00     0.280 HD
HETATM   21  C   UNL     1      21.688  48.791  49.279  1.00  0.00     0.254 C 
HETATM   22  C   UNL     1      22.853  48.023  48.626  1.00  0.00     0.145 C 
BRANCH  19  23
HETATM   23  C   UNL     1      20.492  50.978  49.429  1.00  0.00     0.230 C 
HETATM   24  C   UNL     1      19.865  51.957  48.456  1.00  0.00     0.034 C 
ENDBRANCH  19  23
ENDBRANCH  14  16
ENDBRANCH  13  14
ENDBRANCH  11  13
ENDBRANCH   1  11
BRANCH   3  25
HETATM   25  C   UNL     1      26.887  42.503  49.684  1.00  0.00     0.314 C 
BRANCH  25  26
HETATM   26  N   UNL     1      27.346  41.098  50.073  1.00  0.00    -0.072 N 
HETATM   27  H   UNL     1      27.833  41.232  50.977  1.00  0.00     0.279 HD
HETATM   28  C   UNL     1      26.197  40.173  50.355  1.00  0.00     0.269 C 
HETATM   29  C   UNL     1      28.324  40.515  49.105  1.00  0.00     0.269 C 
ENDBRANCH  25  26
ENDBRANCH   3  25
BRANCH   8  30
HETATM   30  C   UNL     1      29.056  45.625  56.156  1.00  0.00     0.300 C 
HETATM   31  O   UNL     1      28.439  46.091  57.105  1.00  0.00    -0.259 OA
BRANCH  30  32
HETATM   32  O   UNL     1      30.401  45.397  56.152  1.00  0.00    -0.317 OA
BRANCH  32  33
HETATM   33  C   UNL     1      30.937  44.745  57.313  1.00  0.00     0.174 C 
HETATM   34  C   UNL     1      31.413  43.351  56.950  1.00  0.00     0.034 C 
ENDBRANCH  32  33
ENDBRANCH  30  32
ENDBRANCH   8  30
TORSDOF 10
ENDMDL
MODEL 2
REMARK VINA RESULT:      -8.0      2.142      7.358
REMARK  10 active torsions:
REMARK  status: ('A' for Active; 'I' for Inactive)
REMARK    1  A    between atoms: C_2  and  N_3 
REMARK    2  A    between atoms: N_7  and  C_8 
REMARK    3  A    between atoms: C_8  and  C_9 
REMARK    4  A    between atoms: C_9  and  N_10 
REMARK    5  A    between atoms: N_10  and  C_11 
REMARK    6  A    between atoms: C_13  and  C_14 
REMARK    7  A    between atoms: C_14  and  N_15 
REMARK    8  A    between atoms: C_23  and  C_24 
REMARK    9  A    between atoms: C_24  and  O_25 
REMARK   10  A    between atoms: O_25  and  C_26 
ROOT
HETATM    1  C   UNL     1      25.790  44.721  52.192  1.00  0.00     0.139 A 
HETATM    2  N   UNL     1      25.072  45.497  51.341  1.00  0.00    -0.214 NA
HETATM    3  C   UNL     1      25.124  46.834  51.454  1.00  0.00     0.155 A 
HETATM    4  N   UNL     1      25.794  47.526  52.383  1.00  0.00    -0.224 NA
HETATM    5  C   UNL     1      26.489  46.742  53.221  1.00  0.00     0.115 A 
HETATM    6  C   UNL     1      26.575  45.360  53.189  1.00  0.00     0.053 A 
HETATM    7  S   UNL     1      27.381  47.447  54.471  1.00  0.00    -0.063 SA
HETATM    8  C   UNL     1      27.956  45.934  55.025  1.00  0.00     0.089 A 
HETATM    9  C   UNL     1      27.498  44.889  54.220  1.00  0.00    -0.022 A 
HETATM   10  C   UNL     1      27.912  43.456  54.400  1.00  0.00     0.051 C 
ENDROOT
BRANCH   1  11
HETATM   11  N   UNL     1      25.740  43.339  52.048  1.00  0.00    -0.372 N 
HETATM   12  H   UNL     1      25.648  42.862  52.940  1.00  0.00     0.161 HD
BRANCH  11  13
HETATM   13  C   UNL     1      24.937  42.746  50.988  1.00  0.00     0.145 C 
BRANCH  13  14
HETATM   14  C   UNL     1      25.620  41.560  50.253  1.00  0.00     0.092 C 
HETATM   15  C   UNL     1      24.842  41.174  48.982  1.00  0.00     0.033 C 
BRANCH  14  16
HETATM   16  N   UNL     1      27.065  41.729  49.960  1.00  0.00    -0.404 N 
HETATM   17  C   UNL     1      27.487  41.366  48.604  1.00  0.00     0.145 C 
HETATM   18  C   UNL     1      28.079  39.949  48.428  1.00  0.00     0.254 C 
HETATM   19  N   UNL     1      29.151  39.671  49.464  1.00  0.00    -0.068 N 
HETATM   20  H   UNL     1      29.912  40.346  49.306  1.00  0.00     0.280 HD
HETATM   21  C   UNL     1      28.631  39.933  50.873  1.00  0.00     0.254 C 
HETATM   22  C   UNL     1      28.045  41.353  50.986  1.00  0.00     0.145 C 
BRANCH  19  23
HETATM   23  C   UNL     1      29.745  38.280  49.370  1.00  0.00     0.230 C 
HETATM   24  C   UNL     1      29.991  37.688  50.745  1.00  0.00     0.034 C 
ENDBRANCH  19  23
ENDBRANCH  14  16
ENDBRANCH  13  14
ENDBRANCH  11  13
ENDBRANCH   1  11
BRANCH   3  25
HETATM   25  C   UNL     1      24.392  47.680  50.425  1.00  0.00     0.314 C 
BRANCH  25  26
HETATM   26  N   UNL     1      25.277  48.132  49.263  1.00  0.00    -0.072 N 
HETATM   27  H   UNL     1      25.124  47.413  48.534  1.00  0.00     0.279 HD
HETATM   28  C   UNL     1      24.824  49.432  48.664  1.00  0.00     0.269 C 
HETATM   29  C   UNL     1      26.733  48.137  49.606  1.00  0.00     0.269 C 
ENDBRANCH  25  26
ENDBRANCH   3  25
BRANCH   8  30
HETATM   30  C   UNL     1      28.804  45.851  56.215  1.00  0.00     0.300 C 
HETATM   31  O   UNL     1      28.411  46.029  57.360  1.00  0.00    -0.259 OA
BRANCH  30  32
HETATM   32  O   UNL     1      30.089  45.533  55.886  1.00  0.00    -0.317 OA
BRANCH  32  33
HETATM   33  C   UNL     1      30.787  44.681  56.807  1.00  0.00     0.174 C 
HETATM   34  C   UNL     1      31.088  43.347  56.151  1.00  0.00     0.034 C 
ENDBRANCH  32  33
ENDBRANCH  30  32
ENDBRANCH   8  30
TORSDOF 10
ENDMDL
MODEL 3
REMARK VINA RESULT:      -7.6      2.481      3.735
REMARK  10 active torsions:
REMARK  status: ('A' for Active; 'I' for Inactive)
REMARK    1  A    between atoms: C_2  and  N_3 
REMARK    2  A    between atoms: N_7  and  C_8 
REMARK    3  A    between atoms: C_8  and  C_9 
REMARK    4  A    between atoms: C_9  and  N_10 
REMARK    5  A    between atoms: N_10  and  C_11 
REMARK    6  A    between atoms: C_13  and  C_14 
REMARK    7  A    between atoms: C_14  and  N_15 
REMARK    8  A    between atoms: C_23  and  C_24 
REMARK    9  A    between atoms: C_24  and  O_25 
REMARK   10  A    between atoms: O_25  and  C_26 
ROOT
HETATM    1  C   UNL     1      26.331  42.091  51.538  1.00  0.00     0.139 A 
HETATM    2  N   UNL     1      26.659  41.125  50.643  1.00  0.00    -0.214 NA
HETATM    3  C   UNL     1      27.919  40.665  50.591  1.00  0.00     0.155 A 
HETATM    4  N   UNL     1      28.954  41.102  51.317  1.00  0.00    -0.224 NA
HETATM    5  C   UNL     1      28.613  42.064  52.189  1.00  0.00     0.115 A 
HETATM    6  C   UNL     1      27.349  42.593  52.393  1.00  0.00     0.053 A 
HETATM    7  S   UNL     1      29.800  42.748  53.178  1.00  0.00    -0.063 SA
HETATM    8  C   UNL     1      28.677  43.776  53.957  1.00  0.00     0.089 A 
HETATM    9  C   UNL     1      27.379  43.561  53.488  1.00  0.00    -0.022 A 
HETATM   10  C   UNL     1      26.166  44.247  54.049  1.00  0.00     0.051 C 
ENDROOT
BRANCH   1  11
HETATM   11  N   UNL     1      25.017  42.542  51.593  1.00  0.00    -0.372 N 
HETATM   12  H   UNL     1      24.878  43.235  52.321  1.00  0.00     0.161 HD
BRANCH  11  13
HETATM   13  C   UNL     1      24.299  42.841  50.362  1.00  0.00     0.145 C 
BRANCH  13  14
HETATM   14  C   UNL     1      24.797  44.114  49.624  1.00  0.00     0.092 C 
HETATM   15  C   UNL     1      23.830  44.514  48.494  1.00  0.00     0.033 C 
BRANCH  14  16
HETATM   16  N   UNL     1      25.114  45.278  50.487  1.00  0.00    -0.404 N 
HETATM   17  C   UNL     1      24.152  46.385  50.445  1.00  0.00     0.145 C 
HETATM   18  C   UNL     1      24.502  47.560  49.504  1.00  0.00     0.254 C 
HETATM   19  N   UNL     1      25.925  48.036  49.728  1.00  0.00    -0.068 N 
HETATM   20  H   UNL     1      25.982  48.385  50.694  1.00  0.00     0.280 HD
HETATM   21  C   UNL     1      26.910  46.876  49.632  1.00  0.00     0.254 C 
HETATM   22  C   UNL     1      26.506  45.733  50.581  1.00  0.00     0.145 C 
BRANCH  19  23
HETATM   23  C   UNL     1      26.344  49.164  48.807  1.00  0.00     0.230 C 
HETATM   24  C   UNL     1      27.804  49.525  49.000  1.00  0.00     0.034 C 
ENDBRANCH  19  23
ENDBRANCH  14  16
ENDBRANCH  13  14
ENDBRANCH  11  13
ENDBRANCH   1  11
BRANCH   3  25
HETATM   25  C   UNL     1      28.234  39.513  49.651  1.00  0.00     0.314 C 
BRANCH  25  26
HETATM   26  N   UNL     1      28.253  38.148  50.341  1.00  0.00    -0.072 N 
HETATM   27  H   UNL     1      27.824  38.327  51.266  1.00  0.00     0.279 HD
HETATM   28  C   UNL     1      27.367  37.145  49.660  1.00  0.00     0.269 C 
HETATM   29  C   UNL     1      29.637  37.628  50.567  1.00  0.00     0.269 C 
ENDBRANCH  25  26
ENDBRANCH   3  25
BRANCH   8  30
HETATM   30  C   UNL     1      29.123  44.738  54.965  1.00  0.00     0.300 C 
HETATM   31  O   UNL     1      28.984  45.951  54.875  1.00  0.00    -0.259 OA
BRANCH  30  32
HETATM   32  O   UNL     1      29.701  44.109  56.029  1.00  0.00    -0.317 OA
BRANCH  32  33
HETATM   33  C   UNL     1      31.105  44.340  56.216  1.00  0.00     0.174 C 
HETATM   34  C   UNL     1      31.710  43.216  57.037  1.00  0.00     0.034 C 
ENDBRANCH  32  33
ENDBRANCH  30  32
ENDBRANCH   8  30
TORSDOF 10
ENDMDL
MODEL 4
REMARK VINA RESULT:      -7.5      2.098      6.586
REMARK  10 active torsions:
REMARK  status: ('A' for Active; 'I' for Inactive)
REMARK    1  A    between atoms: C_2  and  N_3 
REMARK    2  A    between atoms: N_7  and  C_8 
REMARK    3  A    between atoms: C_8  and  C_9 
REMARK    4  A    between atoms: C_9  and  N_10 
REMARK    5  A    between atoms: N_10  and  C_11 
REMARK    6  A    between atoms: C_13  and  C_14 
REMARK    7  A    between atoms: C_14  and  N_15 
REMARK    8  A    between atoms: C_23  and  C_24 
REMARK    9  A    between atoms: C_24  and  O_25 
REMARK   10  A    between atoms: O_25  and  C_26 
ROOT
HETATM    1  C   UNL     1      26.477  44.634  52.468  1.00  0.00     0.139 A 
HETATM    2  N   UNL     1      25.662  45.318  51.624  1.00  0.00    -0.214 NA
HETATM    3  C   UNL     1      25.435  46.625  51.831  1.00  0.00     0.155 A 
HETATM    4  N   UNL     1      25.899  47.359  52.849  1.00  0.00    -0.224 NA
HETATM    5  C   UNL     1      26.693  46.664  53.677  1.00  0.00     0.115 A 
HETATM    6  C   UNL     1      27.060  45.334  53.557  1.00  0.00     0.053 A 
HETATM    7  S   UNL     1      27.354  47.430  55.031  1.00  0.00    -0.063 SA
HETATM    8  C   UNL     1      28.195  46.022  55.519  1.00  0.00     0.089 A 
HETATM    9  C   UNL     1      28.004  44.975  54.615  1.00  0.00    -0.022 A 
HETATM   10  C   UNL     1      28.691  43.644  54.725  1.00  0.00     0.051 C 
ENDROOT
BRANCH   1  11
HETATM   11  N   UNL     1      26.718  43.286  52.227  1.00  0.00    -0.372 N 
HETATM   12  H   UNL     1      25.910  42.708  52.437  1.00  0.00     0.161 HD
BRANCH  11  13
HETATM   13  C   UNL     1      27.427  42.878  51.022  1.00  0.00     0.145 C 
BRANCH  13  14
HETATM   14  C   UNL     1      28.192  41.532  51.155  1.00  0.00     0.092 C 
HETATM   15  C   UNL     1      28.255  41.073  52.623  1.00  0.00     0.033 C 
BRANCH  14  16
HETATM   16  N   UNL     1      27.722  40.433  50.275  1.00  0.00    -0.404 N 
HETATM   17  C   UNL     1      28.297  40.404  48.927  1.00  0.00     0.145 C 
HETATM   18  C   UNL     1      27.453  41.054  47.808  1.00  0.00     0.254 C 
HETATM   19  N   UNL     1      26.022  40.551  47.839  1.00  0.00    -0.068 N 
HETATM   20  H   UNL     1      26.050  39.538  47.657  1.00  0.00     0.280 HD
HETATM   21  C   UNL     1      25.413  40.721  49.227  1.00  0.00     0.254 C 
HETATM   22  C   UNL     1      26.302  40.064  50.300  1.00  0.00     0.145 C 
BRANCH  19  23
HETATM   23  C   UNL     1      25.130  41.180  46.789  1.00  0.00     0.230 C 
HETATM   24  C   UNL     1      24.697  40.166  45.748  1.00  0.00     0.034 C 
ENDBRANCH  19  23
ENDBRANCH  14  16
ENDBRANCH  13  14
ENDBRANCH  11  13
ENDBRANCH   1  11
BRANCH   3  25
HETATM   25  C   UNL     1      24.602  47.388  50.814  1.00  0.00     0.314 C 
BRANCH  25  26
HETATM   26  N   UNL     1      25.398  47.845  49.591  1.00  0.00    -0.072 N 
HETATM   27  H   UNL     1      25.371  47.030  48.953  1.00  0.00     0.279 HD
HETATM   28  C   UNL     1      24.727  48.969  48.854  1.00  0.00     0.269 C 
HETATM   29  C   UNL     1      26.829  48.140  49.903  1.00  0.00     0.269 C 
ENDBRANCH  25  26
ENDBRANCH   3  25
BRANCH   8  30
HETATM   30  C   UNL     1      28.978  46.014  56.755  1.00  0.00     0.300 C 
HETATM   31  O   UNL     1      28.532  46.297  57.860  1.00  0.00    -0.259 OA
BRANCH  30  32
HETATM   32  O   UNL     1      30.267  45.634  56.524  1.00  0.00    -0.317 OA
BRANCH  32  33
HETATM   33  C   UNL     1      30.908  44.894  57.573  1.00  0.00     0.174 C 
HETATM   34  C   UNL     1      31.552  43.643  57.006  1.00  0.00     0.034 C 
ENDBRANCH  32  33
ENDBRANCH  30  32
ENDBRANCH   8  30
TORSDOF 10
ENDMDL
MODEL 5
REMARK VINA RESULT:      -7.5      3.332      8.612
REMARK  10 active torsions:
REMARK  status: ('A' for Active; 'I' for Inactive)
REMARK    1  A    between atoms: C_2  and  N_3 
REMARK    2  A    between atoms: N_7  and  C_8 
REMARK    3  A    between atoms: C_8  and  C_9 
REMARK    4  A    between atoms: C_9  and  N_10 
REMARK    5  A    between atoms: N_10  and  C_11 
REMARK    6  A    between atoms: C_13  and  C_14 
REMARK    7  A    between atoms: C_14  and  N_15 
REMARK    8  A    between atoms: C_23  and  C_24 
REMARK    9  A    between atoms: C_24  and  O_25 
REMARK   10  A    between atoms: O_25  and  C_26 
ROOT
HETATM    1  C   UNL     1      25.416  46.822  50.962  1.00  0.00     0.139 A 
HETATM    2  N   UNL     1      24.559  47.818  50.619  1.00  0.00    -0.214 NA
HETATM    3  C   UNL     1      23.638  47.605  49.665  1.00  0.00     0.155 A 
HETATM    4  N   UNL     1      23.490  46.490  48.940  1.00  0.00    -0.224 NA
HETATM    5  C   UNL     1      24.352  45.522  49.286  1.00  0.00     0.115 A 
HETATM    6  C   UNL     1      25.311  45.579  50.284  1.00  0.00     0.053 A 
HETATM    7  S   UNL     1      24.320  44.047  48.461  1.00  0.00    -0.063 SA
HETATM    8  C   UNL     1      25.577  43.390  49.417  1.00  0.00     0.089 A 
HETATM    9  C   UNL     1      25.991  44.289  50.402  1.00  0.00    -0.022 A 
HETATM   10  C   UNL     1      27.013  43.961  51.453  1.00  0.00     0.051 C 
ENDROOT
BRANCH   1  11
HETATM   11  N   UNL     1      26.349  47.053  51.966  1.00  0.00    -0.372 N 
HETATM   12  H   UNL     1      26.900  47.888  51.795  1.00  0.00     0.161 HD
BRANCH  11  13
HETATM   13  C   UNL     1      25.973  46.882  53.362  1.00  0.00     0.145 C 
BRANCH  13  14
HETATM   14  C   UNL     1      27.137  47.090  54.370  1.00  0.00     0.092 C 
HETATM   15  C   UNL     1      27.008  48.443  55.093  1.00  0.00     0.033 C 
BRANCH  14  16
HETATM   16  N   UNL     1      27.356  45.989  55.340  1.00  0.00    -0.404 N 
HETATM   17  C   UNL     1      28.199  46.313  56.495  1.00  0.00     0.145 C 
HETATM   18  C   UNL     1      29.688  45.911  56.389  1.00  0.00     0.254 C 
HETATM   19  N   UNL     1      29.835  44.466  55.951  1.00  0.00    -0.068 N 
HETATM   20  H   UNL     1      29.407  43.880  56.681  1.00  0.00     0.280 HD
HETATM   21  C   UNL     1      29.050  44.201  54.672  1.00  0.00     0.254 C 
HETATM   22  C   UNL     1      27.579  44.630  54.831  1.00  0.00     0.145 C 
BRANCH  19  23
HETATM   23  C   UNL     1      31.274  44.020  55.791  1.00  0.00     0.230 C 
HETATM   24  C   UNL     1      31.803  43.387  57.063  1.00  0.00     0.034 C 
ENDBRANCH  19  23
ENDBRANCH  14  16
ENDBRANCH  13  14
ENDBRANCH  11  13
ENDBRANCH   1  11
BRANCH   3  25
HETATM   25  C   UNL     1      22.627  48.701  49.373  1.00  0.00     0.314 C 
BRANCH  25  26
HETATM   26  N   UNL     1      22.864  49.414  48.042  1.00  0.00    -0.072 N 
HETATM   27  H   UNL     1      22.865  48.651  47.343  1.00  0.00     0.279 HD
HETATM   28  C   UNL     1      21.728  50.321  47.663  1.00  0.00     0.269 C 
HETATM   29  C   UNL     1      24.190  50.101  47.976  1.00  0.00     0.269 C 
ENDBRANCH  25  26
ENDBRANCH   3  25
BRANCH   8  30
HETATM   30  C   UNL     1      26.095  42.049  49.145  1.00  0.00     0.300 C 
HETATM   31  O   UNL     1      25.514  41.010  49.432  1.00  0.00    -0.259 OA
BRANCH  30  32
HETATM   32  O   UNL     1      27.304  42.102  48.516  1.00  0.00    -0.317 OA
BRANCH  32  33
HETATM   33  C   UNL     1      27.843  40.848  48.071  1.00  0.00     0.174 C 
HETATM   34  C   UNL     1      28.053  40.879  46.569  1.00  0.00     0.034 C 
ENDBRANCH  32  33
ENDBRANCH  30  32
ENDBRANCH   8  30
TORSDOF 10
ENDMDL
MODEL 6
REMARK VINA RESULT:      -7.2      4.073      7.336
REMARK  10 active torsions:
REMARK  status: ('A' for Active; 'I' for Inactive)
REMARK    1  A    between atoms: C_2  and  N_3 
REMARK    2  A    between atoms: N_7  and  C_8 
REMARK    3  A    between atoms: C_8  and  C_9 
REMARK    4  A    between atoms: C_9  and  N_10 
REMARK    5  A    between atoms: N_10  and  C_11 
REMARK    6  A    between atoms: C_13  and  C_14 
REMARK    7  A    between atoms: C_14  and  N_15 
REMARK    8  A    between atoms: C_23  and  C_24 
REMARK    9  A    between atoms: C_24  and  O_25 
REMARK   10  A    between atoms: O_25  and  C_26 
ROOT
HETATM    1  C   UNL     1      27.452  42.172  51.375  1.00  0.00     0.139 A 
HETATM    2  N   UNL     1      26.226  42.091  50.796  1.00  0.00    -0.214 NA
HETATM    3  C   UNL     1      25.243  42.911  51.202  1.00  0.00     0.155 A 
HETATM    4  N   UNL     1      25.316  43.808  52.192  1.00  0.00    -0.224 NA
HETATM    5  C   UNL     1      26.531  43.866  52.758  1.00  0.00     0.115 A 
HETATM    6  C   UNL     1      27.649  43.127  52.407  1.00  0.00     0.053 A 
HETATM    7  S   UNL     1      26.801  44.933  54.040  1.00  0.00    -0.063 SA
HETATM    8  C   UNL     1      28.445  44.483  54.179  1.00  0.00     0.089 A 
HETATM    9  C   UNL     1      28.800  43.543  53.208  1.00  0.00    -0.022 A 
HETATM   10  C   UNL     1      30.198  43.029  53.018  1.00  0.00     0.051 C 
ENDROOT
BRANCH   1  11
HETATM   11  N   UNL     1      28.464  41.330  50.928  1.00  0.00    -0.372 N 
HETATM   12  H   UNL     1      29.384  41.746  51.032  1.00  0.00     0.161 HD
BRANCH  11  13
HETATM   13  C   UNL     1      28.429  39.911  51.257  1.00  0.00     0.145 C 
BRANCH  13  14
HETATM   14  C   UNL     1      28.968  38.981  50.137  1.00  0.00     0.092 C 
HETATM   15  C   UNL     1      29.984  37.969  50.698  1.00  0.00     0.033 C 
BRANCH  14  16
HETATM   16  N   UNL     1      27.939  38.297  49.314  1.00  0.00    -0.404 N 
HETATM   17  C   UNL     1      28.420  37.679  48.075  1.00  0.00     0.145 C 
HETATM   18  C   UNL     1      28.251  38.512  46.784  1.00  0.00     0.254 C 
HETATM   19  N   UNL     1      26.836  39.044  46.656  1.00  0.00    -0.068 N 
HETATM   20  H   UNL     1      26.209  38.230  46.584  1.00  0.00     0.280 HD
HETATM   21  C   UNL     1      26.419  39.796  47.915  1.00  0.00     0.254 C 
HETATM   22  C   UNL     1      26.619  38.922  49.168  1.00  0.00     0.145 C 
BRANCH  19  23
HETATM   23  C   UNL     1      26.614  39.903  45.429  1.00  0.00     0.230 C 
HETATM   24  C   UNL     1      25.261  40.586  45.467  1.00  0.00     0.034 C 
ENDBRANCH  19  23
ENDBRANCH  14  16
ENDBRANCH  13  14
ENDBRANCH  11  13
ENDBRANCH   1  11
BRANCH   3  25
HETATM   25  C   UNL     1      23.913  42.869  50.468  1.00  0.00     0.314 C 
BRANCH  25  26
HETATM   26  N   UNL     1      24.051  42.644  48.962  1.00  0.00    -0.072 N 
HETATM   27  H   UNL     1      25.018  42.291  48.847  1.00  0.00     0.279 HD
HETATM   28  C   UNL     1      23.150  41.553  48.458  1.00  0.00     0.269 C 
HETATM   29  C   UNL     1      23.922  43.905  48.170  1.00  0.00     0.269 C 
ENDBRANCH  25  26
ENDBRANCH   3  25
BRANCH   8  30
HETATM   30  C   UNL     1      29.288  45.057  55.228  1.00  0.00     0.300 C 
HETATM   31  O   UNL     1      29.475  46.256  55.389  1.00  0.00    -0.259 OA
BRANCH  30  32
HETATM   32  O   UNL     1      29.827  44.084  56.018  1.00  0.00    -0.317 OA
BRANCH  32  33
HETATM   33  C   UNL     1      30.967  44.465  56.804  1.00  0.00     0.174 C 
HETATM   34  C   UNL     1      31.832  43.251  57.082  1.00  0.00     0.034 C 
ENDBRANCH  32  33
ENDBRANCH  30  32
ENDBRANCH   8  30
TORSDOF 10
ENDMDL
MODEL 7
REMARK VINA RESULT:      -7.2      2.810      4.302
REMARK  10 active torsions:
REMARK  status: ('A' for Active; 'I' for Inactive)
REMARK    1  A    between atoms: C_2  and  N_3 
REMARK    2  A    between atoms: N_7  and  C_8 
REMARK    3  A    between atoms: C_8  and  C_9 
REMARK    4  A    between atoms: C_9  and  N_10 
REMARK    5  A    between atoms: N_10  and  C_11 
REMARK    6  A    between atoms: C_13  and  C_14 
REMARK    7  A    between atoms: C_14  and  N_15 
REMARK    8  A    between atoms: C_23  and  C_24 
REMARK    9  A    between atoms: C_24  and  O_25 
REMARK   10  A    between atoms: O_25  and  C_26 
ROOT
HETATM    1  C   UNL     1      23.993  46.279  49.958  1.00  0.00     0.139 A 
HETATM    2  N   UNL     1      23.337  45.818  48.862  1.00  0.00    -0.214 NA
HETATM    3  C   UNL     1      23.369  44.508  48.568  1.00  0.00     0.155 A 
HETATM    4  N   UNL     1      24.046  43.563  49.232  1.00  0.00    -0.224 NA
HETATM    5  C   UNL     1      24.695  44.040  50.305  1.00  0.00     0.115 A 
HETATM    6  C   UNL     1      24.705  45.348  50.759  1.00  0.00     0.053 A 
HETATM    7  S   UNL     1      25.618  42.987  51.252  1.00  0.00    -0.063 SA
HETATM    8  C   UNL     1      26.062  44.226  52.344  1.00  0.00     0.089 A 
HETATM    9  C   UNL     1      25.463  45.442  52.007  1.00  0.00    -0.022 A 
HETATM   10  C   UNL     1      25.589  46.690  52.833  1.00  0.00     0.051 C 
ENDROOT
BRANCH   1  11
HETATM   11  N   UNL     1      23.933  47.636  50.258  1.00  0.00    -0.372 N 
HETATM   12  H   UNL     1      24.544  47.886  51.029  1.00  0.00     0.161 HD
BRANCH  11  13
HETATM   13  C   UNL     1      23.922  48.619  49.184  1.00  0.00     0.145 C 
BRANCH  13  14
HETATM   14  C   UNL     1      22.753  49.639  49.262  1.00  0.00     0.092 C 
HETATM   15  C   UNL     1      23.219  51.048  48.855  1.00  0.00     0.033 C 
BRANCH  14  16
HETATM   16  N   UNL     1      21.516  49.259  48.534  1.00  0.00    -0.404 N 
HETATM   17  C   UNL     1      20.926  50.303  47.690  1.00  0.00     0.145 C 
HETATM   18  C   UNL     1      19.770  51.116  48.315  1.00  0.00     0.254 C 
HETATM   19  N   UNL     1      18.723  50.202  48.924  1.00  0.00    -0.068 N 
HETATM   20  H   UNL     1      18.328  49.638  48.158  1.00  0.00     0.280 HD
HETATM   21  C   UNL     1      19.359  49.216  49.898  1.00  0.00     0.254 C 
HETATM   22  C   UNL     1      20.510  48.444  49.225  1.00  0.00     0.145 C 
BRANCH  19  23
HETATM   23  C   UNL     1      17.580  50.940  49.589  1.00  0.00     0.230 C 
HETATM   24  C   UNL     1      17.869  52.425  49.702  1.00  0.00     0.034 C 
ENDBRANCH  19  23
ENDBRANCH  14  16
ENDBRANCH  13  14
ENDBRANCH  11  13
ENDBRANCH   1  11
BRANCH   3  25
HETATM   25  C   UNL     1      22.544  44.006  47.396  1.00  0.00     0.314 C 
BRANCH  25  26
HETATM   26  N   UNL     1      21.742  45.104  46.696  1.00  0.00    -0.072 N 
HETATM   27  H   UNL     1      22.144  45.984  47.066  1.00  0.00     0.279 HD
HETATM   28  C   UNL     1      21.977  45.132  45.213  1.00  0.00     0.269 C 
HETATM   29  C   UNL     1      20.289  45.077  47.045  1.00  0.00     0.269 C 
ENDBRANCH  25  26
ENDBRANCH   3  25
BRANCH   8  30
HETATM   30  C   UNL     1      26.975  43.948  53.453  1.00  0.00     0.300 C 
HETATM   31  O   UNL     1      26.636  43.458  54.523  1.00  0.00    -0.259 OA
BRANCH  30  32
HETATM   32  O   UNL     1      28.257  44.291  53.138  1.00  0.00    -0.317 OA
BRANCH  32  33
HETATM   33  C   UNL     1      29.023  43.301  52.436  1.00  0.00     0.174 C 
HETATM   34  C   UNL     1      30.187  42.842  53.294  1.00  0.00     0.034 C 
ENDBRANCH  32  33
ENDBRANCH  30  32
ENDBRANCH   8  30
TORSDOF 10
ENDMDL
MODEL 8
REMARK VINA RESULT:      -7.1      3.006      5.294
REMARK  10 active torsions:
REMARK  status: ('A' for Active; 'I' for Inactive)
REMARK    1  A    between atoms: C_2  and  N_3 
REMARK    2  A    between atoms: N_7  and  C_8 
REMARK    3  A    between atoms: C_8  and  C_9 
REMARK    4  A    between atoms: C_9  and  N_10 
REMARK    5  A    between atoms: N_10  and  C_11 
REMARK    6  A    between atoms: C_13  and  C_14 
REMARK    7  A    between atoms: C_14  and  N_15 
REMARK    8  A    between atoms: C_23  and  C_24 
REMARK    9  A    between atoms: C_24  and  O_25 
REMARK   10  A    between atoms: O_25  and  C_26 
ROOT
HETATM    1  C   UNL     1      25.045  45.361  49.612  1.00  0.00     0.139 A 
HETATM    2  N   UNL     1      24.375  46.479  49.233  1.00  0.00    -0.214 NA
HETATM    3  C   UNL     1      24.322  47.536  50.060  1.00  0.00     0.155 A 
HETATM    4  N   UNL     1      24.834  47.603  51.295  1.00  0.00    -0.224 NA
HETATM    5  C   UNL     1      25.483  46.485  51.654  1.00  0.00     0.115 A 
HETATM    6  C   UNL     1      25.667  45.346  50.888  1.00  0.00     0.053 A 
HETATM    7  S   UNL     1      26.179  46.387  53.192  1.00  0.00    -0.063 SA
HETATM    8  C   UNL     1      26.791  44.816  52.905  1.00  0.00     0.089 A 
HETATM    9  C   UNL     1      26.500  44.384  51.609  1.00  0.00    -0.022 A 
HETATM   10  C   UNL     1      26.989  43.085  51.034  1.00  0.00     0.051 C 
ENDROOT
BRANCH   1  11
HETATM   11  N   UNL     1      25.108  44.283  48.735  1.00  0.00    -0.372 N 
HETATM   12  H   UNL     1      25.956  43.739  48.854  1.00  0.00     0.161 HD
BRANCH  11  13
HETATM   13  C   UNL     1      23.924  43.469  48.498  1.00  0.00     0.145 C 
BRANCH  13  14
HETATM   14  C   UNL     1      23.095  43.890  47.254  1.00  0.00     0.092 C 
HETATM   15  C   UNL     1      23.346  42.935  46.072  1.00  0.00     0.033 C 
BRANCH  14  16
HETATM   16  N   UNL     1      21.641  44.081  47.481  1.00  0.00    -0.404 N 
HETATM   17  C   UNL     1      20.825  44.267  46.277  1.00  0.00     0.145 C 
HETATM   18  C   UNL     1      20.499  45.727  45.890  1.00  0.00     0.254 C 
HETATM   19  N   UNL     1      19.963  46.502  47.079  1.00  0.00    -0.068 N 
HETATM   20  H   UNL     1      19.082  46.053  47.365  1.00  0.00     0.280 HD
HETATM   21  C   UNL     1      20.906  46.394  48.272  1.00  0.00     0.254 C 
HETATM   22  C   UNL     1      21.204  44.919  48.604  1.00  0.00     0.145 C 
BRANCH  19  23
HETATM   23  C   UNL     1      19.659  47.955  46.775  1.00  0.00     0.230 C 
HETATM   24  C   UNL     1      18.719  48.089  45.593  1.00  0.00     0.034 C 
ENDBRANCH  19  23
ENDBRANCH  14  16
ENDBRANCH  13  14
ENDBRANCH  11  13
ENDBRANCH   1  11
BRANCH   3  25
HETATM   25  C   UNL     1      23.654  48.810  49.571  1.00  0.00     0.314 C 
BRANCH  25  26
HETATM   26  N   UNL     1      24.257  49.359  48.277  1.00  0.00    -0.072 N 
HETATM   27  H   UNL     1      24.212  48.561  47.619  1.00  0.00     0.279 HD
HETATM   28  C   UNL     1      23.419  50.446  47.667  1.00  0.00     0.269 C 
HETATM   29  C   UNL     1      25.690  49.756  48.425  1.00  0.00     0.269 C 
ENDBRANCH  25  26
ENDBRANCH   3  25
BRANCH   8  30
HETATM   30  C   UNL     1      27.504  44.091  53.957  1.00  0.00     0.300 C 
HETATM   31  O   UNL     1      27.008  43.216  54.655  1.00  0.00    -0.259 OA
BRANCH  30  32
HETATM   32  O   UNL     1      28.801  44.504  54.052  1.00  0.00    -0.317 OA
BRANCH  32  33
HETATM   33  C   UNL     1      29.767  43.490  54.371  1.00  0.00     0.174 C 
HETATM   34  C   UNL     1      30.191  42.764  53.108  1.00  0.00     0.034 C 
ENDBRANCH  32  33
ENDBRANCH  30  32
ENDBRANCH   8  30
TORSDOF 10
ENDMDL
MODEL 9
REMARK VINA RESULT:      -7.0      3.353      7.477
REMARK  10 active torsions:
REMARK  status: ('A' for Active; 'I' for Inactive)
REMARK    1  A    between atoms: C_2  and  N_3 
REMARK    2  A    between atoms: N_7  and  C_8 
REMARK    3  A    between atoms: C_8  and  C_9 
REMARK    4  A    between atoms: C_9  and  N_10 
REMARK    5  A    between atoms: N_10  and  C_11 
REMARK    6  A    between atoms: C_13  and  C_14 
REMARK    7  A    between atoms: C_14  and  N_15 
REMARK    8  A    between atoms: C_23  and  C_24 
REMARK    9  A    between atoms: C_24  and  O_25 
REMARK   10  A    between atoms: O_25  and  C_26 
ROOT
HETATM    1  C   UNL     1      26.705  43.162  52.409  1.00  0.00     0.139 A 
HETATM    2  N   UNL     1      25.735  43.552  51.542  1.00  0.00    -0.214 NA
HETATM    3  C   UNL     1      25.271  44.811  51.586  1.00  0.00     0.155 A 
HETATM    4  N   UNL     1      25.632  45.760  52.457  1.00  0.00    -0.224 NA
HETATM    5  C   UNL     1      26.584  45.353  53.311  1.00  0.00     0.115 A 
HETATM    6  C   UNL     1      27.194  44.110  53.346  1.00  0.00     0.053 A 
HETATM    7  S   UNL     1      27.149  46.419  54.495  1.00  0.00    -0.063 SA
HETATM    8  C   UNL     1      28.267  45.277  55.106  1.00  0.00     0.089 A 
HETATM    9  C   UNL     1      28.238  44.091  54.370  1.00  0.00    -0.022 A 
HETATM   10  C   UNL     1      29.173  42.939  54.609  1.00  0.00     0.051 C 
ENDROOT
BRANCH   1  11
HETATM   11  N   UNL     1      27.189  41.860  52.336  1.00  0.00    -0.372 N 
HETATM   12  H   UNL     1      26.449  41.170  52.416  1.00  0.00     0.161 HD
BRANCH  11  13
HETATM   13  C   UNL     1      28.201  41.514  51.348  1.00  0.00     0.145 C 
BRANCH  13  14
HETATM   14  C   UNL     1      27.830  40.302  50.449  1.00  0.00     0.092 C 
HETATM   15  C   UNL     1      26.341  40.338  50.059  1.00  0.00     0.033 C 
BRANCH  14  16
HETATM   16  N   UNL     1      28.687  40.098  49.255  1.00  0.00    -0.404 N 
HETATM   17  C   UNL     1      28.201  40.700  48.010  1.00  0.00     0.145 C 
HETATM   18  C   UNL     1      27.424  39.766  47.055  1.00  0.00     0.254 C 
HETATM   19  N   UNL     1      28.183  38.474  46.817  1.00  0.00    -0.068 N 
HETATM   20  H   UNL     1      29.070  38.720  46.356  1.00  0.00     0.280 HD
HETATM   21  C   UNL     1      28.556  37.808  48.137  1.00  0.00     0.254 C 
HETATM   22  C   UNL     1      29.316  38.788  49.050  1.00  0.00     0.145 C 
BRANCH  19  23
HETATM   23  C   UNL     1      27.456  37.495  45.917  1.00  0.00     0.230 C 
HETATM   24  C   UNL     1      28.043  37.485  44.519  1.00  0.00     0.034 C 
ENDBRANCH  19  23
ENDBRANCH  14  16
ENDBRANCH  13  14
ENDBRANCH  11  13
ENDBRANCH   1  11
BRANCH   3  25
HETATM   25  C   UNL     1      24.260  45.250  50.540  1.00  0.00     0.314 C 
BRANCH  25  26
HETATM   26  N   UNL     1      23.692  44.094  49.715  1.00  0.00    -0.072 N 
HETATM   27  H   UNL     1      23.956  43.248  50.251  1.00  0.00     0.279 HD
HETATM   28  C   UNL     1      22.191  44.103  49.668  1.00  0.00     0.269 C 
HETATM   29  C   UNL     1      24.306  43.990  48.356  1.00  0.00     0.269 C 
ENDBRANCH  25  26
ENDBRANCH   3  25
BRANCH   8  30
HETATM   30  C   UNL     1      29.094  45.596  56.270  1.00  0.00     0.300 C 
HETATM   31  O   UNL     1      28.690  46.177  57.270  1.00  0.00    -0.259 OA
BRANCH  30  32
HETATM   32  O   UNL     1      30.372  45.148  56.108  1.00  0.00    -0.317 OA
BRANCH  32  33
HETATM   33  C   UNL     1      31.052  44.725  57.300  1.00  0.00     0.174 C 
HETATM   34  C   UNL     1      31.705  43.375  57.072  1.00  0.00     0.034 C 
ENDBRANCH  32  33
ENDBRANCH  30  32
ENDBRANCH   8  30
TORSDOF 10
ENDMDL
MODEL 10
REMARK VINA RESULT:      -7.0      2.182      7.789
REMARK  10 active torsions:
REMARK  status: ('A' for Active; 'I' for Inactive)
REMARK    1  A    between atoms: C_2  and  N_3 
REMARK    2  A    between atoms: N_7  and  C_8 
REMARK    3  A    between atoms: C_8  and  C_9 
REMARK    4  A    between atoms: C_9  and  N_10 
REMARK    5  A    between atoms: N_10  and  C_11 
REMARK    6  A    between atoms: C_13  and  C_14 
REMARK    7  A    between atoms: C_14  and  N_15 
REMARK    8  A    between atoms: C_23  and  C_24 
REMARK    9  A    between atoms: C_24  and  O_25 
REMARK   10  A    between atoms: O_25  and  C_26 
ROOT
HETATM    1  C   UNL     1      24.374  44.790  50.258  1.00  0.00     0.139 A 
HETATM    2  N   UNL     1      23.730  45.715  49.500  1.00  0.00    -0.214 NA
HETATM    3  C   UNL     1      23.908  47.022  49.750  1.00  0.00     0.155 A 
HETATM    4  N   UNL     1      24.642  47.548  50.737  1.00  0.00    -0.224 NA
HETATM    5  C   UNL     1      25.263  46.619  51.481  1.00  0.00     0.115 A 
HETATM    6  C   UNL     1      25.218  45.245  51.305  1.00  0.00     0.053 A 
HETATM    7  S   UNL     1      26.220  47.104  52.786  1.00  0.00    -0.063 SA
HETATM    8  C   UNL     1      26.652  45.495  53.174  1.00  0.00     0.089 A 
HETATM    9  C   UNL     1      26.096  44.586  52.271  1.00  0.00    -0.022 A 
HETATM   10  C   UNL     1      26.373  43.110  52.297  1.00  0.00     0.051 C 
ENDROOT
BRANCH   1  11
HETATM   11  N   UNL     1      24.194  43.441  49.972  1.00  0.00    -0.372 N 
HETATM   12  H   UNL     1      23.389  43.051  50.452  1.00  0.00     0.161 HD
BRANCH  11  13
HETATM   13  C   UNL     1      24.345  42.960  48.606  1.00  0.00     0.145 C 
BRANCH  13  14
HETATM   14  C   UNL     1      24.625  41.436  48.491  1.00  0.00     0.092 C 
HETATM   15  C   UNL     1      23.511  40.727  47.700  1.00  0.00     0.033 C 
BRANCH  14  16
HETATM   16  N   UNL     1      25.964  41.063  47.972  1.00  0.00    -0.404 N 
HETATM   17  C   UNL     1      26.176  39.634  47.723  1.00  0.00     0.145 C 
HETATM   18  C   UNL     1      26.887  38.841  48.843  1.00  0.00     0.254 C 
HETATM   19  N   UNL     1      28.153  39.546  49.294  1.00  0.00    -0.068 N 
HETATM   20  H   UNL     1      28.789  39.578  48.485  1.00  0.00     0.280 HD
HETATM   21  C   UNL     1      27.866  40.995  49.672  1.00  0.00     0.254 C 
HETATM   22  C   UNL     1      27.149  41.730  48.525  1.00  0.00     0.145 C 
BRANCH  19  23
HETATM   23  C   UNL     1      28.878  38.838  50.420  1.00  0.00     0.230 C 
HETATM   24  C   UNL     1      29.892  37.844  49.888  1.00  0.00     0.034 C 
ENDBRANCH  19  23
ENDBRANCH  14  16
ENDBRANCH  13  14
ENDBRANCH  11  13
ENDBRANCH   1  11
BRANCH   3  25
HETATM   25  C   UNL     1      23.256  48.034  48.823  1.00  0.00     0.314 C 
BRANCH  25  26
HETATM   26  N   UNL     1      23.614  49.484  49.153  1.00  0.00    -0.072 N 
HETATM   27  H   UNL     1      24.236  49.410  49.977  1.00  0.00     0.279 HD
HETATM   28  C   UNL     1      24.432  50.135  48.074  1.00  0.00     0.269 C 
HETATM   29  C   UNL     1      22.426  50.304  49.542  1.00  0.00     0.269 C 
ENDBRANCH  25  26
ENDBRANCH   3  25
BRANCH   8  30
HETATM   30  C   UNL     1      27.492  45.209  54.338  1.00  0.00     0.300 C 
HETATM   31  O   UNL     1      27.098  45.225  55.497  1.00  0.00    -0.259 OA
BRANCH  30  32
HETATM   32  O   UNL     1      28.768  44.906  53.966  1.00  0.00    -0.317 OA
BRANCH  32  33
HETATM   33  C   UNL     1      29.357  43.758  54.597  1.00  0.00     0.174 C 
HETATM   34  C   UNL     1      30.166  42.969  53.584  1.00  0.00     0.034 C 
ENDBRANCH  32  33
ENDBRANCH  30  32
ENDBRANCH   8  30
TORSDOF 10
ENDMDL
