MODEL 1
REMARK VINA RESULT:      -9.3      0.000      0.000
REMARK  6 active torsions:
REMARK  status: ('A' for Active; 'I' for Inactive)
REMARK    1  A    between atoms: C_4  and  O_5 
REMARK    2  A    between atoms: O_5  and  C_6 
REMARK    3  A    between atoms: C_6  and  C_7 
REMARK       I    between atoms: C_7  and  N_8 
REMARK    4  A    between atoms: N_8  and  C_9 
REMARK    5  A    between atoms: C_9  and  C_10 
REMARK       I    between atoms: C_10  and  N_11 
REMARK    6  A    between atoms: N_11  and  N_12 
ROOT
HETATM    1  C   UNL     1      25.282  43.882  51.685  1.00  0.00     0.255 C 
HETATM    2  N   UNL     1      26.558  43.518  51.299  1.00  0.00    -0.245 N 
HETATM    3  O   UNL     1      24.251  43.304  51.334  1.00  0.00    -0.270 OA
HETATM    4  H   UNL     1      27.350  44.086  51.605  1.00  0.00     0.192 HD
ENDROOT
BRANCH   1   5
HETATM    5  C   UNL     1      25.221  45.028  52.702  1.00  0.00     0.227 C 
BRANCH   5   6
HETATM    6  N   UNL     1      26.446  45.452  53.371  1.00  0.00    -0.350 N 
HETATM    7  C   UNL     1      26.499  46.716  53.938  1.00  0.00     0.242 C 
HETATM    8  O   UNL     1      25.757  47.629  53.589  1.00  0.00    -0.271 OA
HETATM    9  H   UNL     1      26.904  44.734  53.923  1.00  0.00     0.163 HD
BRANCH   7  10
HETATM   10  C   UNL     1      27.557  46.880  55.021  1.00  0.00     0.278 C 
BRANCH  10  11
HETATM   11  O   UNL     1      28.546  45.879  54.767  1.00  0.00    -0.342 OA
BRANCH  11  12
HETATM   12  C   UNL     1      29.283  45.586  55.882  1.00  0.00     0.069 A 
HETATM   13  C   UNL     1      30.299  44.631  55.875  1.00  0.00     0.043 A 
HETATM   14  C   UNL     1      31.001  44.342  57.053  1.00  0.00    -0.059 A 
HETATM   15  C   UNL     1      32.084  43.305  57.071  1.00  0.00     0.048 C 
HETATM   16  C   UNL     1      30.657  45.012  58.235  1.00  0.00     0.007 A 
HETATM   17  C   UNL     1      29.626  45.952  58.242  1.00  0.00     0.003 A 
HETATM   18  C   UNL     1      28.931  46.232  57.067  1.00  0.00     0.037 A 
ENDBRANCH  11  12
ENDBRANCH  10  11
ENDBRANCH   7  10
ENDBRANCH   5   6
ENDBRANCH   1   5
BRANCH   2  19
HETATM   19  N   UNL     1      26.727  42.608  50.295  1.00  0.00    -0.166 NA
HETATM   20  C   UNL     1      27.491  41.595  50.543  1.00  0.00     0.157 A 
HETATM   21  C   UNL     1      28.194  41.214  51.850  1.00  0.00     0.277 A 
HETATM   22  C   UNL     1      27.838  40.555  49.582  1.00  0.00     0.028 A 
HETATM   23  O   UNL     1      28.169  41.863  52.874  1.00  0.00    -0.266 OA
HETATM   24  N   UNL     1      28.831  40.019  51.587  1.00  0.00    -0.321 N 
HETATM   25  C   UNL     1      28.636  39.636  50.262  1.00  0.00     0.048 A 
HETATM   26  H   UNL     1      29.384  39.524  52.272  1.00  0.00     0.169 HD
HETATM   27  C   UNL     1      29.146  38.525  49.624  1.00  0.00     0.032 A 
HETATM   28  C   UNL     1      28.840  38.367  48.266  1.00  0.00     0.021 A 
HETATM   29  C   UNL     1      28.041  39.312  47.588  1.00  0.00     0.012 A 
HETATM   30 BR   UNL     1      27.679  39.065  45.748  1.00  0.00    -0.051 Br
HETATM   31  C   UNL     1      27.521  40.427  48.245  1.00  0.00     0.035 A 
ENDBRANCH   2  19
TORSDOF 6
ENDMDL
MODEL 2
REMARK VINA RESULT:      -9.2      4.694      7.036
REMARK  6 active torsions:
REMARK  status: ('A' for Active; 'I' for Inactive)
REMARK    1  A    between atoms: C_4  and  O_5 
REMARK    2  A    between atoms: O_5  and  C_6 
REMARK    3  A    between atoms: C_6  and  C_7 
REMARK       I    between atoms: C_7  and  N_8 
REMARK    4  A    between atoms: N_8  and  C_9 
REMARK    5  A    between atoms: C_9  and  C_10 
REMARK       I    between atoms: C_10  and  N_11 
REMARK    6  A    between atoms: N_11  and  N_12 
ROOT
HETATM    1  C   UNL     1      24.839  44.389  50.788  1.00  0.00     0.255 C 
HETATM    2  N   UNL     1      25.033  45.448  49.921  1.00  0.00    -0.245 N 
HETATM    3  O   UNL     1      23.741  44.015  51.205  1.00  0.00    -0.270 OA
HETATM    4  H   UNL     1      25.985  45.713  49.666  1.00  0.00     0.192 HD
ENDROOT
BRANCH   1   5
HETATM    5  C   UNL     1      26.109  43.604  51.136  1.00  0.00     0.227 C 
BRANCH   5   6
HETATM    6  N   UNL     1      27.197  44.282  51.834  1.00  0.00    -0.350 N 
HETATM    7  C   UNL     1      27.252  44.215  53.217  1.00  0.00     0.242 C 
HETATM    8  O   UNL     1      26.266  43.969  53.907  1.00  0.00    -0.271 OA
HETATM    9  H   UNL     1      28.103  44.217  51.382  1.00  0.00     0.163 HD
BRANCH   7  10
HETATM   10  C   UNL     1      28.629  44.480  53.810  1.00  0.00     0.278 C 
BRANCH  10  11
HETATM   11  O   UNL     1      28.448  45.496  54.799  1.00  0.00    -0.342 OA
BRANCH  11  12
HETATM   12  C   UNL     1      29.286  45.330  55.869  1.00  0.00     0.069 A 
HETATM   13  C   UNL     1      30.259  44.331  55.905  1.00  0.00     0.043 A 
HETATM   14  C   UNL     1      31.069  44.179  57.038  1.00  0.00    -0.059 A 
HETATM   15  C   UNL     1      32.108  43.099  57.105  1.00  0.00     0.048 C 
HETATM   16  C   UNL     1      30.877  45.031  58.135  1.00  0.00     0.007 A 
HETATM   17  C   UNL     1      29.889  46.017  58.101  1.00  0.00     0.003 A 
HETATM   18  C   UNL     1      29.086  46.159  56.971  1.00  0.00     0.037 A 
ENDBRANCH  11  12
ENDBRANCH  10  11
ENDBRANCH   7  10
ENDBRANCH   5   6
ENDBRANCH   1   5
BRANCH   2  19
HETATM   19  N   UNL     1      23.999  46.301  49.655  1.00  0.00    -0.166 NA
HETATM   20  C   UNL     1      24.307  47.520  49.356  1.00  0.00     0.157 A 
HETATM   21  C   UNL     1      25.693  48.149  49.178  1.00  0.00     0.277 A 
HETATM   22  C   UNL     1      23.347  48.587  49.100  1.00  0.00     0.028 A 
HETATM   23  O   UNL     1      26.749  47.577  49.344  1.00  0.00    -0.266 OA
HETATM   24  N   UNL     1      25.456  49.457  48.806  1.00  0.00    -0.321 N 
HETATM   25  C   UNL     1      24.088  49.720  48.771  1.00  0.00     0.048 A 
HETATM   26  H   UNL     1      26.192  50.122  48.621  1.00  0.00     0.169 HD
HETATM   27  C   UNL     1      23.470  50.917  48.480  1.00  0.00     0.032 A 
HETATM   28  C   UNL     1      22.070  50.950  48.543  1.00  0.00     0.021 A 
HETATM   29  C   UNL     1      21.334  49.798  48.890  1.00  0.00     0.012 A 
HETATM   30 BR   UNL     1      19.446  49.901  48.986  1.00  0.00    -0.051 Br
HETATM   31  C   UNL     1      21.968  48.588  49.171  1.00  0.00     0.035 A 
ENDBRANCH   2  19
TORSDOF 6
ENDMDL
MODEL 3
REMARK VINA RESULT:      -9.1      5.220      8.807
REMARK  6 active torsions:
REMARK  status: ('A' for Active; 'I' for Inactive)
REMARK    1  A    between atoms: C_4  and  O_5 
REMARK    2  A    between atoms: O_5  and  C_6 
REMARK    3  A    between atoms: C_6  and  C_7 
REMARK       I    between atoms: C_7  and  N_8 
REMARK    4  A    between atoms: N_8  and  C_9 
REMARK    5  A    between atoms: C_9  and  C_10 
REMARK       I    between atoms: C_10  and  N_11 
REMARK    6  A    between atoms: N_11  and  N_12 
ROOT
HETATM    1  C   UNL     1      24.944  44.777  52.003  1.00  0.00     0.255 C 
HETATM    2  N   UNL     1      26.207  45.322  51.865  1.00  0.00    -0.245 N 
HETATM    3  O   UNL     1      24.386  44.564  53.082  1.00  0.00    -0.270 OA
HETATM    4  H   UNL     1      26.605  45.420  50.930  1.00  0.00     0.192 HD
ENDROOT
BRANCH   1   5
HETATM    5  C   UNL     1      24.200  44.540  50.684  1.00  0.00     0.227 C 
BRANCH   5   6
HETATM    6  N   UNL     1      23.487  45.649  50.059  1.00  0.00    -0.350 N 
HETATM    7  C   UNL     1      22.965  45.480  48.786  1.00  0.00     0.242 C 
HETATM    8  O   UNL     1      23.384  44.628  48.007  1.00  0.00    -0.271 OA
HETATM    9  H   UNL     1      22.888  46.179  50.682  1.00  0.00     0.163 HD
BRANCH   7  10
HETATM   10  C   UNL     1      21.839  46.441  48.431  1.00  0.00     0.278 C 
BRANCH  10  11
HETATM   11  O   UNL     1      22.378  47.348  47.466  1.00  0.00    -0.342 OA
BRANCH  11  12
HETATM   12  C   UNL     1      22.412  48.635  47.931  1.00  0.00     0.069 A 
HETATM   13  C   UNL     1      21.271  49.434  47.996  1.00  0.00     0.043 A 
HETATM   14  C   UNL     1      21.364  50.758  48.446  1.00  0.00    -0.059 A 
HETATM   15  C   UNL     1      20.153  51.640  48.505  1.00  0.00     0.048 C 
HETATM   16  C   UNL     1      22.618  51.269  48.811  1.00  0.00     0.007 A 
HETATM   17  C   UNL     1      23.760  50.472  48.725  1.00  0.00     0.003 A 
HETATM   18  C   UNL     1      23.659  49.157  48.275  1.00  0.00     0.037 A 
ENDBRANCH  11  12
ENDBRANCH  10  11
ENDBRANCH   7  10
ENDBRANCH   5   6
ENDBRANCH   1   5
BRANCH   2  19
HETATM   19  N   UNL     1      27.014  45.444  52.960  1.00  0.00    -0.166 NA
HETATM   20  C   UNL     1      27.946  44.561  53.103  1.00  0.00     0.157 A 
HETATM   21  C   UNL     1      28.340  43.413  52.168  1.00  0.00     0.277 A 
HETATM   22  C   UNL     1      28.865  44.489  54.233  1.00  0.00     0.028 A 
HETATM   23  O   UNL     1      27.777  43.129  51.132  1.00  0.00    -0.266 OA
HETATM   24  N   UNL     1      29.430  42.813  52.763  1.00  0.00    -0.321 N 
HETATM   25  C   UNL     1      29.733  43.430  53.975  1.00  0.00     0.048 A 
HETATM   26  H   UNL     1      29.907  42.015  52.369  1.00  0.00     0.169 HD
HETATM   27  C   UNL     1      30.727  43.088  54.867  1.00  0.00     0.032 A 
HETATM   28  C   UNL     1      30.817  43.839  56.047  1.00  0.00     0.021 A 
HETATM   29  C   UNL     1      29.923  44.900  56.300  1.00  0.00     0.012 A 
HETATM   30 BR   UNL     1      30.072  45.867  57.920  1.00  0.00    -0.051 Br
HETATM   31  C   UNL     1      28.929  45.246  55.386  1.00  0.00     0.035 A 
ENDBRANCH   2  19
TORSDOF 6
ENDMDL
MODEL 4
REMARK VINA RESULT:      -9.1      4.664      8.836
REMARK  6 active torsions:
REMARK  status: ('A' for Active; 'I' for Inactive)
REMARK    1  A    between atoms: C_4  and  O_5 
REMARK    2  A    between atoms: O_5  and  C_6 
REMARK    3  A    between atoms: C_6  and  C_7 
REMARK       I    between atoms: C_7  and  N_8 
REMARK    4  A    between atoms: N_8  and  C_9 
REMARK    5  A    between atoms: C_9  and  C_10 
REMARK       I    between atoms: C_10  and  N_11 
REMARK    6  A    between atoms: N_11  and  N_12 
ROOT
HETATM    1  C   UNL     1      26.869  43.049  50.840  1.00  0.00     0.255 C 
HETATM    2  N   UNL     1      27.198  44.141  51.620  1.00  0.00    -0.245 N 
HETATM    3  O   UNL     1      27.097  41.875  51.144  1.00  0.00    -0.270 OA
HETATM    4  H   UNL     1      27.010  45.079  51.264  1.00  0.00     0.192 HD
ENDROOT
BRANCH   1   5
HETATM    5  C   UNL     1      26.077  43.382  49.571  1.00  0.00     0.227 C 
BRANCH   5   6
HETATM    6  N   UNL     1      25.777  44.776  49.264  1.00  0.00    -0.350 N 
HETATM    7  C   UNL     1      24.523  45.279  49.575  1.00  0.00     0.242 C 
HETATM    8  O   UNL     1      23.541  44.558  49.724  1.00  0.00    -0.271 OA
HETATM    9  H   UNL     1      26.536  45.427  49.438  1.00  0.00     0.163 HD
BRANCH   7  10
HETATM   10  C   UNL     1      24.463  46.794  49.707  1.00  0.00     0.278 C 
BRANCH  10  11
HETATM   11  O   UNL     1      23.141  47.176  49.318  1.00  0.00    -0.342 OA
BRANCH  11  12
HETATM   12  C   UNL     1      23.064  48.501  48.985  1.00  0.00     0.069 A 
HETATM   13  C   UNL     1      21.864  49.212  49.028  1.00  0.00     0.043 A 
HETATM   14  C   UNL     1      21.831  50.558  48.642  1.00  0.00    -0.059 A 
HETATM   15  C   UNL     1      20.548  51.335  48.662  1.00  0.00     0.048 C 
HETATM   16  C   UNL     1      23.011  51.173  48.200  1.00  0.00     0.007 A 
HETATM   17  C   UNL     1      24.205  50.452  48.141  1.00  0.00     0.003 A 
HETATM   18  C   UNL     1      24.229  49.113  48.524  1.00  0.00     0.037 A 
ENDBRANCH  11  12
ENDBRANCH  10  11
ENDBRANCH   7  10
ENDBRANCH   5   6
ENDBRANCH   1   5
BRANCH   2  19
HETATM   19  N   UNL     1      28.022  43.979  52.697  1.00  0.00    -0.166 NA
HETATM   20  C   UNL     1      27.921  44.847  53.649  1.00  0.00     0.157 A 
HETATM   21  C   UNL     1      26.941  46.016  53.789  1.00  0.00     0.277 A 
HETATM   22  C   UNL     1      28.753  44.876  54.847  1.00  0.00     0.028 A 
HETATM   23  O   UNL     1      26.110  46.336  52.966  1.00  0.00    -0.266 OA
HETATM   24  N   UNL     1      27.224  46.587  55.013  1.00  0.00    -0.321 N 
HETATM   25  C   UNL     1      28.288  45.932  55.629  1.00  0.00     0.048 A 
HETATM   26  H   UNL     1      26.732  47.390  55.378  1.00  0.00     0.169 HD
HETATM   27  C   UNL     1      28.878  46.237  56.838  1.00  0.00     0.032 A 
HETATM   28  C   UNL     1      29.967  45.452  57.238  1.00  0.00     0.021 A 
HETATM   29  C   UNL     1      30.434  44.394  56.430  1.00  0.00     0.012 A 
HETATM   30 BR   UNL     1      31.925  43.380  57.004  1.00  0.00    -0.051 Br
HETATM   31  C   UNL     1      29.824  44.087  55.214  1.00  0.00     0.035 A 
ENDBRANCH   2  19
TORSDOF 6
ENDMDL
MODEL 5
REMARK VINA RESULT:      -8.9      6.303      9.032
REMARK  6 active torsions:
REMARK  status: ('A' for Active; 'I' for Inactive)
REMARK    1  A    between atoms: C_4  and  O_5 
REMARK    2  A    between atoms: O_5  and  C_6 
REMARK    3  A    between atoms: C_6  and  C_7 
REMARK       I    between atoms: C_7  and  N_8 
REMARK    4  A    between atoms: N_8  and  C_9 
REMARK    5  A    between atoms: C_9  and  C_10 
REMARK       I    between atoms: C_10  and  N_11 
REMARK    6  A    between atoms: N_11  and  N_12 
ROOT
HETATM    1  C   UNL     1      24.034  47.598  49.449  1.00  0.00     0.255 C 
HETATM    2  N   UNL     1      23.435  48.655  48.790  1.00  0.00    -0.245 N 
HETATM    3  O   UNL     1      23.528  46.482  49.589  1.00  0.00    -0.270 OA
HETATM    4  H   UNL     1      23.913  49.557  48.764  1.00  0.00     0.192 HD
ENDROOT
BRANCH   1   5
HETATM    5  C   UNL     1      25.466  47.866  49.925  1.00  0.00     0.227 C 
BRANCH   5   6
HETATM    6  N   UNL     1      26.193  46.811  50.625  1.00  0.00    -0.350 N 
HETATM    7  C   UNL     1      25.985  46.640  51.984  1.00  0.00     0.242 C 
HETATM    8  O   UNL     1      25.547  47.532  52.704  1.00  0.00    -0.271 OA
HETATM    9  H   UNL     1      26.289  45.942  50.110  1.00  0.00     0.163 HD
BRANCH   7  10
HETATM   10  C   UNL     1      26.352  45.259  52.511  1.00  0.00     0.278 C 
BRANCH  10  11
HETATM   11  O   UNL     1      27.158  45.477  53.672  1.00  0.00    -0.342 OA
BRANCH  11  12
HETATM   12  C   UNL     1      28.199  44.592  53.751  1.00  0.00     0.069 A 
HETATM   13  C   UNL     1      29.010  44.495  54.882  1.00  0.00     0.043 A 
HETATM   14  C   UNL     1      30.086  43.597  54.900  1.00  0.00    -0.059 A 
HETATM   15  C   UNL     1      30.983  43.491  56.098  1.00  0.00     0.048 C 
HETATM   16  C   UNL     1      30.343  42.814  53.765  1.00  0.00     0.007 A 
HETATM   17  C   UNL     1      29.540  42.929  52.629  1.00  0.00     0.003 A 
HETATM   18  C   UNL     1      28.473  43.826  52.619  1.00  0.00     0.037 A 
ENDBRANCH  11  12
ENDBRANCH  10  11
ENDBRANCH   7  10
ENDBRANCH   5   6
ENDBRANCH   1   5
BRANCH   2  19
HETATM   19  N   UNL     1      22.115  48.579  48.448  1.00  0.00    -0.166 NA
HETATM   20  C   UNL     1      21.318  49.441  48.988  1.00  0.00     0.157 A 
HETATM   21  C   UNL     1      21.651  50.612  49.920  1.00  0.00     0.277 A 
HETATM   22  C   UNL     1      19.874  49.482  48.794  1.00  0.00     0.028 A 
HETATM   23  O   UNL     1      22.757  50.882  50.339  1.00  0.00    -0.266 OA
HETATM   24  N   UNL     1      20.448  51.246  50.154  1.00  0.00    -0.321 N 
HETATM   25  C   UNL     1      19.407  50.583  49.510  1.00  0.00     0.048 A 
HETATM   26  H   UNL     1      20.357  52.060  50.744  1.00  0.00     0.169 HD
HETATM   27  C   UNL     1      18.064  50.896  49.540  1.00  0.00     0.032 A 
HETATM   28  C   UNL     1      17.192  50.055  48.836  1.00  0.00     0.021 A 
HETATM   29  C   UNL     1      17.678  48.937  48.126  1.00  0.00     0.012 A 
HETATM   30 BR   UNL     1      16.456  47.819  47.212  1.00  0.00    -0.051 Br
HETATM   31  C   UNL     1      19.039  48.635  48.092  1.00  0.00     0.035 A 
ENDBRANCH   2  19
TORSDOF 6
ENDMDL
MODEL 6
REMARK VINA RESULT:      -8.8      5.989      8.591
REMARK  6 active torsions:
REMARK  status: ('A' for Active; 'I' for Inactive)
REMARK    1  A    between atoms: C_4  and  O_5 
REMARK    2  A    between atoms: O_5  and  C_6 
REMARK    3  A    between atoms: C_6  and  C_7 
REMARK       I    between atoms: C_7  and  N_8 
REMARK    4  A    between atoms: N_8  and  C_9 
REMARK    5  A    between atoms: C_9  and  C_10 
REMARK       I    between atoms: C_10  and  N_11 
REMARK    6  A    between atoms: N_11  and  N_12 
ROOT
HETATM    1  C   UNL     1      23.802  45.835  49.386  1.00  0.00     0.255 C 
HETATM    2  N   UNL     1      23.606  47.162  49.053  1.00  0.00    -0.245 N 
HETATM    3  O   UNL     1      22.943  44.954  49.295  1.00  0.00    -0.270 OA
HETATM    4  H   UNL     1      24.364  47.828  49.205  1.00  0.00     0.192 HD
ENDROOT
BRANCH   1   5
HETATM    5  C   UNL     1      25.237  45.480  49.791  1.00  0.00     0.227 C 
BRANCH   5   6
HETATM    6  N   UNL     1      25.468  44.764  51.042  1.00  0.00    -0.350 N 
HETATM    7  C   UNL     1      26.770  44.486  51.427  1.00  0.00     0.242 C 
HETATM    8  O   UNL     1      27.702  44.449  50.629  1.00  0.00    -0.271 OA
HETATM    9  H   UNL     1      24.860  45.033  51.808  1.00  0.00     0.163 HD
BRANCH   7  10
HETATM   10  C   UNL     1      26.947  44.224  52.916  1.00  0.00     0.278 C 
BRANCH  10  11
HETATM   11  O   UNL     1      28.264  43.690  53.073  1.00  0.00    -0.342 OA
BRANCH  11  12
HETATM   12  C   UNL     1      28.910  44.219  54.157  1.00  0.00     0.069 A 
HETATM   13  C   UNL     1      29.889  43.514  54.858  1.00  0.00     0.043 A 
HETATM   14  C   UNL     1      30.495  44.086  55.985  1.00  0.00    -0.059 A 
HETATM   15  C   UNL     1      31.536  43.338  56.764  1.00  0.00     0.048 C 
HETATM   16  C   UNL     1      30.093  45.362  56.404  1.00  0.00     0.007 A 
HETATM   17  C   UNL     1      29.099  46.055  55.711  1.00  0.00     0.003 A 
HETATM   18  C   UNL     1      28.500  45.478  54.593  1.00  0.00     0.037 A 
ENDBRANCH  11  12
ENDBRANCH  10  11
ENDBRANCH   7  10
ENDBRANCH   5   6
ENDBRANCH   1   5
BRANCH   2  19
HETATM   19  N   UNL     1      22.341  47.619  48.815  1.00  0.00    -0.166 NA
HETATM   20  C   UNL     1      22.171  48.900  48.812  1.00  0.00     0.157 A 
HETATM   21  C   UNL     1      23.214  50.012  48.966  1.00  0.00     0.277 A 
HETATM   22  C   UNL     1      20.890  49.574  48.636  1.00  0.00     0.028 A 
HETATM   23  O   UNL     1      24.398  49.840  49.167  1.00  0.00    -0.266 OA
HETATM   24  N   UNL     1      22.513  51.193  48.831  1.00  0.00    -0.321 N 
HETATM   25  C   UNL     1      21.155  50.942  48.651  1.00  0.00     0.048 A 
HETATM   26  H   UNL     1      22.944  52.103  48.891  1.00  0.00     0.169 HD
HETATM   27  C   UNL     1      20.139  51.866  48.517  1.00  0.00     0.032 A 
HETATM   28  C   UNL     1      18.835  51.372  48.381  1.00  0.00     0.021 A 
HETATM   29  C   UNL     1      18.582  49.985  48.381  1.00  0.00     0.012 A 
HETATM   30 BR   UNL     1      16.799  49.370  48.219  1.00  0.00    -0.051 Br
HETATM   31  C   UNL     1      19.616  49.058  48.505  1.00  0.00     0.035 A 
ENDBRANCH   2  19
TORSDOF 6
ENDMDL
MODEL 7
REMARK VINA RESULT:      -8.8      6.251     10.242
REMARK  6 active torsions:
REMARK  status: ('A' for Active; 'I' for Inactive)
REMARK    1  A    between atoms: C_4  and  O_5 
REMARK    2  A    between atoms: O_5  and  C_6 
REMARK    3  A    between atoms: C_6  and  C_7 
REMARK       I    between atoms: C_7  and  N_8 
REMARK    4  A    between atoms: N_8  and  C_9 
REMARK    5  A    between atoms: C_9  and  C_10 
REMARK       I    between atoms: C_10  and  N_11 
REMARK    6  A    between atoms: N_11  and  N_12 
ROOT
HETATM    1  C   UNL     1      24.099  44.780  50.445  1.00  0.00     0.255 C 
HETATM    2  N   UNL     1      25.350  45.361  50.535  1.00  0.00    -0.245 N 
HETATM    3  O   UNL     1      23.609  44.033  51.295  1.00  0.00    -0.270 OA
HETATM    4  H   UNL     1      25.689  45.930  49.758  1.00  0.00     0.192 HD
ENDROOT
BRANCH   1   5
HETATM    5  C   UNL     1      23.275  45.216  49.228  1.00  0.00     0.227 C 
BRANCH   5   6
HETATM    6  N   UNL     1      22.558  46.486  49.272  1.00  0.00    -0.350 N 
HETATM    7  C   UNL     1      21.945  46.952  48.119  1.00  0.00     0.242 C 
HETATM    8  O   UNL     1      22.281  46.585  46.998  1.00  0.00    -0.271 OA
HETATM    9  H   UNL     1      22.020  46.646  50.118  1.00  0.00     0.163 HD
BRANCH   7  10
HETATM   10  C   UNL     1      20.829  47.960  48.359  1.00  0.00     0.278 C 
BRANCH  10  11
HETATM   11  O   UNL     1      21.081  49.051  47.470  1.00  0.00    -0.342 OA
BRANCH  11  12
HETATM   12  C   UNL     1      20.240  50.107  47.698  1.00  0.00     0.069 A 
HETATM   13  C   UNL     1      19.233  50.464  46.802  1.00  0.00     0.043 A 
HETATM   14  C   UNL     1      18.422  51.577  47.064  1.00  0.00    -0.059 A 
HETATM   15  C   UNL     1      17.344  51.990  46.105  1.00  0.00     0.048 C 
HETATM   16  C   UNL     1      18.648  52.330  48.224  1.00  0.00     0.007 A 
HETATM   17  C   UNL     1      19.670  51.980  49.108  1.00  0.00     0.003 A 
HETATM   18  C   UNL     1      20.474  50.874  48.839  1.00  0.00     0.037 A 
ENDBRANCH  11  12
ENDBRANCH  10  11
ENDBRANCH   7  10
ENDBRANCH   5   6
ENDBRANCH   1   5
BRANCH   2  19
HETATM   19  N   UNL     1      26.223  44.939  51.497  1.00  0.00    -0.166 NA
HETATM   20  C   UNL     1      26.427  45.737  52.494  1.00  0.00     0.157 A 
HETATM   21  C   UNL     1      25.764  47.083  52.804  1.00  0.00     0.277 A 
HETATM   22  C   UNL     1      27.364  45.490  53.584  1.00  0.00     0.028 A 
HETATM   23  O   UNL     1      24.948  47.641  52.102  1.00  0.00    -0.266 OA
HETATM   24  N   UNL     1      26.299  47.484  54.011  1.00  0.00    -0.321 N 
HETATM   25  C   UNL     1      27.242  46.564  54.464  1.00  0.00     0.048 A 
HETATM   26  H   UNL     1      26.048  48.348  54.469  1.00  0.00     0.169 HD
HETATM   27  C   UNL     1      28.009  46.640  55.607  1.00  0.00     0.032 A 
HETATM   28  C   UNL     1      28.923  45.603  55.838  1.00  0.00     0.021 A 
HETATM   29  C   UNL     1      29.044  44.529  54.931  1.00  0.00     0.012 A 
HETATM   30 BR   UNL     1      30.311  43.166  55.276  1.00  0.00    -0.051 Br
HETATM   31  C   UNL     1      28.255  44.455  53.783  1.00  0.00     0.035 A 
ENDBRANCH   2  19
TORSDOF 6
ENDMDL
MODEL 8
REMARK VINA RESULT:      -8.6      6.322      8.652
REMARK  6 active torsions:
REMARK  status: ('A' for Active; 'I' for Inactive)
REMARK    1  A    between atoms: C_4  and  O_5 
REMARK    2  A    between atoms: O_5  and  C_6 
REMARK    3  A    between atoms: C_6  and  C_7 
REMARK       I    between atoms: C_7  and  N_8 
REMARK    4  A    between atoms: N_8  and  C_9 
REMARK    5  A    between atoms: C_9  and  C_10 
REMARK       I    between atoms: C_10  and  N_11 
REMARK    6  A    between atoms: N_11  and  N_12 
ROOT
HETATM    1  C   UNL     1      24.341  47.085  49.834  1.00  0.00     0.255 C 
HETATM    2  N   UNL     1      23.112  46.832  49.255  1.00  0.00    -0.245 N 
HETATM    3  O   UNL     1      24.637  48.127  50.425  1.00  0.00    -0.270 OA
HETATM    4  H   UNL     1      22.974  45.957  48.746  1.00  0.00     0.192 HD
ENDROOT
BRANCH   1   5
HETATM    5  C   UNL     1      25.325  45.910  49.793  1.00  0.00     0.227 C 
BRANCH   5   6
HETATM    6  N   UNL     1      25.990  45.495  51.023  1.00  0.00    -0.350 N 
HETATM    7  C   UNL     1      25.354  44.592  51.860  1.00  0.00     0.242 C 
HETATM    8  O   UNL     1      24.139  44.420  51.845  1.00  0.00    -0.271 OA
HETATM    9  H   UNL     1      26.991  45.345  50.940  1.00  0.00     0.163 HD
BRANCH   7  10
HETATM   10  C   UNL     1      26.282  43.839  52.803  1.00  0.00     0.278 C 
BRANCH  10  11
HETATM   11  O   UNL     1      27.613  44.162  52.392  1.00  0.00    -0.342 OA
BRANCH  11  12
HETATM   12  C   UNL     1      28.503  44.101  53.431  1.00  0.00     0.069 A 
HETATM   13  C   UNL     1      28.460  44.995  54.501  1.00  0.00     0.043 A 
HETATM   14  C   UNL     1      29.416  44.914  55.523  1.00  0.00    -0.059 A 
HETATM   15  C   UNL     1      29.399  45.877  56.673  1.00  0.00     0.048 C 
HETATM   16  C   UNL     1      30.420  43.939  55.444  1.00  0.00     0.007 A 
HETATM   17  C   UNL     1      30.470  43.060  54.361  1.00  0.00     0.003 A 
HETATM   18  C   UNL     1      29.517  43.148  53.349  1.00  0.00     0.037 A 
ENDBRANCH  11  12
ENDBRANCH  10  11
ENDBRANCH   7  10
ENDBRANCH   5   6
ENDBRANCH   1   5
BRANCH   2  19
HETATM   19  N   UNL     1      22.212  47.848  49.108  1.00  0.00    -0.166 NA
HETATM   20  C   UNL     1      21.392  47.767  48.112  1.00  0.00     0.157 A 
HETATM   21  C   UNL     1      21.225  46.638  47.089  1.00  0.00     0.277 A 
HETATM   22  C   UNL     1      20.403  48.778  47.757  1.00  0.00     0.028 A 
HETATM   23  O   UNL     1      21.901  45.632  47.039  1.00  0.00    -0.266 OA
HETATM   24  N   UNL     1      20.177  47.028  46.281  1.00  0.00    -0.321 N 
HETATM   25  C   UNL     1      19.702  48.282  46.660  1.00  0.00     0.048 A 
HETATM   26  H   UNL     1      19.840  46.476  45.506  1.00  0.00     0.169 HD
HETATM   27  C   UNL     1      18.693  49.012  46.069  1.00  0.00     0.032 A 
HETATM   28  C   UNL     1      18.412  50.275  46.608  1.00  0.00     0.021 A 
HETATM   29  C   UNL     1      19.139  50.769  47.712  1.00  0.00     0.012 A 
HETATM   30 BR   UNL     1      18.738  52.491  48.386  1.00  0.00    -0.051 Br
HETATM   31  C   UNL     1      20.151  50.018  48.309  1.00  0.00     0.035 A 
ENDBRANCH   2  19
TORSDOF 6
ENDMDL
MODEL 9
REMARK VINA RESULT:      -8.4      7.063      9.926
REMARK  6 active torsions:
REMARK  status: ('A' for Active; 'I' for Inactive)
REMARK    1  A    between atoms: C_4  and  O_5 
REMARK    2  A    between atoms: O_5  and  C_6 
REMARK    3  A    between atoms: C_6  and  C_7 
REMARK       I    between atoms: C_7  and  N_8 
REMARK    4  A    between atoms: N_8  and  C_9 
REMARK    5  A    between atoms: C_9  and  C_10 
REMARK       I    between atoms: C_10  and  N_11 
REMARK    6  A    between atoms: N_11  and  N_12 
ROOT
HETATM    1  C   UNL     1      23.175  48.512  48.725  1.00  0.00     0.255 C 
HETATM    2  N   UNL     1      22.090  48.400  49.574  1.00  0.00    -0.245 N 
HETATM    3  O   UNL     1      23.122  48.947  47.572  1.00  0.00    -0.270 OA
HETATM    4  H   UNL     1      22.223  47.985  50.497  1.00  0.00     0.192 HD
ENDROOT
BRANCH   1   5
HETATM    5  C   UNL     1      24.524  48.148  49.356  1.00  0.00     0.227 C 
BRANCH   5   6
HETATM    6  N   UNL     1      24.548  47.317  50.555  1.00  0.00    -0.350 N 
HETATM    7  C   UNL     1      24.349  45.951  50.431  1.00  0.00     0.242 C 
HETATM    8  O   UNL     1      23.778  45.452  49.466  1.00  0.00    -0.271 OA
HETATM    9  H   UNL     1      25.256  47.569  51.238  1.00  0.00     0.163 HD
BRANCH   7  10
HETATM   10  C   UNL     1      24.887  45.124  51.590  1.00  0.00     0.278 C 
BRANCH  10  11
HETATM   11  O   UNL     1      26.277  44.924  51.325  1.00  0.00    -0.342 OA
BRANCH  11  12
HETATM   12  C   UNL     1      27.027  44.926  52.470  1.00  0.00     0.069 A 
HETATM   13  C   UNL     1      28.045  43.999  52.696  1.00  0.00     0.043 A 
HETATM   14  C   UNL     1      28.759  44.020  53.901  1.00  0.00    -0.059 A 
HETATM   15  C   UNL     1      29.845  43.021  54.172  1.00  0.00     0.048 C 
HETATM   16  C   UNL     1      28.427  44.970  54.877  1.00  0.00     0.007 A 
HETATM   17  C   UNL     1      27.394  45.883  54.654  1.00  0.00     0.003 A 
HETATM   18  C   UNL     1      26.687  45.853  53.454  1.00  0.00     0.037 A 
ENDBRANCH  11  12
ENDBRANCH  10  11
ENDBRANCH   7  10
ENDBRANCH   5   6
ENDBRANCH   1   5
BRANCH   2  19
HETATM   19  N   UNL     1      20.827  48.561  49.081  1.00  0.00    -0.166 NA
HETATM   20  C   UNL     1      20.203  49.645  49.406  1.00  0.00     0.157 A 
HETATM   21  C   UNL     1      20.707  50.840  50.222  1.00  0.00     0.277 A 
HETATM   22  C   UNL     1      18.832  49.967  49.029  1.00  0.00     0.028 A 
HETATM   23  O   UNL     1      21.800  50.924  50.740  1.00  0.00    -0.266 OA
HETATM   24  N   UNL     1      19.667  51.747  50.224  1.00  0.00    -0.321 N 
HETATM   25  C   UNL     1      18.566  51.237  49.539  1.00  0.00     0.048 A 
HETATM   26  H   UNL     1      19.711  52.640  50.693  1.00  0.00     0.169 HD
HETATM   27  C   UNL     1      17.336  51.833  49.362  1.00  0.00     0.032 A 
HETATM   28  C   UNL     1      16.364  51.107  48.662  1.00  0.00     0.021 A 
HETATM   29  C   UNL     1      16.644  49.817  48.162  1.00  0.00     0.012 A 
HETATM   30 BR   UNL     1      15.288  48.867  47.245  1.00  0.00    -0.051 Br
HETATM   31  C   UNL     1      17.895  49.227  48.337  1.00  0.00     0.035 A 
ENDBRANCH   2  19
TORSDOF 6
ENDMDL
MODEL 10
REMARK VINA RESULT:      -8.3      6.903     10.392
REMARK  6 active torsions:
REMARK  status: ('A' for Active; 'I' for Inactive)
REMARK    1  A    between atoms: C_4  and  O_5 
REMARK    2  A    between atoms: O_5  and  C_6 
REMARK    3  A    between atoms: C_6  and  C_7 
REMARK       I    between atoms: C_7  and  N_8 
REMARK    4  A    between atoms: N_8  and  C_9 
REMARK    5  A    between atoms: C_9  and  C_10 
REMARK       I    between atoms: C_10  and  N_11 
REMARK    6  A    between atoms: N_11  and  N_12 
ROOT
HETATM    1  C   UNL     1      24.079  46.987  49.752  1.00  0.00     0.255 C 
HETATM    2  N   UNL     1      24.817  46.958  50.920  1.00  0.00    -0.245 N 
HETATM    3  O   UNL     1      23.812  45.998  49.066  1.00  0.00    -0.270 OA
HETATM    4  H   UNL     1      25.026  47.836  51.397  1.00  0.00     0.192 HD
ENDROOT
BRANCH   1   5
HETATM    5  C   UNL     1      23.495  48.359  49.396  1.00  0.00     0.227 C 
BRANCH   5   6
HETATM    6  N   UNL     1      22.059  48.579  49.531  1.00  0.00    -0.350 N 
HETATM    7  C   UNL     1      21.566  49.872  49.451  1.00  0.00     0.242 C 
HETATM    8  O   UNL     1      22.264  50.859  49.665  1.00  0.00    -0.271 OA
HETATM    9  H   UNL     1      21.474  47.887  49.073  1.00  0.00     0.163 HD
BRANCH   7  10
HETATM   10  C   UNL     1      20.091  49.967  49.088  1.00  0.00     0.278 C 
BRANCH  10  11
HETATM   11  O   UNL     1      19.587  51.120  49.765  1.00  0.00    -0.342 OA
BRANCH  11  12
HETATM   12  C   UNL     1      18.266  51.347  49.485  1.00  0.00     0.069 A 
HETATM   13  C   UNL     1      17.583  52.462  49.971  1.00  0.00     0.043 A 
HETATM   14  C   UNL     1      16.221  52.630  49.685  1.00  0.00    -0.059 A 
HETATM   15  C   UNL     1      15.462  53.811  50.214  1.00  0.00     0.048 C 
HETATM   16  C   UNL     1      15.557  51.659  48.922  1.00  0.00     0.007 A 
HETATM   17  C   UNL     1      16.241  50.536  48.455  1.00  0.00     0.003 A 
HETATM   18  C   UNL     1      17.595  50.375  48.745  1.00  0.00     0.037 A 
ENDBRANCH  11  12
ENDBRANCH  10  11
ENDBRANCH   7  10
ENDBRANCH   5   6
ENDBRANCH   1   5
BRANCH   2  19
HETATM   19  N   UNL     1      25.501  45.825  51.260  1.00  0.00    -0.166 NA
HETATM   20  C   UNL     1      26.098  45.822  52.406  1.00  0.00     0.157 A 
HETATM   21  C   UNL     1      26.093  46.894  53.500  1.00  0.00     0.277 A 
HETATM   22  C   UNL     1      26.923  44.733  52.916  1.00  0.00     0.028 A 
HETATM   23  O   UNL     1      25.538  47.970  53.425  1.00  0.00    -0.266 OA
HETATM   24  N   UNL     1      26.837  46.365  54.534  1.00  0.00    -0.321 N 
HETATM   25  C   UNL     1      27.334  45.109  54.194  1.00  0.00     0.048 A 
HETATM   26  H   UNL     1      27.011  46.856  55.399  1.00  0.00     0.169 HD
HETATM   27  C   UNL     1      28.146  44.292  54.951  1.00  0.00     0.032 A 
HETATM   28  C   UNL     1      28.550  43.078  54.379  1.00  0.00     0.021 A 
HETATM   29  C   UNL     1      28.136  42.717  53.079  1.00  0.00     0.012 A 
HETATM   30 BR   UNL     1      28.730  41.078  52.342  1.00  0.00    -0.051 Br
HETATM   31  C   UNL     1      27.305  43.545  52.325  1.00  0.00     0.035 A 
ENDBRANCH   2  19
TORSDOF 6
ENDMDL
