MODEL 1
REMARK VINA RESULT:      -8.2      0.000      0.000
REMARK  6 active torsions:
REMARK  status: ('A' for Active; 'I' for Inactive)
REMARK    1  A    between atoms: C_7  and  S_8 
REMARK    2  A    between atoms: S_8  and  C_9 
REMARK    3  A    between atoms: C_9  and  C_10 
REMARK    4  A    between atoms: C_18  and  C_19 
REMARK    5  A    between atoms: C_26  and  C_27 
REMARK    6  A    between atoms: C_27  and  O_28 
ROOT
HETATM    1  C   UNL     1      29.898  37.568  50.793  1.00  0.00     0.070 C 
HETATM    2  C   UNL     1      28.934  38.672  50.437  1.00  0.00     0.037 A 
HETATM    3  N   UNL     1      29.059  39.840  51.180  1.00  0.00    -0.192 N 
HETATM    4  C   UNL     1      28.264  40.912  51.017  1.00  0.00     0.726 A 
HETATM    5  N   UNL     1      27.266  40.874  50.085  1.00  0.00    -0.082 N 
HETATM    6  N   UNL     1      26.542  42.015  50.094  1.00  0.00    -0.128 NA
HETATM    7  C   UNL     1      27.213  42.729  51.009  1.00  0.00     0.226 A 
HETATM    8  N   UNL     1      28.263  42.077  51.608  1.00  0.00    -0.035 NA
HETATM    9  C   UNL     1      27.011  39.728  49.201  1.00  0.00     0.203 A 
HETATM   10  C   UNL     1      27.972  38.582  49.485  1.00  0.00     0.070 A 
HETATM   11  H   UNL     1      29.798  39.881  51.878  1.00  0.00     0.184 HD
ENDROOT
BRANCH   7  12
HETATM   12  S   UNL     1      26.847  44.387  51.394  1.00  0.00    -0.083 SA
BRANCH  12  13
HETATM   13  C   UNL     1      26.375  44.265  53.139  1.00  0.00     0.123 C 
BRANCH  13  14
HETATM   14  C   UNL     1      27.390  44.946  54.030  1.00  0.00    -0.027 A 
HETATM   15  C   UNL     1      27.268  46.282  54.447  1.00  0.00     0.041 A 
HETATM   16 CL   UNL     1      25.956  47.285  53.938  1.00  0.00    -0.084 Cl
HETATM   17  C   UNL     1      28.221  46.850  55.300  1.00  0.00     0.024 A 
HETATM   18  C   UNL     1      29.305  46.097  55.747  1.00  0.00     0.002 A 
HETATM   19  C   UNL     1      29.440  44.771  55.344  1.00  0.00     0.001 A 
HETATM   20  C   UNL     1      28.489  44.199  54.496  1.00  0.00     0.009 A 
ENDBRANCH  13  14
ENDBRANCH  12  13
ENDBRANCH   7  12
BRANCH   9  21
HETATM   21  C   UNL     1      27.042  40.176  47.739  1.00  0.00    -0.028 A 
HETATM   22  C   UNL     1      28.210  40.699  47.154  1.00  0.00     0.011 A 
HETATM   23  C   UNL     1      28.219  41.089  45.813  1.00  0.00     0.024 A 
HETATM   24  C   UNL     1      27.066  40.956  45.043  1.00  0.00     0.034 A 
HETATM   25 CL   UNL     1      27.079  41.436  43.391  1.00  0.00    -0.084 Cl
HETATM   26  C   UNL     1      25.902  40.435  45.602  1.00  0.00     0.024 A 
HETATM   27  C   UNL     1      25.889  40.047  46.944  1.00  0.00     0.011 A 
ENDBRANCH   9  21
BRANCH  10  28
HETATM   28  C   UNL     1      27.841  37.381  48.635  1.00  0.00     0.293 C 
HETATM   29  O   UNL     1      26.959  36.546  48.757  1.00  0.00    -0.259 OA
BRANCH  28  30
HETATM   30  O   UNL     1      28.840  37.365  47.720  1.00  0.00    -0.323 OA
HETATM   31  C   UNL     1      28.403  37.001  46.407  1.00  0.00     0.213 C 
ENDBRANCH  28  30
ENDBRANCH  10  28
TORSDOF 6
ENDMDL
MODEL 2
REMARK VINA RESULT:      -8.2      4.413      8.455
REMARK  6 active torsions:
REMARK  status: ('A' for Active; 'I' for Inactive)
REMARK    1  A    between atoms: C_7  and  S_8 
REMARK    2  A    between atoms: S_8  and  C_9 
REMARK    3  A    between atoms: C_9  and  C_10 
REMARK    4  A    between atoms: C_18  and  C_19 
REMARK    5  A    between atoms: C_26  and  C_27 
REMARK    6  A    between atoms: C_27  and  O_28 
ROOT
HETATM    1  C   UNL     1      25.047  44.511  54.816  1.00  0.00     0.070 C 
HETATM    2  C   UNL     1      25.520  44.568  53.385  1.00  0.00     0.037 A 
HETATM    3  N   UNL     1      25.380  43.391  52.660  1.00  0.00    -0.192 N 
HETATM    4  C   UNL     1      25.777  43.255  51.381  1.00  0.00     0.726 A 
HETATM    5  N   UNL     1      26.360  44.312  50.742  1.00  0.00    -0.082 N 
HETATM    6  N   UNL     1      26.734  43.980  49.487  1.00  0.00    -0.128 NA
HETATM    7  C   UNL     1      26.275  42.723  49.413  1.00  0.00     0.226 A 
HETATM    8  N   UNL     1      25.697  42.241  50.563  1.00  0.00    -0.035 NA
HETATM    9  C   UNL     1      26.561  45.633  51.354  1.00  0.00     0.203 A 
HETATM   10  C   UNL     1      26.076  45.657  52.798  1.00  0.00     0.070 A 
HETATM   11  H   UNL     1      24.948  42.596  53.125  1.00  0.00     0.184 HD
ENDROOT
BRANCH   7  12
HETATM   12  S   UNL     1      26.331  41.761  47.964  1.00  0.00    -0.083 SA
BRANCH  12  13
HETATM   13  C   UNL     1      26.007  40.099  48.611  1.00  0.00     0.123 C 
BRANCH  13  14
HETATM   14  C   UNL     1      27.293  39.326  48.800  1.00  0.00    -0.027 A 
HETATM   15  C   UNL     1      27.892  38.575  47.775  1.00  0.00     0.041 A 
HETATM   16 CL   UNL     1      27.181  38.435  46.206  1.00  0.00    -0.084 Cl
HETATM   17  C   UNL     1      29.102  37.908  47.997  1.00  0.00     0.024 A 
HETATM   18  C   UNL     1      29.728  37.978  49.240  1.00  0.00     0.002 A 
HETATM   19  C   UNL     1      29.149  38.719  50.266  1.00  0.00     0.001 A 
HETATM   20  C   UNL     1      27.944  39.390  50.047  1.00  0.00     0.009 A 
ENDBRANCH  13  14
ENDBRANCH  12  13
ENDBRANCH   7  12
BRANCH   9  21
HETATM   21  C   UNL     1      25.909  46.716  50.494  1.00  0.00    -0.028 A 
HETATM   22  C   UNL     1      24.521  46.735  50.262  1.00  0.00     0.011 A 
HETATM   23  C   UNL     1      23.945  47.741  49.484  1.00  0.00     0.024 A 
HETATM   24  C   UNL     1      24.746  48.739  48.935  1.00  0.00     0.034 A 
HETATM   25 CL   UNL     1      24.035  49.979  47.977  1.00  0.00    -0.084 Cl
HETATM   26  C   UNL     1      26.121  48.741  49.157  1.00  0.00     0.024 A 
HETATM   27  C   UNL     1      26.700  47.734  49.933  1.00  0.00     0.011 A 
ENDBRANCH   9  21
BRANCH  10  28
HETATM   28  C   UNL     1      26.192  46.943  53.514  1.00  0.00     0.293 C 
HETATM   29  O   UNL     1      25.318  47.794  53.545  1.00  0.00    -0.259 OA
BRANCH  28  30
HETATM   30  O   UNL     1      27.405  47.016  54.116  1.00  0.00    -0.323 OA
HETATM   31  C   UNL     1      27.335  47.421  55.486  1.00  0.00     0.213 C 
ENDBRANCH  28  30
ENDBRANCH  10  28
TORSDOF 6
ENDMDL
MODEL 3
REMARK VINA RESULT:      -8.1      4.413      6.244
REMARK  6 active torsions:
REMARK  status: ('A' for Active; 'I' for Inactive)
REMARK    1  A    between atoms: C_7  and  S_8 
REMARK    2  A    between atoms: S_8  and  C_9 
REMARK    3  A    between atoms: C_9  and  C_10 
REMARK    4  A    between atoms: C_18  and  C_19 
REMARK    5  A    between atoms: C_26  and  C_27 
REMARK    6  A    between atoms: C_27  and  O_28 
ROOT
HETATM    1  C   UNL     1      25.011  41.522  47.787  1.00  0.00     0.070 C 
HETATM    2  C   UNL     1      24.836  42.509  48.914  1.00  0.00     0.037 A 
HETATM    3  N   UNL     1      25.647  42.303  50.023  1.00  0.00    -0.192 N 
HETATM    4  C   UNL     1      25.602  43.067  51.129  1.00  0.00     0.726 A 
HETATM    5  N   UNL     1      24.713  44.103  51.194  1.00  0.00    -0.082 N 
HETATM    6  N   UNL     1      24.775  44.729  52.390  1.00  0.00    -0.128 NA
HETATM    7  C   UNL     1      25.781  44.059  52.970  1.00  0.00     0.226 A 
HETATM    8  N   UNL     1      26.300  43.022  52.232  1.00  0.00    -0.035 NA
HETATM    9  C   UNL     1      23.801  44.474  50.103  1.00  0.00     0.203 A 
HETATM   10  C   UNL     1      23.947  43.533  48.914  1.00  0.00     0.070 A 
HETATM   11  H   UNL     1      26.312  41.534  49.988  1.00  0.00     0.184 HD
ENDROOT
BRANCH   7  12
HETATM   12  S   UNL     1      26.452  44.481  54.520  1.00  0.00    -0.083 SA
BRANCH  12  13
HETATM   13  C   UNL     1      28.082  45.122  54.054  1.00  0.00     0.123 C 
BRANCH  13  14
HETATM   14  C   UNL     1      29.111  44.831  55.125  1.00  0.00    -0.027 A 
HETATM   15  C   UNL     1      30.009  43.754  55.050  1.00  0.00     0.041 A 
HETATM   16 CL   UNL     1      29.988  42.632  53.736  1.00  0.00    -0.084 Cl
HETATM   17  C   UNL     1      30.963  43.554  56.054  1.00  0.00     0.024 A 
HETATM   18  C   UNL     1      31.034  44.422  57.143  1.00  0.00     0.002 A 
HETATM   19  C   UNL     1      30.152  45.495  57.231  1.00  0.00     0.001 A 
HETATM   20  C   UNL     1      29.202  45.701  56.228  1.00  0.00     0.009 A 
ENDBRANCH  13  14
ENDBRANCH  12  13
ENDBRANCH   7  12
BRANCH   9  21
HETATM   21  C   UNL     1      24.005  45.941  49.723  1.00  0.00    -0.028 A 
HETATM   22  C   UNL     1      25.254  46.572  49.868  1.00  0.00     0.011 A 
HETATM   23  C   UNL     1      25.421  47.910  49.503  1.00  0.00     0.024 A 
HETATM   24  C   UNL     1      24.345  48.627  48.985  1.00  0.00     0.034 A 
HETATM   25 CL   UNL     1      24.552  50.275  48.535  1.00  0.00    -0.084 Cl
HETATM   26  C   UNL     1      23.102  48.019  48.829  1.00  0.00     0.024 A 
HETATM   27  C   UNL     1      22.932  46.682  49.196  1.00  0.00     0.011 A 
ENDBRANCH   9  21
BRANCH  10  28
HETATM   28  C   UNL     1      23.106  43.823  47.734  1.00  0.00     0.293 C 
HETATM   29  O   UNL     1      23.537  44.214  46.662  1.00  0.00    -0.259 OA
BRANCH  28  30
HETATM   30  O   UNL     1      21.806  43.585  48.037  1.00  0.00    -0.323 OA
HETATM   31  C   UNL     1      20.890  44.150  47.095  1.00  0.00     0.213 C 
ENDBRANCH  28  30
ENDBRANCH  10  28
TORSDOF 6
ENDMDL
MODEL 4
REMARK VINA RESULT:      -8.0      6.048      7.966
REMARK  6 active torsions:
REMARK  status: ('A' for Active; 'I' for Inactive)
REMARK    1  A    between atoms: C_7  and  S_8 
REMARK    2  A    between atoms: S_8  and  C_9 
REMARK    3  A    between atoms: C_9  and  C_10 
REMARK    4  A    between atoms: C_18  and  C_19 
REMARK    5  A    between atoms: C_26  and  C_27 
REMARK    6  A    between atoms: C_27  and  O_28 
ROOT
HETATM    1  C   UNL     1      27.439  46.677  54.418  1.00  0.00     0.070 C 
HETATM    2  C   UNL     1      26.495  46.290  53.307  1.00  0.00     0.037 A 
HETATM    3  N   UNL     1      26.076  47.332  52.486  1.00  0.00    -0.192 N 
HETATM    4  C   UNL     1      25.213  47.173  51.467  1.00  0.00     0.726 A 
HETATM    5  N   UNL     1      24.697  45.934  51.210  1.00  0.00    -0.082 N 
HETATM    6  N   UNL     1      23.816  45.972  50.186  1.00  0.00    -0.128 NA
HETATM    7  C   UNL     1      23.909  47.260  49.825  1.00  0.00     0.226 A 
HETATM    8  N   UNL     1      24.743  48.029  50.601  1.00  0.00    -0.035 NA
HETATM    9  C   UNL     1      25.052  44.723  51.964  1.00  0.00     0.203 A 
HETATM   10  C   UNL     1      26.030  45.035  53.088  1.00  0.00     0.070 A 
HETATM   11  H   UNL     1      26.452  48.259  52.668  1.00  0.00     0.184 HD
ENDROOT
BRANCH   7  12
HETATM   12  S   UNL     1      23.094  47.933  48.442  1.00  0.00    -0.083 SA
BRANCH  12  13
HETATM   13  C   UNL     1      21.356  47.813  48.943  1.00  0.00     0.123 C 
BRANCH  13  14
HETATM   14  C   UNL     1      20.716  49.182  49.028  1.00  0.00    -0.027 A 
HETATM   15  C   UNL     1      19.548  49.436  49.766  1.00  0.00     0.041 A 
HETATM   16 CL   UNL     1      18.709  48.185  50.613  1.00  0.00    -0.084 Cl
HETATM   17  C   UNL     1      19.020  50.729  49.836  1.00  0.00     0.024 A 
HETATM   18  C   UNL     1      19.647  51.784  49.175  1.00  0.00     0.002 A 
HETATM   19  C   UNL     1      20.806  51.550  48.440  1.00  0.00     0.001 A 
HETATM   20  C   UNL     1      21.339  50.260  48.371  1.00  0.00     0.009 A 
ENDBRANCH  13  14
ENDBRANCH  12  13
ENDBRANCH   7  12
BRANCH   9  21
HETATM   21  C   UNL     1      25.570  43.644  51.012  1.00  0.00    -0.028 A 
HETATM   22  C   UNL     1      26.733  43.837  50.245  1.00  0.00     0.011 A 
HETATM   23  C   UNL     1      27.196  42.833  49.391  1.00  0.00     0.024 A 
HETATM   24  C   UNL     1      26.506  41.626  49.301  1.00  0.00     0.034 A 
HETATM   25 CL   UNL     1      27.077  40.390  48.251  1.00  0.00    -0.084 Cl
HETATM   26  C   UNL     1      25.356  41.414  50.057  1.00  0.00     0.024 A 
HETATM   27  C   UNL     1      24.889  42.418  50.909  1.00  0.00     0.011 A 
ENDBRANCH   9  21
BRANCH  10  28
HETATM   28  C   UNL     1      26.492  43.891  53.900  1.00  0.00     0.293 C 
HETATM   29  O   UNL     1      25.863  43.406  54.826  1.00  0.00    -0.259 OA
BRANCH  28  30
HETATM   30  O   UNL     1      27.705  43.481  53.453  1.00  0.00    -0.323 OA
HETATM   31  C   UNL     1      27.863  42.059  53.462  1.00  0.00     0.213 C 
ENDBRANCH  28  30
ENDBRANCH  10  28
TORSDOF 6
ENDMDL
MODEL 5
REMARK VINA RESULT:      -7.8      6.012      8.132
REMARK  6 active torsions:
REMARK  status: ('A' for Active; 'I' for Inactive)
REMARK    1  A    between atoms: C_7  and  S_8 
REMARK    2  A    between atoms: S_8  and  C_9 
REMARK    3  A    between atoms: C_9  and  C_10 
REMARK    4  A    between atoms: C_18  and  C_19 
REMARK    5  A    between atoms: C_26  and  C_27 
REMARK    6  A    between atoms: C_27  and  O_28 
ROOT
HETATM    1  C   UNL     1      23.190  41.086  48.111  1.00  0.00     0.070 C 
HETATM    2  C   UNL     1      23.697  42.446  48.522  1.00  0.00     0.037 A 
HETATM    3  N   UNL     1      22.800  43.495  48.358  1.00  0.00    -0.192 N 
HETATM    4  C   UNL     1      23.095  44.776  48.644  1.00  0.00     0.726 A 
HETATM    5  N   UNL     1      24.339  45.091  49.113  1.00  0.00    -0.082 N 
HETATM    6  N   UNL     1      24.470  46.422  49.300  1.00  0.00    -0.128 NA
HETATM    7  C   UNL     1      23.234  46.840  48.993  1.00  0.00     0.226 A 
HETATM    8  N   UNL     1      22.370  45.859  48.570  1.00  0.00    -0.035 NA
HETATM    9  C   UNL     1      25.396  44.102  49.366  1.00  0.00     0.203 A 
HETATM   10  C   UNL     1      24.941  42.695  49.001  1.00  0.00     0.070 A 
HETATM   11  H   UNL     1      21.870  43.274  48.008  1.00  0.00     0.184 HD
ENDROOT
BRANCH   7  12
HETATM   12  S   UNL     1      22.705  48.490  49.165  1.00  0.00    -0.083 SA
BRANCH  12  13
HETATM   13  C   UNL     1      21.018  48.407  48.507  1.00  0.00     0.123 C 
BRANCH  13  14
HETATM   14  C   UNL     1      20.245  49.668  48.826  1.00  0.00    -0.027 A 
HETATM   15  C   UNL     1      19.236  49.720  49.803  1.00  0.00     0.041 A 
HETATM   16 CL   UNL     1      18.759  48.325  50.703  1.00  0.00    -0.084 Cl
HETATM   17  C   UNL     1      18.578  50.923  50.079  1.00  0.00     0.024 A 
HETATM   18  C   UNL     1      18.914  52.087  49.388  1.00  0.00     0.002 A 
HETATM   19  C   UNL     1      19.912  52.051  48.418  1.00  0.00     0.001 A 
HETATM   20  C   UNL     1      20.575  50.853  48.142  1.00  0.00     0.009 A 
ENDBRANCH  13  14
ENDBRANCH  12  13
ENDBRANCH   7  12
BRANCH   9  21
HETATM   21  C   UNL     1      25.880  44.208  50.813  1.00  0.00    -0.028 A 
HETATM   22  C   UNL     1      27.246  44.342  51.124  1.00  0.00     0.011 A 
HETATM   23  C   UNL     1      27.665  44.451  52.452  1.00  0.00     0.024 A 
HETATM   24  C   UNL     1      26.725  44.434  53.480  1.00  0.00     0.034 A 
HETATM   25 CL   UNL     1      27.242  44.569  55.115  1.00  0.00    -0.084 Cl
HETATM   26  C   UNL     1      25.369  44.308  53.192  1.00  0.00     0.024 A 
HETATM   27  C   UNL     1      24.947  44.195  51.865  1.00  0.00     0.011 A 
ENDBRANCH   9  21
BRANCH  10  28
HETATM   28  C   UNL     1      25.906  41.603  49.243  1.00  0.00     0.293 C 
HETATM   29  O   UNL     1      25.837  40.819  50.176  1.00  0.00    -0.259 OA
BRANCH  28  30
HETATM   30  O   UNL     1      26.857  41.618  48.277  1.00  0.00    -0.323 OA
HETATM   31  C   UNL     1      27.965  40.759  48.556  1.00  0.00     0.213 C 
ENDBRANCH  28  30
ENDBRANCH  10  28
TORSDOF 6
ENDMDL
MODEL 6
REMARK VINA RESULT:      -7.6      2.875      4.367
REMARK  6 active torsions:
REMARK  status: ('A' for Active; 'I' for Inactive)
REMARK    1  A    between atoms: C_7  and  S_8 
REMARK    2  A    between atoms: S_8  and  C_9 
REMARK    3  A    between atoms: C_9  and  C_10 
REMARK    4  A    between atoms: C_18  and  C_19 
REMARK    5  A    between atoms: C_26  and  C_27 
REMARK    6  A    between atoms: C_27  and  O_28 
ROOT
HETATM    1  C   UNL     1      22.069  40.926  47.683  1.00  0.00     0.070 C 
HETATM    2  C   UNL     1      23.321  41.469  48.328  1.00  0.00     0.037 A 
HETATM    3  N   UNL     1      23.123  42.223  49.478  1.00  0.00    -0.192 N 
HETATM    4  C   UNL     1      24.123  42.807  50.163  1.00  0.00     0.726 A 
HETATM    5  N   UNL     1      25.409  42.676  49.720  1.00  0.00    -0.082 N 
HETATM    6  N   UNL     1      26.270  43.365  50.501  1.00  0.00    -0.128 NA
HETATM    7  C   UNL     1      25.436  43.827  51.444  1.00  0.00     0.226 A 
HETATM    8  N   UNL     1      24.110  43.518  51.258  1.00  0.00    -0.035 NA
HETATM    9  C   UNL     1      25.794  41.895  48.536  1.00  0.00     0.203 A 
HETATM   10  C   UNL     1      24.577  41.289  47.850  1.00  0.00     0.070 A 
HETATM   11  H   UNL     1      22.170  42.329  49.818  1.00  0.00     0.184 HD
ENDROOT
BRANCH   7  12
HETATM   12  S   UNL     1      25.966  44.705  52.851  1.00  0.00    -0.083 SA
BRANCH  12  13
HETATM   13  C   UNL     1      27.541  43.889  53.224  1.00  0.00     0.123 C 
BRANCH  13  14
HETATM   14  C   UNL     1      28.255  44.576  54.367  1.00  0.00    -0.027 A 
HETATM   15  C   UNL     1      29.519  44.175  54.832  1.00  0.00     0.041 A 
HETATM   16 CL   UNL     1      30.356  42.821  54.158  1.00  0.00    -0.084 Cl
HETATM   17  C   UNL     1      30.147  44.870  55.870  1.00  0.00     0.024 A 
HETATM   18  C   UNL     1      29.526  45.971  56.460  1.00  0.00     0.002 A 
HETATM   19  C   UNL     1      28.275  46.381  56.010  1.00  0.00     0.001 A 
HETATM   20  C   UNL     1      27.646  45.693  54.970  1.00  0.00     0.009 A 
ENDBRANCH  13  14
ENDBRANCH  12  13
ENDBRANCH   7  12
BRANCH   9  21
HETATM   21  C   UNL     1      26.840  40.847  48.916  1.00  0.00    -0.028 A 
HETATM   22  C   UNL     1      26.564  39.840  49.859  1.00  0.00     0.011 A 
HETATM   23  C   UNL     1      27.531  38.884  50.181  1.00  0.00     0.024 A 
HETATM   24  C   UNL     1      28.778  38.922  49.563  1.00  0.00     0.034 A 
HETATM   25 CL   UNL     1      29.967  37.744  49.960  1.00  0.00    -0.084 Cl
HETATM   26  C   UNL     1      29.068  39.908  48.623  1.00  0.00     0.024 A 
HETATM   27  C   UNL     1      28.105  40.867  48.301  1.00  0.00     0.011 A 
ENDBRANCH   9  21
BRANCH  10  28
HETATM   28  C   UNL     1      24.837  40.449  46.663  1.00  0.00     0.293 C 
HETATM   29  O   UNL     1      24.757  39.231  46.651  1.00  0.00    -0.259 OA
BRANCH  28  30
HETATM   30  O   UNL     1      25.170  41.240  45.614  1.00  0.00    -0.323 OA
HETATM   31  C   UNL     1      26.312  40.775  44.890  1.00  0.00     0.213 C 
ENDBRANCH  28  30
ENDBRANCH  10  28
TORSDOF 6
ENDMDL
MODEL 7
REMARK VINA RESULT:      -7.4      5.793      7.690
REMARK  6 active torsions:
REMARK  status: ('A' for Active; 'I' for Inactive)
REMARK    1  A    between atoms: C_7  and  S_8 
REMARK    2  A    between atoms: S_8  and  C_9 
REMARK    3  A    between atoms: C_9  and  C_10 
REMARK    4  A    between atoms: C_18  and  C_19 
REMARK    5  A    between atoms: C_26  and  C_27 
REMARK    6  A    between atoms: C_27  and  O_28 
ROOT
HETATM    1  C   UNL     1      23.098  43.035  45.603  1.00  0.00     0.070 C 
HETATM    2  C   UNL     1      23.172  43.787  46.909  1.00  0.00     0.037 A 
HETATM    3  N   UNL     1      24.362  43.648  47.613  1.00  0.00    -0.192 N 
HETATM    4  C   UNL     1      24.589  44.224  48.808  1.00  0.00     0.726 A 
HETATM    5  N   UNL     1      23.610  44.982  49.386  1.00  0.00    -0.082 N 
HETATM    6  N   UNL     1      23.994  45.438  50.598  1.00  0.00    -0.128 NA
HETATM    7  C   UNL     1      25.251  44.976  50.652  1.00  0.00     0.226 A 
HETATM    8  N   UNL     1      25.642  44.212  49.579  1.00  0.00    -0.035 NA
HETATM    9  C   UNL     1      22.304  45.249  48.766  1.00  0.00     0.203 A 
HETATM   10  C   UNL     1      22.171  44.542  47.424  1.00  0.00     0.070 A 
HETATM   11  H   UNL     1      25.099  43.085  47.194  1.00  0.00     0.184 HD
ENDROOT
BRANCH   7  12
HETATM   12  S   UNL     1      26.359  45.346  51.943  1.00  0.00    -0.083 SA
BRANCH  12  13
HETATM   13  C   UNL     1      26.777  43.692  52.556  1.00  0.00     0.123 C 
BRANCH  13  14
HETATM   14  C   UNL     1      27.933  43.746  53.530  1.00  0.00    -0.027 A 
HETATM   15  C   UNL     1      28.895  42.727  53.633  1.00  0.00     0.041 A 
HETATM   16 CL   UNL     1      28.815  41.290  52.676  1.00  0.00    -0.084 Cl
HETATM   17  C   UNL     1      29.963  42.847  54.528  1.00  0.00     0.024 A 
HETATM   18  C   UNL     1      30.087  43.981  55.331  1.00  0.00     0.002 A 
HETATM   19  C   UNL     1      29.143  44.999  55.240  1.00  0.00     0.001 A 
HETATM   20  C   UNL     1      28.078  44.885  54.344  1.00  0.00     0.009 A 
ENDBRANCH  13  14
ENDBRANCH  12  13
ENDBRANCH   7  12
BRANCH   9  21
HETATM   21  C   UNL     1      22.070  46.757  48.665  1.00  0.00    -0.028 A 
HETATM   22  C   UNL     1      20.803  47.322  48.901  1.00  0.00     0.011 A 
HETATM   23  C   UNL     1      20.614  48.703  48.816  1.00  0.00     0.024 A 
HETATM   24  C   UNL     1      21.688  49.533  48.502  1.00  0.00     0.034 A 
HETATM   25 CL   UNL     1      21.455  51.234  48.399  1.00  0.00    -0.084 Cl
HETATM   26  C   UNL     1      22.951  48.993  48.271  1.00  0.00     0.024 A 
HETATM   27  C   UNL     1      23.142  47.611  48.352  1.00  0.00     0.011 A 
ENDBRANCH   9  21
BRANCH  10  28
HETATM   28  C   UNL     1      20.912  44.762  46.682  1.00  0.00     0.293 C 
HETATM   29  O   UNL     1      20.814  45.458  45.685  1.00  0.00    -0.259 OA
BRANCH  28  30
HETATM   30  O   UNL     1      19.909  44.075  47.282  1.00  0.00    -0.323 OA
HETATM   31  C   UNL     1      18.606  44.493  46.867  1.00  0.00     0.213 C 
ENDBRANCH  28  30
ENDBRANCH  10  28
TORSDOF 6
ENDMDL
MODEL 8
REMARK VINA RESULT:      -7.3     12.200     14.930
REMARK  6 active torsions:
REMARK  status: ('A' for Active; 'I' for Inactive)
REMARK    1  A    between atoms: C_7  and  S_8 
REMARK    2  A    between atoms: S_8  and  C_9 
REMARK    3  A    between atoms: C_9  and  C_10 
REMARK    4  A    between atoms: C_18  and  C_19 
REMARK    5  A    between atoms: C_26  and  C_27 
REMARK    6  A    between atoms: C_27  and  O_28 
ROOT
HETATM    1  C   UNL     1      28.658  53.223  37.721  1.00  0.00     0.070 C 
HETATM    2  C   UNL     1      28.398  52.138  38.736  1.00  0.00     0.037 A 
HETATM    3  N   UNL     1      27.300  51.326  38.477  1.00  0.00    -0.192 N 
HETATM    4  C   UNL     1      26.904  50.330  39.291  1.00  0.00     0.726 A 
HETATM    5  N   UNL     1      27.596  50.089  40.444  1.00  0.00    -0.082 N 
HETATM    6  N   UNL     1      27.032  49.088  41.155  1.00  0.00    -0.128 NA
HETATM    7  C   UNL     1      26.042  48.722  40.328  1.00  0.00     0.226 A 
HETATM    8  N   UNL     1      25.925  49.474  39.184  1.00  0.00    -0.035 NA
HETATM    9  C   UNL     1      28.793  50.836  40.856  1.00  0.00     0.203 A 
HETATM   10  C   UNL     1      29.134  51.934  39.857  1.00  0.00     0.070 A 
HETATM   11  H   UNL     1      26.775  51.496  37.622  1.00  0.00     0.184 HD
ENDROOT
BRANCH   7  12
HETATM   12  S   UNL     1      25.000  47.358  40.618  1.00  0.00    -0.083 SA
BRANCH  12  13
HETATM   13  C   UNL     1      25.227  46.390  39.103  1.00  0.00     0.123 C 
BRANCH  13  14
HETATM   14  C   UNL     1      26.692  46.105  38.851  1.00  0.00    -0.027 A 
HETATM   15  C   UNL     1      27.328  46.390  37.631  1.00  0.00     0.041 A 
HETATM   16 CL   UNL     1      26.474  47.057  36.286  1.00  0.00    -0.084 Cl
HETATM   17  C   UNL     1      28.694  46.136  37.467  1.00  0.00     0.024 A 
HETATM   18  C   UNL     1      29.442  45.597  38.513  1.00  0.00     0.002 A 
HETATM   19  C   UNL     1      28.827  45.311  39.728  1.00  0.00     0.001 A 
HETATM   20  C   UNL     1      27.465  45.567  39.897  1.00  0.00     0.009 A 
ENDBRANCH  13  14
ENDBRANCH  12  13
ENDBRANCH   7  12
BRANCH   9  21
HETATM   21  C   UNL     1      29.957  49.875  41.096  1.00  0.00    -0.028 A 
HETATM   22  C   UNL     1      30.402  48.993  40.094  1.00  0.00     0.011 A 
HETATM   23  C   UNL     1      31.476  48.132  40.331  1.00  0.00     0.024 A 
HETATM   24  C   UNL     1      32.118  48.147  41.566  1.00  0.00     0.034 A 
HETATM   25 CL   UNL     1      33.441  47.086  41.857  1.00  0.00    -0.084 Cl
HETATM   26  C   UNL     1      31.696  49.016  42.569  1.00  0.00     0.024 A 
HETATM   27  C   UNL     1      30.620  49.876  42.336  1.00  0.00     0.011 A 
ENDBRANCH   9  21
BRANCH  10  28
HETATM   28  C   UNL     1      30.341  52.737  40.141  1.00  0.00     0.293 C 
HETATM   29  O   UNL     1      30.382  53.657  40.943  1.00  0.00    -0.259 OA
BRANCH  28  30
HETATM   30  O   UNL     1      31.370  52.289  39.381  1.00  0.00    -0.323 OA
HETATM   31  C   UNL     1      32.614  52.235  40.084  1.00  0.00     0.213 C 
ENDBRANCH  28  30
ENDBRANCH  10  28
TORSDOF 6
ENDMDL
MODEL 9
REMARK VINA RESULT:      -7.3     14.346     16.007
REMARK  6 active torsions:
REMARK  status: ('A' for Active; 'I' for Inactive)
REMARK    1  A    between atoms: C_7  and  S_8 
REMARK    2  A    between atoms: S_8  and  C_9 
REMARK    3  A    between atoms: C_9  and  C_10 
REMARK    4  A    between atoms: C_18  and  C_19 
REMARK    5  A    between atoms: C_26  and  C_27 
REMARK    6  A    between atoms: C_27  and  O_28 
ROOT
HETATM    1  C   UNL     1      20.631  51.284  48.425  1.00  0.00     0.070 C 
HETATM    2  C   UNL     1      19.143  51.272  48.674  1.00  0.00     0.037 A 
HETATM    3  N   UNL     1      18.622  52.425  49.249  1.00  0.00    -0.192 N 
HETATM    4  C   UNL     1      17.323  52.575  49.567  1.00  0.00     0.726 A 
HETATM    5  N   UNL     1      16.451  51.551  49.330  1.00  0.00    -0.082 N 
HETATM    6  N   UNL     1      15.205  51.859  49.753  1.00  0.00    -0.128 NA
HETATM    7  C   UNL     1      15.388  53.121  50.167  1.00  0.00     0.226 A 
HETATM    8  N   UNL     1      16.678  53.585  50.084  1.00  0.00    -0.035 NA
HETATM    9  C   UNL     1      16.831  50.275  48.707  1.00  0.00     0.203 A 
HETATM   10  C   UNL     1      18.322  50.229  48.399  1.00  0.00     0.070 A 
HETATM   11  H   UNL     1      19.262  53.195  49.432  1.00  0.00     0.184 HD
ENDROOT
BRANCH   7  12
HETATM   12  S   UNL     1      14.097  54.149  50.720  1.00  0.00    -0.083 SA
BRANCH  12  13
HETATM   13  C   UNL     1      14.691  55.788  50.222  1.00  0.00     0.123 C 
BRANCH  13  14
HETATM   14  C   UNL     1      14.971  56.658  51.428  1.00  0.00    -0.027 A 
HETATM   15  C   UNL     1      14.948  58.061  51.380  1.00  0.00     0.041 A 
HETATM   16 CL   UNL     1      14.637  58.924  49.916  1.00  0.00    -0.084 Cl
HETATM   17  C   UNL     1      15.180  58.815  52.536  1.00  0.00     0.024 A 
HETATM   18  C   UNL     1      15.439  58.181  53.751  1.00  0.00     0.002 A 
HETATM   19  C   UNL     1      15.464  56.791  53.815  1.00  0.00     0.001 A 
HETATM   20  C   UNL     1      15.228  56.036  52.664  1.00  0.00     0.009 A 
ENDBRANCH  13  14
ENDBRANCH  12  13
ENDBRANCH   7  12
BRANCH   9  21
HETATM   21  C   UNL     1      15.965  50.014  47.474  1.00  0.00    -0.028 A 
HETATM   22  C   UNL     1      15.182  48.851  47.357  1.00  0.00     0.011 A 
HETATM   23  C   UNL     1      14.388  48.640  46.227  1.00  0.00     0.024 A 
HETATM   24  C   UNL     1      14.365  49.589  45.208  1.00  0.00     0.034 A 
HETATM   25 CL   UNL     1      13.387  49.328  43.817  1.00  0.00    -0.084 Cl
HETATM   26  C   UNL     1      15.129  50.749  45.307  1.00  0.00     0.024 A 
HETATM   27  C   UNL     1      15.926  50.961  46.434  1.00  0.00     0.011 A 
ENDBRANCH   9  21
BRANCH  10  28
HETATM   28  C   UNL     1      18.823  49.007  47.736  1.00  0.00     0.293 C 
HETATM   29  O   UNL     1      19.092  48.931  46.549  1.00  0.00    -0.259 OA
BRANCH  28  30
HETATM   30  O   UNL     1      18.933  48.011  48.649  1.00  0.00    -0.323 OA
HETATM   31  C   UNL     1      20.254  47.472  48.747  1.00  0.00     0.213 C 
ENDBRANCH  28  30
ENDBRANCH  10  28
TORSDOF 6
ENDMDL
MODEL 10
REMARK VINA RESULT:      -7.3     10.126     13.149
REMARK  6 active torsions:
REMARK  status: ('A' for Active; 'I' for Inactive)
REMARK    1  A    between atoms: C_7  and  S_8 
REMARK    2  A    between atoms: S_8  and  C_9 
REMARK    3  A    between atoms: C_9  and  C_10 
REMARK    4  A    between atoms: C_18  and  C_19 
REMARK    5  A    between atoms: C_26  and  C_27 
REMARK    6  A    between atoms: C_27  and  O_28 
ROOT
HETATM    1  C   UNL     1      24.438  47.440  49.972  1.00  0.00     0.070 C 
HETATM    2  C   UNL     1      23.157  47.572  49.186  1.00  0.00     0.037 A 
HETATM    3  N   UNL     1      22.419  46.403  49.042  1.00  0.00    -0.192 N 
HETATM    4  C   UNL     1      21.269  46.331  48.348  1.00  0.00     0.726 A 
HETATM    5  N   UNL     1      20.784  47.451  47.734  1.00  0.00    -0.082 N 
HETATM    6  N   UNL     1      19.651  47.183  47.048  1.00  0.00    -0.128 NA
HETATM    7  C   UNL     1      19.472  45.891  47.358  1.00  0.00     0.226 A 
HETATM    8  N   UNL     1      20.455  45.332  48.139  1.00  0.00    -0.035 NA
HETATM    9  C   UNL     1      21.426  48.771  47.805  1.00  0.00     0.203 A 
HETATM   10  C   UNL     1      22.716  48.719  48.613  1.00  0.00     0.070 A 
HETATM   11  H   UNL     1      22.771  45.562  49.494  1.00  0.00     0.184 HD
ENDROOT
BRANCH   7  12
HETATM   12  S   UNL     1      18.076  44.969  46.875  1.00  0.00    -0.083 SA
BRANCH  12  13
HETATM   13  C   UNL     1      17.975  45.351  45.106  1.00  0.00     0.123 C 
BRANCH  13  14
HETATM   14  C   UNL     1      16.548  45.629  44.687  1.00  0.00    -0.027 A 
HETATM   15  C   UNL     1      15.950  46.895  44.799  1.00  0.00     0.041 A 
HETATM   16 CL   UNL     1      16.788  48.248  45.473  1.00  0.00    -0.084 Cl
HETATM   17  C   UNL     1      14.637  47.101  44.363  1.00  0.00     0.024 A 
HETATM   18  C   UNL     1      13.904  46.051  43.811  1.00  0.00     0.002 A 
HETATM   19  C   UNL     1      14.483  44.791  43.691  1.00  0.00     0.001 A 
HETATM   20  C   UNL     1      15.795  44.582  44.121  1.00  0.00     0.009 A 
ENDBRANCH  13  14
ENDBRANCH  12  13
ENDBRANCH   7  12
BRANCH   9  21
HETATM   21  C   UNL     1      20.436  49.808  48.338  1.00  0.00    -0.028 A 
HETATM   22  C   UNL     1      20.105  50.958  47.598  1.00  0.00     0.011 A 
HETATM   23  C   UNL     1      19.189  51.886  48.098  1.00  0.00     0.024 A 
HETATM   24  C   UNL     1      18.591  51.672  49.338  1.00  0.00     0.034 A 
HETATM   25 CL   UNL     1      17.463  52.815  49.953  1.00  0.00    -0.084 Cl
HETATM   26  C   UNL     1      18.902  50.538  50.083  1.00  0.00     0.024 A 
HETATM   27  C   UNL     1      19.821  49.610  49.587  1.00  0.00     0.011 A 
ENDBRANCH   9  21
BRANCH  10  28
HETATM   28  C   UNL     1      23.439  49.995  48.788  1.00  0.00     0.293 C 
HETATM   29  O   UNL     1      23.343  50.711  49.772  1.00  0.00    -0.259 OA
BRANCH  28  30
HETATM   30  O   UNL     1      24.209  50.231  47.698  1.00  0.00    -0.323 OA
HETATM   31  C   UNL     1      25.611  50.123  47.958  1.00  0.00     0.213 C 
ENDBRANCH  28  30
ENDBRANCH  10  28
TORSDOF 6
ENDMDL
