MODEL 1
REMARK VINA RESULT:      -9.1      0.000      0.000
REMARK  9 active torsions:
REMARK  status: ('A' for Active; 'I' for Inactive)
REMARK    1  A    between atoms: C_2  and  C_3 
REMARK    2  A    between atoms: C_4  and  N_5 
REMARK    3  A    between atoms: C_6  and  S_7 
REMARK    4  A    between atoms: S_7  and  C_8 
REMARK    5  A    between atoms: C_8  and  C_9 
REMARK       I    between atoms: C_9  and  N_10 
REMARK    6  A    between atoms: N_10  and  C_11 
REMARK    7  A    between atoms: C_12  and  O_13 
REMARK    8  A    between atoms: C_16  and  O_17 
REMARK    9  A    between atoms: C_26  and  N_27 
ROOT
HETATM    1  N   UNL     1      26.762  42.998  51.285  1.00  0.00    -0.275 N 
HETATM    2  C   UNL     1      26.610  43.803  50.125  1.00  0.00     0.177 A 
HETATM    3  N   UNL     1      26.617  43.372  48.886  1.00  0.00    -0.204 NA
HETATM    4  C   UNL     1      26.701  42.026  48.779  1.00  0.00     0.162 A 
HETATM    5  C   UNL     1      26.833  41.084  49.765  1.00  0.00     0.081 A 
HETATM    6  C   UNL     1      26.923  41.563  51.111  1.00  0.00     0.124 A 
HETATM    7  N   UNL     1      26.585  41.313  47.621  1.00  0.00    -0.260 N 
HETATM    8  H   UNL     1      26.429  41.665  46.683  1.00  0.00     0.191 HD
HETATM    9  N   UNL     1      26.667  39.978  47.811  1.00  0.00    -0.177 NA
HETATM   10  C   UNL     1      26.790  39.831  49.140  1.00  0.00     0.068 A 
HETATM   11  C   UNL     1      26.830  38.469  49.722  1.00  0.00     0.073 C 
ENDROOT
BRANCH   2  12
HETATM   12  S   UNL     1      26.320  45.543  50.314  1.00  0.00    -0.082 SA
BRANCH  12  13
HETATM   13  C   UNL     1      24.720  45.738  49.496  1.00  0.00     0.185 C 
BRANCH  13  14
HETATM   14  C   UNL     1      24.149  47.131  49.717  1.00  0.00     0.232 C 
HETATM   15  N   UNL     1      23.210  47.489  48.763  1.00  0.00    -0.324 N 
HETATM   16  H   UNL     1      23.140  46.877  47.959  1.00  0.00     0.169 HD
HETATM   17  O   UNL     1      24.592  47.854  50.606  1.00  0.00    -0.272 OA
BRANCH  15  18
HETATM   18  C   UNL     1      22.489  48.702  48.704  1.00  0.00     0.070 A 
HETATM   19  C   UNL     1      22.851  49.806  47.909  1.00  0.00     0.097 A 
HETATM   20  C   UNL     1      22.019  50.937  47.879  1.00  0.00     0.077 A 
HETATM   21  C   UNL     1      20.852  50.990  48.651  1.00  0.00     0.092 A 
HETATM   22  C   UNL     1      20.554  49.924  49.506  1.00  0.00     0.069 A 
HETATM   23 CL   UNL     1      19.166  49.952  50.536  1.00  0.00    -0.081 Cl
HETATM   24  C   UNL     1      21.367  48.791  49.536  1.00  0.00     0.059 A 
BRANCH  19  25
HETATM   25  O   UNL     1      24.090  49.776  47.326  1.00  0.00    -0.354 OA
HETATM   26  C   UNL     1      25.186  50.283  48.073  1.00  0.00     0.210 C 
ENDBRANCH  19  25
BRANCH  21  27
HETATM   27  O   UNL     1      20.014  52.074  48.673  1.00  0.00    -0.354 OA
HETATM   28  C   UNL     1      18.872  51.992  47.826  1.00  0.00     0.210 C 
ENDBRANCH  21  27
ENDBRANCH  15  18
ENDBRANCH  13  14
ENDBRANCH  12  13
ENDBRANCH   2  12
BRANCH   1  29
HETATM   29  C   UNL     1      26.858  43.573  52.590  1.00  0.00     0.049 A 
HETATM   30  C   UNL     1      28.109  43.872  53.176  1.00  0.00    -0.031 A 
HETATM   31  C   UNL     1      28.132  44.533  54.417  1.00  0.00     0.009 A 
HETATM   32  C   UNL     1      26.950  44.880  55.071  1.00  0.00     0.001 A 
HETATM   33  C   UNL     1      25.721  44.579  54.496  1.00  0.00     0.002 A 
HETATM   34  C   UNL     1      25.674  43.937  53.259  1.00  0.00     0.031 A 
BRANCH  30  35
HETATM   35  C   UNL     1      29.428  43.491  52.537  1.00  0.00     0.036 C 
HETATM   36  C   UNL     1      30.354  42.751  53.492  1.00  0.00     0.010 C 
ENDBRANCH  30  35
ENDBRANCH   1  29
BRANCH   6  37
HETATM   37  N   UNL     1      27.166  40.743  52.116  1.00  0.00    -0.384 N 
HETATM   38  H   UNL     1      26.425  40.285  52.626  1.00  0.00     0.157 HD
HETATM   39  H   UNL     1      28.124  40.542  52.377  1.00  0.00     0.157 HD
ENDBRANCH   6  37
TORSDOF 9
ENDMDL
MODEL 2
REMARK VINA RESULT:      -8.8     11.547     14.326
REMARK  9 active torsions:
REMARK  status: ('A' for Active; 'I' for Inactive)
REMARK    1  A    between atoms: C_2  and  C_3 
REMARK    2  A    between atoms: C_4  and  N_5 
REMARK    3  A    between atoms: C_6  and  S_7 
REMARK    4  A    between atoms: S_7  and  C_8 
REMARK    5  A    between atoms: C_8  and  C_9 
REMARK       I    between atoms: C_9  and  N_10 
REMARK    6  A    between atoms: N_10  and  C_11 
REMARK    7  A    between atoms: C_12  and  O_13 
REMARK    8  A    between atoms: C_16  and  O_17 
REMARK    9  A    between atoms: C_26  and  N_27 
ROOT
HETATM    1  N   UNL     1      28.349  49.306  39.862  1.00  0.00    -0.275 N 
HETATM    2  C   UNL     1      28.403  50.281  38.830  1.00  0.00     0.177 A 
HETATM    3  N   UNL     1      27.394  50.662  38.083  1.00  0.00    -0.204 NA
HETATM    4  C   UNL     1      26.215  50.098  38.432  1.00  0.00     0.162 A 
HETATM    5  C   UNL     1      25.953  49.164  39.399  1.00  0.00     0.081 A 
HETATM    6  C   UNL     1      27.071  48.676  40.149  1.00  0.00     0.124 A 
HETATM    7  N   UNL     1      24.995  50.427  37.916  1.00  0.00    -0.260 N 
HETATM    8  H   UNL     1      24.781  51.119  37.207  1.00  0.00     0.191 HD
HETATM    9  N   UNL     1      23.980  49.734  38.478  1.00  0.00    -0.177 NA
HETATM   10  C   UNL     1      24.565  48.974  39.416  1.00  0.00     0.068 A 
HETATM   11  C   UNL     1      23.726  48.125  40.295  1.00  0.00     0.073 C 
ENDROOT
BRANCH   2  12
HETATM   12  S   UNL     1      29.930  51.130  38.523  1.00  0.00    -0.082 SA
BRANCH  12  13
HETATM   13  C   UNL     1      29.860  52.460  39.746  1.00  0.00     0.185 C 
BRANCH  13  14
HETATM   14  C   UNL     1      31.233  52.748  40.334  1.00  0.00     0.232 C 
HETATM   15  N   UNL     1      32.037  51.622  40.408  1.00  0.00    -0.324 N 
HETATM   16  H   UNL     1      31.578  50.737  40.231  1.00  0.00     0.169 HD
HETATM   17  O   UNL     1      31.503  53.862  40.776  1.00  0.00    -0.272 OA
BRANCH  15  18
HETATM   18  C   UNL     1      33.365  51.565  40.886  1.00  0.00     0.070 A 
HETATM   19  C   UNL     1      33.724  51.583  42.247  1.00  0.00     0.097 A 
HETATM   20  C   UNL     1      35.075  51.453  42.607  1.00  0.00     0.077 A 
HETATM   21  C   UNL     1      36.069  51.334  41.629  1.00  0.00     0.092 A 
HETATM   22  C   UNL     1      35.708  51.411  40.280  1.00  0.00     0.069 A 
HETATM   23 CL   UNL     1      36.892  51.338  39.022  1.00  0.00    -0.081 Cl
HETATM   24  C   UNL     1      34.368  51.529  39.910  1.00  0.00     0.059 A 
BRANCH  19  25
HETATM   25  O   UNL     1      32.738  51.889  43.148  1.00  0.00    -0.354 OA
HETATM   26  C   UNL     1      33.098  51.970  44.520  1.00  0.00     0.210 C 
ENDBRANCH  19  25
BRANCH  21  27
HETATM   27  O   UNL     1      37.403  51.222  41.923  1.00  0.00    -0.354 OA
HETATM   28  C   UNL     1      37.773  51.549  43.259  1.00  0.00     0.210 C 
ENDBRANCH  21  27
ENDBRANCH  15  18
ENDBRANCH  13  14
ENDBRANCH  12  13
ENDBRANCH   2  12
BRANCH   1  29
HETATM   29  C   UNL     1      29.527  48.872  40.545  1.00  0.00     0.049 A 
HETATM   30  C   UNL     1      30.456  47.999  39.934  1.00  0.00    -0.031 A 
HETATM   31  C   UNL     1      31.646  47.693  40.618  1.00  0.00     0.009 A 
HETATM   32  C   UNL     1      31.909  48.225  41.881  1.00  0.00     0.001 A 
HETATM   33  C   UNL     1      30.991  49.077  42.483  1.00  0.00     0.002 A 
HETATM   34  C   UNL     1      29.811  49.406  41.816  1.00  0.00     0.031 A 
BRANCH  30  35
HETATM   35  C   UNL     1      30.217  47.359  38.582  1.00  0.00     0.036 C 
HETATM   36  C   UNL     1      29.473  46.035  38.680  1.00  0.00     0.010 C 
ENDBRANCH  30  35
ENDBRANCH   1  29
BRANCH   6  37
HETATM   37  N   UNL     1      26.936  47.695  41.020  1.00  0.00    -0.384 N 
HETATM   38  H   UNL     1      27.563  46.904  41.039  1.00  0.00     0.157 HD
HETATM   39  H   UNL     1      26.197  47.740  41.713  1.00  0.00     0.157 HD
ENDBRANCH   6  37
TORSDOF 9
ENDMDL
MODEL 3
REMARK VINA RESULT:      -8.7      3.957      9.133
REMARK  9 active torsions:
REMARK  status: ('A' for Active; 'I' for Inactive)
REMARK    1  A    between atoms: C_2  and  C_3 
REMARK    2  A    between atoms: C_4  and  N_5 
REMARK    3  A    between atoms: C_6  and  S_7 
REMARK    4  A    between atoms: S_7  and  C_8 
REMARK    5  A    between atoms: C_8  and  C_9 
REMARK       I    between atoms: C_9  and  N_10 
REMARK    6  A    between atoms: N_10  and  C_11 
REMARK    7  A    between atoms: C_12  and  O_13 
REMARK    8  A    between atoms: C_16  and  O_17 
REMARK    9  A    between atoms: C_26  and  N_27 
ROOT
HETATM    1  N   UNL     1      20.266  48.843  47.684  1.00  0.00    -0.275 N 
HETATM    2  C   UNL     1      21.558  48.428  48.105  1.00  0.00     0.177 A 
HETATM    3  N   UNL     1      22.189  47.354  47.694  1.00  0.00    -0.204 NA
HETATM    4  C   UNL     1      21.532  46.672  46.728  1.00  0.00     0.162 A 
HETATM    5  C   UNL     1      20.302  46.917  46.178  1.00  0.00     0.081 A 
HETATM    6  C   UNL     1      19.570  48.033  46.697  1.00  0.00     0.124 A 
HETATM    7  N   UNL     1      22.027  45.609  46.030  1.00  0.00    -0.260 N 
HETATM    8  H   UNL     1      22.935  45.168  46.124  1.00  0.00     0.191 HD
HETATM    9  N   UNL     1      21.171  45.147  45.093  1.00  0.00    -0.177 NA
HETATM   10  C   UNL     1      20.115  45.972  45.161  1.00  0.00     0.068 A 
HETATM   11  C   UNL     1      18.995  45.804  44.205  1.00  0.00     0.073 C 
ENDROOT
BRANCH   2  12
HETATM   12  S   UNL     1      22.465  49.447  49.239  1.00  0.00    -0.082 SA
BRANCH  12  13
HETATM   13  C   UNL     1      24.131  49.375  48.542  1.00  0.00     0.185 C 
BRANCH  13  14
HETATM   14  C   UNL     1      25.011  48.397  49.307  1.00  0.00     0.232 C 
HETATM   15  N   UNL     1      24.298  47.600  50.188  1.00  0.00    -0.324 N 
HETATM   16  H   UNL     1      23.333  47.867  50.344  1.00  0.00     0.169 HD
HETATM   17  O   UNL     1      26.234  48.432  49.188  1.00  0.00    -0.272 OA
BRANCH  15  18
HETATM   18  C   UNL     1      24.822  46.588  51.022  1.00  0.00     0.070 A 
HETATM   19  C   UNL     1      24.634  45.209  50.815  1.00  0.00     0.097 A 
HETATM   20  C   UNL     1      25.261  44.290  51.672  1.00  0.00     0.077 A 
HETATM   21  C   UNL     1      26.044  44.731  52.745  1.00  0.00     0.092 A 
HETATM   22  C   UNL     1      26.146  46.103  52.994  1.00  0.00     0.069 A 
HETATM   23 CL   UNL     1      27.042  46.714  54.341  1.00  0.00    -0.081 Cl
HETATM   24  C   UNL     1      25.538  47.025  52.142  1.00  0.00     0.059 A 
BRANCH  19  25
HETATM   25  O   UNL     1      23.712  44.839  49.871  1.00  0.00    -0.354 OA
HETATM   26  C   UNL     1      24.193  44.255  48.669  1.00  0.00     0.210 C 
ENDBRANCH  19  25
BRANCH  21  27
HETATM   27  O   UNL     1      26.664  43.879  53.623  1.00  0.00    -0.354 OA
HETATM   28  C   UNL     1      27.875  43.288  53.162  1.00  0.00     0.210 C 
ENDBRANCH  21  27
ENDBRANCH  15  18
ENDBRANCH  13  14
ENDBRANCH  12  13
ENDBRANCH   2  12
BRANCH   1  29
HETATM   29  C   UNL     1      19.610  49.966  48.275  1.00  0.00     0.049 A 
HETATM   30  C   UNL     1      18.806  49.829  49.429  1.00  0.00    -0.031 A 
HETATM   31  C   UNL     1      18.273  50.987  50.023  1.00  0.00     0.009 A 
HETATM   32  C   UNL     1      18.518  52.251  49.485  1.00  0.00     0.001 A 
HETATM   33  C   UNL     1      19.304  52.383  48.346  1.00  0.00     0.002 A 
HETATM   34  C   UNL     1      19.854  51.249  47.749  1.00  0.00     0.031 A 
BRANCH  30  35
HETATM   35  C   UNL     1      18.471  48.486  50.044  1.00  0.00     0.036 C 
HETATM   36  C   UNL     1      18.566  48.492  51.563  1.00  0.00     0.010 C 
ENDBRANCH  30  35
ENDBRANCH   1  29
BRANCH   6  37
HETATM   37  N   UNL     1      18.333  48.281  46.313  1.00  0.00    -0.384 N 
HETATM   38  H   UNL     1      17.604  47.584  46.368  1.00  0.00     0.157 HD
HETATM   39  H   UNL     1      18.091  49.204  45.970  1.00  0.00     0.157 HD
ENDBRANCH   6  37
TORSDOF 9
ENDMDL
MODEL 4
REMARK VINA RESULT:      -8.5      4.002      9.522
REMARK  9 active torsions:
REMARK  status: ('A' for Active; 'I' for Inactive)
REMARK    1  A    between atoms: C_2  and  C_3 
REMARK    2  A    between atoms: C_4  and  N_5 
REMARK    3  A    between atoms: C_6  and  S_7 
REMARK    4  A    between atoms: S_7  and  C_8 
REMARK    5  A    between atoms: C_8  and  C_9 
REMARK       I    between atoms: C_9  and  N_10 
REMARK    6  A    between atoms: N_10  and  C_11 
REMARK    7  A    between atoms: C_12  and  O_13 
REMARK    8  A    between atoms: C_16  and  O_17 
REMARK    9  A    between atoms: C_26  and  N_27 
ROOT
HETATM    1  N   UNL     1      20.814  47.116  47.174  1.00  0.00    -0.275 N 
HETATM    2  C   UNL     1      22.025  46.630  47.736  1.00  0.00     0.177 A 
HETATM    3  N   UNL     1      22.832  47.306  48.520  1.00  0.00    -0.204 NA
HETATM    4  C   UNL     1      22.371  48.536  48.844  1.00  0.00     0.162 A 
HETATM    5  C   UNL     1      21.233  49.173  48.429  1.00  0.00     0.081 A 
HETATM    6  C   UNL     1      20.401  48.473  47.496  1.00  0.00     0.124 A 
HETATM    7  N   UNL     1      22.940  49.382  49.751  1.00  0.00    -0.260 N 
HETATM    8  H   UNL     1      23.776  49.235  50.306  1.00  0.00     0.191 HD
HETATM    9  N   UNL     1      22.246  50.530  49.911  1.00  0.00    -0.177 NA
HETATM   10  C   UNL     1      21.173  50.392  49.117  1.00  0.00     0.068 A 
HETATM   11  C   UNL     1      20.136  51.450  49.101  1.00  0.00     0.073 C 
ENDROOT
BRANCH   2  12
HETATM   12  S   UNL     1      22.504  44.949  47.432  1.00  0.00    -0.082 SA
BRANCH  12  13
HETATM   13  C   UNL     1      22.496  44.260  49.104  1.00  0.00     0.185 C 
BRANCH  13  14
HETATM   14  C   UNL     1      23.847  44.435  49.783  1.00  0.00     0.232 C 
HETATM   15  N   UNL     1      23.761  45.105  50.994  1.00  0.00    -0.324 N 
HETATM   16  H   UNL     1      22.868  45.537  51.199  1.00  0.00     0.169 HD
HETATM   17  O   UNL     1      24.881  44.092  49.216  1.00  0.00    -0.272 OA
BRANCH  15  18
HETATM   18  C   UNL     1      24.829  45.404  51.868  1.00  0.00     0.070 A 
HETATM   19  C   UNL     1      25.451  46.663  51.963  1.00  0.00     0.097 A 
HETATM   20  C   UNL     1      26.461  46.864  52.919  1.00  0.00     0.077 A 
HETATM   21  C   UNL     1      26.873  45.821  53.756  1.00  0.00     0.092 A 
HETATM   22  C   UNL     1      26.311  44.552  53.587  1.00  0.00     0.069 A 
HETATM   23 CL   UNL     1      26.822  43.203  54.541  1.00  0.00    -0.081 Cl
HETATM   24  C   UNL     1      25.300  44.343  52.649  1.00  0.00     0.059 A 
BRANCH  19  25
HETATM   25  O   UNL     1      25.142  47.587  51.000  1.00  0.00    -0.354 OA
HETATM   26  C   UNL     1      26.056  47.753  49.925  1.00  0.00     0.210 C 
ENDBRANCH  19  25
BRANCH  21  27
HETATM   27  O   UNL     1      27.865  45.956  54.693  1.00  0.00    -0.354 OA
HETATM   28  C   UNL     1      27.722  47.051  55.592  1.00  0.00     0.210 C 
ENDBRANCH  21  27
ENDBRANCH  15  18
ENDBRANCH  13  14
ENDBRANCH  12  13
ENDBRANCH   2  12
BRANCH   1  29
HETATM   29  C   UNL     1      20.060  46.345  46.237  1.00  0.00     0.049 A 
HETATM   30  C   UNL     1      18.912  45.621  46.631  1.00  0.00    -0.031 A 
HETATM   31  C   UNL     1      18.154  44.968  45.642  1.00  0.00     0.009 A 
HETATM   32  C   UNL     1      18.525  45.018  44.298  1.00  0.00     0.001 A 
HETATM   33  C   UNL     1      19.659  45.725  43.915  1.00  0.00     0.002 A 
HETATM   34  C   UNL     1      20.417  46.392  44.876  1.00  0.00     0.031 A 
BRANCH  30  35
HETATM   35  C   UNL     1      18.473  45.496  48.075  1.00  0.00     0.036 C 
HETATM   36  C   UNL     1      17.232  46.319  48.387  1.00  0.00     0.010 C 
ENDBRANCH  30  35
ENDBRANCH   1  29
BRANCH   6  37
HETATM   37  N   UNL     1      19.346  49.047  46.952  1.00  0.00    -0.384 N 
HETATM   38  H   UNL     1      19.420  49.649  46.145  1.00  0.00     0.157 HD
HETATM   39  H   UNL     1      18.425  48.867  47.335  1.00  0.00     0.157 HD
ENDBRANCH   6  37
TORSDOF 9
ENDMDL
MODEL 5
REMARK VINA RESULT:      -8.5      3.698      9.267
REMARK  9 active torsions:
REMARK  status: ('A' for Active; 'I' for Inactive)
REMARK    1  A    between atoms: C_2  and  C_3 
REMARK    2  A    between atoms: C_4  and  N_5 
REMARK    3  A    between atoms: C_6  and  S_7 
REMARK    4  A    between atoms: S_7  and  C_8 
REMARK    5  A    between atoms: C_8  and  C_9 
REMARK       I    between atoms: C_9  and  N_10 
REMARK    6  A    between atoms: N_10  and  C_11 
REMARK    7  A    between atoms: C_12  and  O_13 
REMARK    8  A    between atoms: C_16  and  O_17 
REMARK    9  A    between atoms: C_26  and  N_27 
ROOT
HETATM    1  N   UNL     1      20.671  48.245  47.429  1.00  0.00    -0.275 N 
HETATM    2  C   UNL     1      21.843  47.523  47.778  1.00  0.00     0.177 A 
HETATM    3  N   UNL     1      22.264  46.421  47.204  1.00  0.00    -0.204 NA
HETATM    4  C   UNL     1      21.514  46.038  46.145  1.00  0.00     0.162 A 
HETATM    5  C   UNL     1      20.373  46.603  45.642  1.00  0.00     0.081 A 
HETATM    6  C   UNL     1      19.858  47.750  46.329  1.00  0.00     0.124 A 
HETATM    7  N   UNL     1      21.812  45.017  45.290  1.00  0.00    -0.260 N 
HETATM    8  H   UNL     1      22.613  44.396  45.313  1.00  0.00     0.191 HD
HETATM    9  N   UNL     1      20.910  44.882  44.294  1.00  0.00    -0.177 NA
HETATM   10  C   UNL     1      20.034  45.880  44.490  1.00  0.00     0.068 A 
HETATM   11  C   UNL     1      18.931  46.085  43.522  1.00  0.00     0.073 C 
ENDROOT
BRANCH   2  12
HETATM   12  S   UNL     1      22.899  48.158  49.055  1.00  0.00    -0.082 SA
BRANCH  12  13
HETATM   13  C   UNL     1      23.871  46.696  49.485  1.00  0.00     0.185 C 
BRANCH  13  14
HETATM   14  C   UNL     1      24.922  47.017  50.538  1.00  0.00     0.232 C 
HETATM   15  N   UNL     1      24.941  46.103  51.580  1.00  0.00    -0.324 N 
HETATM   16  H   UNL     1      24.168  45.449  51.609  1.00  0.00     0.169 HD
HETATM   17  O   UNL     1      25.581  48.051  50.468  1.00  0.00    -0.272 OA
BRANCH  15  18
HETATM   18  C   UNL     1      25.809  46.114  52.694  1.00  0.00     0.070 A 
HETATM   19  C   UNL     1      26.736  45.098  52.991  1.00  0.00     0.097 A 
HETATM   20  C   UNL     1      27.597  45.249  54.090  1.00  0.00     0.077 A 
HETATM   21  C   UNL     1      27.524  46.383  54.908  1.00  0.00     0.092 A 
HETATM   22  C   UNL     1      26.536  47.340  54.656  1.00  0.00     0.069 A 
HETATM   23 CL   UNL     1      26.345  48.730  55.665  1.00  0.00    -0.081 Cl
HETATM   24  C   UNL     1      25.683  47.206  53.560  1.00  0.00     0.059 A 
BRANCH  19  25
HETATM   25  O   UNL     1      26.638  43.934  52.276  1.00  0.00    -0.354 OA
HETATM   26  C   UNL     1      27.557  43.732  51.211  1.00  0.00     0.210 C 
ENDBRANCH  19  25
BRANCH  21  27
HETATM   27  O   UNL     1      28.326  46.573  56.003  1.00  0.00    -0.354 OA
HETATM   28  C   UNL     1      29.586  45.909  55.971  1.00  0.00     0.210 C 
ENDBRANCH  21  27
ENDBRANCH  15  18
ENDBRANCH  13  14
ENDBRANCH  12  13
ENDBRANCH   2  12
BRANCH   1  29
HETATM   29  C   UNL     1      20.230  49.373  48.188  1.00  0.00     0.049 A 
HETATM   30  C   UNL     1      19.411  49.220  49.330  1.00  0.00    -0.031 A 
HETATM   31  C   UNL     1      19.099  50.359  50.094  1.00  0.00     0.009 A 
HETATM   32  C   UNL     1      19.573  51.621  49.734  1.00  0.00     0.001 A 
HETATM   33  C   UNL     1      20.373  51.769  48.607  1.00  0.00     0.002 A 
HETATM   34  C   UNL     1      20.707  50.652  47.842  1.00  0.00     0.031 A 
BRANCH  30  35
HETATM   35  C   UNL     1      18.834  47.887  49.756  1.00  0.00     0.036 C 
HETATM   36  C   UNL     1      17.399  47.688  49.288  1.00  0.00     0.010 C 
ENDBRANCH  30  35
ENDBRANCH   1  29
BRANCH   6  37
HETATM   37  N   UNL     1      18.706  48.293  45.990  1.00  0.00    -0.384 N 
HETATM   38  H   UNL     1      18.452  49.230  46.265  1.00  0.00     0.157 HD
HETATM   39  H   UNL     1      18.056  47.768  45.415  1.00  0.00     0.157 HD
ENDBRANCH   6  37
TORSDOF 9
ENDMDL
MODEL 6
REMARK VINA RESULT:      -8.4     12.208     14.593
REMARK  9 active torsions:
REMARK  status: ('A' for Active; 'I' for Inactive)
REMARK    1  A    between atoms: C_2  and  C_3 
REMARK    2  A    between atoms: C_4  and  N_5 
REMARK    3  A    between atoms: C_6  and  S_7 
REMARK    4  A    between atoms: S_7  and  C_8 
REMARK    5  A    between atoms: C_8  and  C_9 
REMARK       I    between atoms: C_9  and  N_10 
REMARK    6  A    between atoms: N_10  and  C_11 
REMARK    7  A    between atoms: C_12  and  O_13 
REMARK    8  A    between atoms: C_16  and  O_17 
REMARK    9  A    between atoms: C_26  and  N_27 
ROOT
HETATM    1  N   UNL     1      28.472  49.863  39.684  1.00  0.00    -0.275 N 
HETATM    2  C   UNL     1      29.054  48.694  39.126  1.00  0.00     0.177 A 
HETATM    3  N   UNL     1      28.397  47.663  38.651  1.00  0.00    -0.204 NA
HETATM    4  C   UNL     1      27.054  47.826  38.651  1.00  0.00     0.162 A 
HETATM    5  C   UNL     1      26.308  48.874  39.120  1.00  0.00     0.081 A 
HETATM    6  C   UNL     1      27.021  49.958  39.727  1.00  0.00     0.124 A 
HETATM    7  N   UNL     1      26.150  46.973  38.086  1.00  0.00    -0.260 N 
HETATM    8  H   UNL     1      26.332  46.104  37.595  1.00  0.00     0.191 HD
HETATM    9  N   UNL     1      24.875  47.405  38.196  1.00  0.00    -0.177 NA
HETATM   10  C   UNL     1      24.970  48.595  38.809  1.00  0.00     0.068 A 
HETATM   11  C   UNL     1      23.748  49.402  39.029  1.00  0.00     0.073 C 
ENDROOT
BRANCH   2  12
HETATM   12  S   UNL     1      30.819  48.595  38.978  1.00  0.00    -0.082 SA
BRANCH  12  13
HETATM   13  C   UNL     1      31.278  47.862  40.566  1.00  0.00     0.185 C 
BRANCH  13  14
HETATM   14  C   UNL     1      32.607  48.408  41.066  1.00  0.00     0.232 C 
HETATM   15  N   UNL     1      32.696  49.788  40.973  1.00  0.00    -0.324 N 
HETATM   16  H   UNL     1      31.963  50.244  40.444  1.00  0.00     0.169 HD
HETATM   17  O   UNL     1      33.508  47.644  41.405  1.00  0.00    -0.272 OA
BRANCH  15  18
HETATM   18  C   UNL     1      33.788  50.590  41.372  1.00  0.00     0.070 A 
HETATM   19  C   UNL     1      33.997  51.055  42.684  1.00  0.00     0.097 A 
HETATM   20  C   UNL     1      35.157  51.791  42.979  1.00  0.00     0.077 A 
HETATM   21  C   UNL     1      36.089  52.090  41.979  1.00  0.00     0.092 A 
HETATM   22  C   UNL     1      35.822  51.702  40.662  1.00  0.00     0.069 A 
HETATM   23 CL   UNL     1      36.898  52.096  39.367  1.00  0.00    -0.081 Cl
HETATM   24  C   UNL     1      34.680  50.961  40.359  1.00  0.00     0.059 A 
BRANCH  19  25
HETATM   25  O   UNL     1      32.968  50.897  43.574  1.00  0.00    -0.354 OA
HETATM   26  C   UNL     1      32.877  51.819  44.651  1.00  0.00     0.210 C 
ENDBRANCH  19  25
BRANCH  21  27
HETATM   27  O   UNL     1      37.228  52.819  42.206  1.00  0.00    -0.354 OA
HETATM   28  C   UNL     1      37.334  53.416  43.495  1.00  0.00     0.210 C 
ENDBRANCH  21  27
ENDBRANCH  15  18
ENDBRANCH  13  14
ENDBRANCH  12  13
ENDBRANCH   2  12
BRANCH   1  29
HETATM   29  C   UNL     1      29.271  50.886  40.282  1.00  0.00     0.049 A 
HETATM   30  C   UNL     1      29.735  51.993  39.535  1.00  0.00    -0.031 A 
HETATM   31  C   UNL     1      30.426  53.017  40.206  1.00  0.00     0.009 A 
HETATM   32  C   UNL     1      30.666  52.947  41.579  1.00  0.00     0.001 A 
HETATM   33  C   UNL     1      30.214  51.854  42.309  1.00  0.00     0.002 A 
HETATM   34  C   UNL     1      29.514  50.834  41.668  1.00  0.00     0.031 A 
BRANCH  30  35
HETATM   35  C   UNL     1      29.540  52.115  38.038  1.00  0.00     0.036 C 
HETATM   36  C   UNL     1      28.694  53.319  37.649  1.00  0.00     0.010 C 
ENDBRANCH  30  35
ENDBRANCH   1  29
BRANCH   6  37
HETATM   37  N   UNL     1      26.386  50.956  40.309  1.00  0.00    -0.384 N 
HETATM   38  H   UNL     1      25.752  50.812  41.080  1.00  0.00     0.157 HD
HETATM   39  H   UNL     1      26.552  51.906  39.994  1.00  0.00     0.157 HD
ENDBRANCH   6  37
TORSDOF 9
ENDMDL
MODEL 7
REMARK VINA RESULT:      -8.3      2.836      5.589
REMARK  9 active torsions:
REMARK  status: ('A' for Active; 'I' for Inactive)
REMARK    1  A    between atoms: C_2  and  C_3 
REMARK    2  A    between atoms: C_4  and  N_5 
REMARK    3  A    between atoms: C_6  and  S_7 
REMARK    4  A    between atoms: S_7  and  C_8 
REMARK    5  A    between atoms: C_8  and  C_9 
REMARK       I    between atoms: C_9  and  N_10 
REMARK    6  A    between atoms: N_10  and  C_11 
REMARK    7  A    between atoms: C_12  and  O_13 
REMARK    8  A    between atoms: C_16  and  O_17 
REMARK    9  A    between atoms: C_26  and  N_27 
ROOT
HETATM    1  N   UNL     1      26.880  40.355  49.969  1.00  0.00    -0.275 N 
HETATM    2  C   UNL     1      25.688  41.111  49.809  1.00  0.00     0.177 A 
HETATM    3  N   UNL     1      25.291  42.089  50.586  1.00  0.00    -0.204 NA
HETATM    4  C   UNL     1      26.177  42.407  51.558  1.00  0.00     0.162 A 
HETATM    5  C   UNL     1      27.376  41.820  51.862  1.00  0.00     0.081 A 
HETATM    6  C   UNL     1      27.765  40.689  51.074  1.00  0.00     0.124 A 
HETATM    7  N   UNL     1      26.077  43.471  52.406  1.00  0.00    -0.260 N 
HETATM    8  H   UNL     1      25.344  44.170  52.450  1.00  0.00     0.191 HD
HETATM    9  N   UNL     1      27.127  43.574  53.250  1.00  0.00    -0.177 NA
HETATM   10  C   UNL     1      27.947  42.573  52.897  1.00  0.00     0.068 A 
HETATM   11  C   UNL     1      29.256  42.428  53.576  1.00  0.00     0.073 C 
ENDROOT
BRANCH   2  12
HETATM   12  S   UNL     1      24.639  40.783  48.415  1.00  0.00    -0.082 SA
BRANCH  12  13
HETATM   13  C   UNL     1      23.204  41.818  48.788  1.00  0.00     0.185 C 
BRANCH  13  14
HETATM   14  C   UNL     1      23.421  43.253  48.333  1.00  0.00     0.232 C 
HETATM   15  N   UNL     1      23.317  44.170  49.367  1.00  0.00    -0.324 N 
HETATM   16  H   UNL     1      22.952  43.813  50.241  1.00  0.00     0.169 HD
HETATM   17  O   UNL     1      23.564  43.517  47.141  1.00  0.00    -0.272 OA
BRANCH  15  18
HETATM   18  C   UNL     1      23.484  45.570  49.272  1.00  0.00     0.070 A 
HETATM   19  C   UNL     1      22.516  46.455  48.762  1.00  0.00     0.097 A 
HETATM   20  C   UNL     1      22.766  47.837  48.779  1.00  0.00     0.077 A 
HETATM   21  C   UNL     1      23.976  48.340  49.270  1.00  0.00     0.092 A 
HETATM   22  C   UNL     1      24.966  47.444  49.687  1.00  0.00     0.069 A 
HETATM   23 CL   UNL     1      26.508  47.994  50.242  1.00  0.00    -0.081 Cl
HETATM   24  C   UNL     1      24.724  46.070  49.685  1.00  0.00     0.059 A 
BRANCH  19  25
HETATM   25  O   UNL     1      21.437  45.900  48.126  1.00  0.00    -0.354 OA
HETATM   26  C   UNL     1      20.142  46.228  48.611  1.00  0.00     0.210 C 
ENDBRANCH  19  25
BRANCH  21  27
HETATM   27  O   UNL     1      24.280  49.676  49.294  1.00  0.00    -0.354 OA
HETATM   28  C   UNL     1      24.781  50.220  48.077  1.00  0.00     0.210 C 
ENDBRANCH  21  27
ENDBRANCH  15  18
ENDBRANCH  13  14
ENDBRANCH  12  13
ENDBRANCH   2  12
BRANCH   1  29
HETATM   29  C   UNL     1      27.172  39.230  49.138  1.00  0.00     0.049 A 
HETATM   30  C   UNL     1      27.967  39.356  47.976  1.00  0.00    -0.031 A 
HETATM   31  C   UNL     1      28.304  38.193  47.260  1.00  0.00     0.009 A 
HETATM   32  C   UNL     1      27.859  36.937  47.673  1.00  0.00     0.001 A 
HETATM   33  C   UNL     1      27.072  36.817  48.812  1.00  0.00     0.002 A 
HETATM   34  C   UNL     1      26.737  37.955  49.546  1.00  0.00     0.031 A 
BRANCH  30  35
HETATM   35  C   UNL     1      28.453  40.691  47.452  1.00  0.00     0.036 C 
HETATM   36  C   UNL     1      27.997  40.967  46.026  1.00  0.00     0.010 C 
ENDBRANCH  30  35
ENDBRANCH   1  29
BRANCH   6  37
HETATM   37  N   UNL     1      28.843  39.989  51.364  1.00  0.00    -0.384 N 
HETATM   38  H   UNL     1      29.644  40.401  51.820  1.00  0.00     0.157 HD
HETATM   39  H   UNL     1      28.871  38.999  51.146  1.00  0.00     0.157 HD
ENDBRANCH   6  37
TORSDOF 9
ENDMDL
MODEL 8
REMARK VINA RESULT:      -8.3      3.954      9.169
REMARK  9 active torsions:
REMARK  status: ('A' for Active; 'I' for Inactive)
REMARK    1  A    between atoms: C_2  and  C_3 
REMARK    2  A    between atoms: C_4  and  N_5 
REMARK    3  A    between atoms: C_6  and  S_7 
REMARK    4  A    between atoms: S_7  and  C_8 
REMARK    5  A    between atoms: C_8  and  C_9 
REMARK       I    between atoms: C_9  and  N_10 
REMARK    6  A    between atoms: N_10  and  C_11 
REMARK    7  A    between atoms: C_12  and  O_13 
REMARK    8  A    between atoms: C_16  and  O_17 
REMARK    9  A    between atoms: C_26  and  N_27 
ROOT
HETATM    1  N   UNL     1      21.314  47.691  47.877  1.00  0.00    -0.275 N 
HETATM    2  C   UNL     1      22.411  46.852  48.209  1.00  0.00     0.177 A 
HETATM    3  N   UNL     1      22.746  45.746  47.589  1.00  0.00    -0.204 NA
HETATM    4  C   UNL     1      21.987  45.481  46.501  1.00  0.00     0.162 A 
HETATM    5  C   UNL     1      20.910  46.168  46.007  1.00  0.00     0.081 A 
HETATM    6  C   UNL     1      20.485  47.322  46.740  1.00  0.00     0.124 A 
HETATM    7  N   UNL     1      22.211  44.479  45.601  1.00  0.00    -0.260 N 
HETATM    8  H   UNL     1      22.954  43.789  45.606  1.00  0.00     0.191 HD
HETATM    9  N   UNL     1      21.321  44.472  44.585  1.00  0.00    -0.177 NA
HETATM   10  C   UNL     1      20.533  45.533  44.816  1.00  0.00     0.068 A 
HETATM   11  C   UNL     1      19.472  45.881  43.841  1.00  0.00     0.073 C 
ENDROOT
BRANCH   2  12
HETATM   12  S   UNL     1      23.492  47.329  49.533  1.00  0.00    -0.082 SA
BRANCH  12  13
HETATM   13  C   UNL     1      24.383  45.789  49.851  1.00  0.00     0.185 C 
BRANCH  13  14
HETATM   14  C   UNL     1      25.538  46.003  50.817  1.00  0.00     0.232 C 
HETATM   15  N   UNL     1      25.679  44.972  51.732  1.00  0.00    -0.324 N 
HETATM   16  H   UNL     1      24.920  44.302  51.763  1.00  0.00     0.169 HD
HETATM   17  O   UNL     1      26.177  47.053  50.804  1.00  0.00    -0.272 OA
BRANCH  15  18
HETATM   18  C   UNL     1      26.662  44.868  52.740  1.00  0.00     0.070 A 
HETATM   19  C   UNL     1      26.588  45.503  53.994  1.00  0.00     0.097 A 
HETATM   20  C   UNL     1      27.594  45.272  54.946  1.00  0.00     0.077 A 
HETATM   21  C   UNL     1      28.683  44.443  54.651  1.00  0.00     0.092 A 
HETATM   22  C   UNL     1      28.791  43.893  53.370  1.00  0.00     0.069 A 
HETATM   23 CL   UNL     1      30.143  42.914  52.917  1.00  0.00    -0.081 Cl
HETATM   24  C   UNL     1      27.792  44.106  52.420  1.00  0.00     0.059 A 
BRANCH  19  25
HETATM   25  O   UNL     1      25.607  46.445  54.159  1.00  0.00    -0.354 OA
HETATM   26  C   UNL     1      26.010  47.775  54.457  1.00  0.00     0.210 C 
ENDBRANCH  19  25
BRANCH  21  27
HETATM   27  O   UNL     1      29.701  44.197  55.535  1.00  0.00    -0.354 OA
HETATM   28  C   UNL     1      30.359  45.347  56.058  1.00  0.00     0.210 C 
ENDBRANCH  21  27
ENDBRANCH  15  18
ENDBRANCH  13  14
ENDBRANCH  12  13
ENDBRANCH   2  12
BRANCH   1  29
HETATM   29  C   UNL     1      20.959  48.816  48.683  1.00  0.00     0.049 A 
HETATM   30  C   UNL     1      21.519  50.094  48.457  1.00  0.00    -0.031 A 
HETATM   31  C   UNL     1      21.050  51.181  49.216  1.00  0.00     0.009 A 
HETATM   32  C   UNL     1      20.060  51.010  50.184  1.00  0.00     0.001 A 
HETATM   33  C   UNL     1      19.516  49.751  50.409  1.00  0.00     0.002 A 
HETATM   34  C   UNL     1      19.956  48.662  49.658  1.00  0.00     0.031 A 
BRANCH  30  35
HETATM   35  C   UNL     1      22.621  50.342  47.448  1.00  0.00     0.036 C 
HETATM   36  C   UNL     1      23.967  50.619  48.101  1.00  0.00     0.010 C 
ENDBRANCH  30  35
ENDBRANCH   1  29
BRANCH   6  37
HETATM   37  N   UNL     1      19.391  47.981  46.410  1.00  0.00    -0.384 N 
HETATM   38  H   UNL     1      18.747  47.636  45.713  1.00  0.00     0.157 HD
HETATM   39  H   UNL     1      19.169  48.850  46.881  1.00  0.00     0.157 HD
ENDBRANCH   6  37
TORSDOF 9
ENDMDL
MODEL 9
REMARK VINA RESULT:      -8.3      5.426      8.784
REMARK  9 active torsions:
REMARK  status: ('A' for Active; 'I' for Inactive)
REMARK    1  A    between atoms: C_2  and  C_3 
REMARK    2  A    between atoms: C_4  and  N_5 
REMARK    3  A    between atoms: C_6  and  S_7 
REMARK    4  A    between atoms: S_7  and  C_8 
REMARK    5  A    between atoms: C_8  and  C_9 
REMARK       I    between atoms: C_9  and  N_10 
REMARK    6  A    between atoms: N_10  and  C_11 
REMARK    7  A    between atoms: C_12  and  O_13 
REMARK    8  A    between atoms: C_16  and  O_17 
REMARK    9  A    between atoms: C_26  and  N_27 
ROOT
HETATM    1  N   UNL     1      20.424  48.344  47.874  1.00  0.00    -0.275 N 
HETATM    2  C   UNL     1      19.886  47.791  46.681  1.00  0.00     0.177 A 
HETATM    3  N   UNL     1      20.334  46.726  46.060  1.00  0.00    -0.204 NA
HETATM    4  C   UNL     1      21.346  46.104  46.707  1.00  0.00     0.162 A 
HETATM    5  C   UNL     1      21.984  46.461  47.865  1.00  0.00     0.081 A 
HETATM    6  C   UNL     1      21.560  47.678  48.491  1.00  0.00     0.124 A 
HETATM    7  N   UNL     1      21.894  44.904  46.356  1.00  0.00    -0.260 N 
HETATM    8  H   UNL     1      21.644  44.307  45.575  1.00  0.00     0.191 HD
HETATM    9  N   UNL     1      22.862  44.496  47.205  1.00  0.00    -0.177 NA
HETATM   10  C   UNL     1      22.901  45.442  48.156  1.00  0.00     0.068 A 
HETATM   11  C   UNL     1      23.814  45.278  49.311  1.00  0.00     0.073 C 
ENDROOT
BRANCH   2  12
HETATM   12  S   UNL     1      18.444  48.533  45.960  1.00  0.00    -0.082 SA
BRANCH  12  13
HETATM   13  C   UNL     1      17.131  47.878  47.016  1.00  0.00     0.185 C 
BRANCH  13  14
HETATM   14  C   UNL     1      16.095  48.944  47.340  1.00  0.00     0.232 C 
HETATM   15  N   UNL     1      16.593  50.233  47.235  1.00  0.00    -0.324 N 
HETATM   16  H   UNL     1      17.597  50.312  47.127  1.00  0.00     0.169 HD
HETATM   17  O   UNL     1      14.980  48.629  47.749  1.00  0.00    -0.272 OA
BRANCH  15  18
HETATM   18  C   UNL     1      15.879  51.432  47.451  1.00  0.00     0.070 A 
HETATM   19  C   UNL     1      15.421  52.283  46.427  1.00  0.00     0.097 A 
HETATM   20  C   UNL     1      14.661  53.416  46.759  1.00  0.00     0.077 A 
HETATM   21  C   UNL     1      14.379  53.724  48.095  1.00  0.00     0.092 A 
HETATM   22  C   UNL     1      14.918  52.922  49.106  1.00  0.00     0.069 A 
HETATM   23 CL   UNL     1      14.665  53.282  50.778  1.00  0.00    -0.081 Cl
HETATM   24  C   UNL     1      15.665  51.787  48.788  1.00  0.00     0.059 A 
BRANCH  19  25
HETATM   25  O   UNL     1      15.882  52.039  45.161  1.00  0.00    -0.354 OA
HETATM   26  C   UNL     1      17.034  52.750  44.727  1.00  0.00     0.210 C 
ENDBRANCH  19  25
BRANCH  21  27
HETATM   27  O   UNL     1      13.657  54.825  48.477  1.00  0.00    -0.354 OA
HETATM   28  C   UNL     1      13.557  55.866  47.510  1.00  0.00     0.210 C 
ENDBRANCH  21  27
ENDBRANCH  15  18
ENDBRANCH  13  14
ENDBRANCH  12  13
ENDBRANCH   2  12
BRANCH   1  29
HETATM   29  C   UNL     1      19.941  49.576  48.414  1.00  0.00     0.049 A 
HETATM   30  C   UNL     1      19.125  49.607  49.567  1.00  0.00    -0.031 A 
HETATM   31  C   UNL     1      18.770  50.855  50.109  1.00  0.00     0.009 A 
HETATM   32  C   UNL     1      19.200  52.046  49.522  1.00  0.00     0.001 A 
HETATM   33  C   UNL     1      19.997  52.012  48.383  1.00  0.00     0.002 A 
HETATM   34  C   UNL     1      20.373  50.785  47.837  1.00  0.00     0.031 A 
BRANCH  30  35
HETATM   35  C   UNL     1      18.595  48.355  50.234  1.00  0.00     0.036 C 
HETATM   36  C   UNL     1      18.545  48.470  51.751  1.00  0.00     0.010 C 
ENDBRANCH  30  35
ENDBRANCH   1  29
BRANCH   6  37
HETATM   37  N   UNL     1      22.189  48.163  49.543  1.00  0.00    -0.384 N 
HETATM   38  H   UNL     1      21.970  47.867  50.483  1.00  0.00     0.157 HD
HETATM   39  H   UNL     1      22.934  48.838  49.413  1.00  0.00     0.157 HD
ENDBRANCH   6  37
TORSDOF 9
ENDMDL
MODEL 10
REMARK VINA RESULT:      -8.2      1.717      2.031
REMARK  9 active torsions:
REMARK  status: ('A' for Active; 'I' for Inactive)
REMARK    1  A    between atoms: C_2  and  C_3 
REMARK    2  A    between atoms: C_4  and  N_5 
REMARK    3  A    between atoms: C_6  and  S_7 
REMARK    4  A    between atoms: S_7  and  C_8 
REMARK    5  A    between atoms: C_8  and  C_9 
REMARK       I    between atoms: C_9  and  N_10 
REMARK    6  A    between atoms: N_10  and  C_11 
REMARK    7  A    between atoms: C_12  and  O_13 
REMARK    8  A    between atoms: C_16  and  O_17 
REMARK    9  A    between atoms: C_26  and  N_27 
ROOT
HETATM    1  N   UNL     1      25.792  43.024  50.521  1.00  0.00    -0.275 N 
HETATM    2  C   UNL     1      24.687  42.914  49.636  1.00  0.00     0.177 A 
HETATM    3  N   UNL     1      24.571  42.049  48.657  1.00  0.00    -0.204 NA
HETATM    4  C   UNL     1      25.591  41.162  48.592  1.00  0.00     0.162 A 
HETATM    5  C   UNL     1      26.725  41.087  49.356  1.00  0.00     0.081 A 
HETATM    6  C   UNL     1      26.898  42.092  50.361  1.00  0.00     0.124 A 
HETATM    7  N   UNL     1      25.648  40.077  47.765  1.00  0.00    -0.260 N 
HETATM    8  H   UNL     1      24.960  39.773  47.085  1.00  0.00     0.191 HD
HETATM    9  N   UNL     1      26.764  39.337  47.940  1.00  0.00    -0.177 NA
HETATM   10  C   UNL     1      27.419  39.942  48.944  1.00  0.00     0.068 A 
HETATM   11  C   UNL     1      28.674  39.346  49.460  1.00  0.00     0.073 C 
ENDROOT
BRANCH   2  12
HETATM   12  S   UNL     1      23.286  43.979  49.869  1.00  0.00    -0.082 SA
BRANCH  12  13
HETATM   13  C   UNL     1      23.538  45.204  48.564  1.00  0.00     0.185 C 
BRANCH  13  14
HETATM   14  C   UNL     1      23.186  46.605  49.041  1.00  0.00     0.232 C 
HETATM   15  N   UNL     1      22.240  47.228  48.242  1.00  0.00    -0.324 N 
HETATM   16  H   UNL     1      22.025  46.765  47.367  1.00  0.00     0.169 HD
HETATM   17  O   UNL     1      23.790  47.115  49.982  1.00  0.00    -0.272 OA
BRANCH  15  18
HETATM   18  C   UNL     1      21.694  48.517  48.432  1.00  0.00     0.070 A 
HETATM   19  C   UNL     1      22.241  49.699  47.899  1.00  0.00     0.097 A 
HETATM   20  C   UNL     1      21.573  50.919  48.096  1.00  0.00     0.077 A 
HETATM   21  C   UNL     1      20.389  50.975  48.839  1.00  0.00     0.092 A 
HETATM   22  C   UNL     1      19.907  49.808  49.441  1.00  0.00     0.069 A 
HETATM   23 CL   UNL     1      18.487  49.819  50.427  1.00  0.00    -0.081 Cl
HETATM   24  C   UNL     1      20.555  48.589  49.242  1.00  0.00     0.059 A 
BRANCH  19  25
HETATM   25  O   UNL     1      23.491  49.614  47.345  1.00  0.00    -0.354 OA
HETATM   26  C   UNL     1      24.591  50.066  48.123  1.00  0.00     0.210 C 
ENDBRANCH  19  25
BRANCH  21  27
HETATM   27  O   UNL     1      19.706  52.140  49.078  1.00  0.00    -0.354 OA
HETATM   28  C   UNL     1      18.744  52.507  48.094  1.00  0.00     0.210 C 
ENDBRANCH  21  27
ENDBRANCH  15  18
ENDBRANCH  13  14
ENDBRANCH  12  13
ENDBRANCH   2  12
BRANCH   1  29
HETATM   29  C   UNL     1      25.881  44.075  51.485  1.00  0.00     0.049 A 
HETATM   30  C   UNL     1      26.397  45.346  51.146  1.00  0.00    -0.031 A 
HETATM   31  C   UNL     1      26.360  46.369  52.110  1.00  0.00     0.009 A 
HETATM   32  C   UNL     1      25.836  46.142  53.383  1.00  0.00     0.001 A 
HETATM   33  C   UNL     1      25.335  44.888  53.716  1.00  0.00     0.002 A 
HETATM   34  C   UNL     1      25.349  43.863  52.771  1.00  0.00     0.031 A 
BRANCH  30  35
HETATM   35  C   UNL     1      27.012  45.651  49.796  1.00  0.00     0.036 C 
HETATM   36  C   UNL     1      27.101  47.144  49.512  1.00  0.00     0.010 C 
ENDBRANCH  30  35
ENDBRANCH   1  29
BRANCH   6  37
HETATM   37  N   UNL     1      28.008  42.171  51.068  1.00  0.00    -0.384 N 
HETATM   38  H   UNL     1      28.294  41.438  51.701  1.00  0.00     0.157 HD
HETATM   39  H   UNL     1      28.611  42.978  50.964  1.00  0.00     0.157 HD
ENDBRANCH   6  37
TORSDOF 9
ENDMDL
