MODEL 1
REMARK VINA RESULT:     -10.2      0.000      0.000
REMARK  3 active torsions:
REMARK  status: ('A' for Active; 'I' for Inactive)
REMARK    1  A    between atoms: N_4  and  C_5 
REMARK    2  A    between atoms: C_5  and  C_6 
REMARK       I    between atoms: C_6  and  N_7 
REMARK    3  A    between atoms: N_7  and  C_8 
ROOT
HETATM    1  C   UNL     1      25.179  45.185  53.080  1.00  0.00     0.257 C 
ENDROOT
BRANCH   1   2
HETATM    2  N   UNL     1      26.482  44.715  53.540  1.00  0.00    -0.225 N 
HETATM    3  N   UNL     1      26.787  43.405  53.255  1.00  0.00    -0.173 NA
HETATM    4  C   UNL     1      27.885  42.893  53.719  1.00  0.00     0.062 A 
HETATM    5  C   UNL     1      28.171  41.446  53.394  1.00  0.00     0.073 C 
HETATM    6  C   UNL     1      28.846  43.649  54.547  1.00  0.00     0.006 A 
HETATM    7  C   UNL     1      28.511  44.959  54.870  1.00  0.00     0.046 A 
HETATM    8  C   UNL     1      30.049  43.103  55.011  1.00  0.00     0.014 A 
HETATM    9  C   UNL     1      27.242  45.524  54.380  1.00  0.00     0.275 A 
HETATM   10  C   UNL     1      29.374  45.735  55.655  1.00  0.00     0.018 A 
HETATM   11  O   UNL     1      26.912  46.663  54.711  1.00  0.00    -0.266 OA
HETATM   12  C   UNL     1      30.573  45.191  56.115  1.00  0.00     0.001 A 
HETATM   13  C   UNL     1      30.909  43.877  55.795  1.00  0.00     0.001 A 
ENDBRANCH   1   2
BRANCH   1  14
HETATM   14  C   UNL     1      25.160  45.432  51.571  1.00  0.00     0.238 C 
HETATM   15  N   UNL     1      24.581  46.631  51.208  1.00  0.00    -0.351 N 
HETATM   16  H   UNL     1      24.499  47.339  51.936  1.00  0.00     0.163 HD
HETATM   17  O   UNL     1      25.617  44.635  50.755  1.00  0.00    -0.272 OA
BRANCH  15  18
HETATM   18  C   UNL     1      24.503  47.052  49.831  1.00  0.00     0.118 C 
HETATM   19  C   UNL     1      25.567  48.051  49.463  1.00  0.00    -0.029 A 
HETATM   20  C   UNL     1      25.031  49.084  48.684  1.00  0.00    -0.050 A 
HETATM   21  C   UNL     1      26.924  48.017  49.752  1.00  0.00     0.010 A 
HETATM   22  C   UNL     1      25.830  50.106  48.196  1.00  0.00     0.007 A 
HETATM   23  C   UNL     1      23.571  48.869  48.441  1.00  0.00     0.041 C 
HETATM   24  C   UNL     1      27.191  50.088  48.505  1.00  0.00     0.001 A 
HETATM   25  C   UNL     1      27.735  49.051  49.275  1.00  0.00     0.001 A 
HETATM   26  C   UNL     1      23.223  47.869  49.549  1.00  0.00     0.034 C 
ENDBRANCH  15  18
ENDBRANCH   1  14
TORSDOF 3
ENDMDL
MODEL 2
REMARK VINA RESULT:      -9.9      3.398      4.512
REMARK  3 active torsions:
REMARK  status: ('A' for Active; 'I' for Inactive)
REMARK    1  A    between atoms: N_4  and  C_5 
REMARK    2  A    between atoms: C_5  and  C_6 
REMARK       I    between atoms: C_6  and  N_7 
REMARK    3  A    between atoms: N_7  and  C_8 
ROOT
HETATM    1  C   UNL     1      26.763  46.062  53.849  1.00  0.00     0.257 C 
ENDROOT
BRANCH   1   2
HETATM    2  N   UNL     1      27.958  45.441  54.412  1.00  0.00    -0.225 N 
HETATM    3  N   UNL     1      28.475  44.379  53.710  1.00  0.00    -0.173 NA
HETATM    4  C   UNL     1      29.476  43.717  54.203  1.00  0.00     0.062 A 
HETATM    5  C   UNL     1      30.001  42.548  53.404  1.00  0.00     0.073 C 
HETATM    6  C   UNL     1      30.107  44.048  55.496  1.00  0.00     0.006 A 
HETATM    7  C   UNL     1      29.552  45.094  56.223  1.00  0.00     0.046 A 
HETATM    8  C   UNL     1      31.214  43.355  56.004  1.00  0.00     0.014 A 
HETATM    9  C   UNL     1      28.386  45.814  55.682  1.00  0.00     0.275 A 
HETATM   10  C   UNL     1      30.097  45.460  57.461  1.00  0.00     0.018 A 
HETATM   11  O   UNL     1      27.855  46.702  56.348  1.00  0.00    -0.266 OA
HETATM   12  C   UNL     1      31.200  44.772  57.966  1.00  0.00     0.001 A 
HETATM   13  C   UNL     1      31.757  43.721  57.239  1.00  0.00     0.001 A 
ENDBRANCH   1   2
BRANCH   1  14
HETATM   14  C   UNL     1      25.703  45.027  53.471  1.00  0.00     0.238 C 
HETATM   15  N   UNL     1      25.815  44.558  52.178  1.00  0.00    -0.351 N 
HETATM   16  H   UNL     1      26.713  44.699  51.716  1.00  0.00     0.163 HD
HETATM   17  O   UNL     1      24.829  44.647  54.247  1.00  0.00    -0.272 OA
BRANCH  15  18
HETATM   18  C   UNL     1      24.926  43.552  51.653  1.00  0.00     0.118 C 
HETATM   19  C   UNL     1      25.651  42.447  50.933  1.00  0.00    -0.029 A 
HETATM   20  C   UNL     1      24.990  42.111  49.745  1.00  0.00    -0.050 A 
HETATM   21  C   UNL     1      26.785  41.752  51.330  1.00  0.00     0.010 A 
HETATM   22  C   UNL     1      25.454  41.094  48.926  1.00  0.00     0.007 A 
HETATM   23  C   UNL     1      23.756  42.939  49.566  1.00  0.00     0.041 C 
HETATM   24  C   UNL     1      26.608  40.408  49.310  1.00  0.00     0.001 A 
HETATM   25  C   UNL     1      27.267  40.733  50.504  1.00  0.00     0.001 A 
HETATM   26  C   UNL     1      24.033  44.105  50.521  1.00  0.00     0.034 C 
ENDBRANCH  15  18
ENDBRANCH   1  14
TORSDOF 3
ENDMDL
MODEL 3
REMARK VINA RESULT:      -9.9      3.716      7.340
REMARK  3 active torsions:
REMARK  status: ('A' for Active; 'I' for Inactive)
REMARK    1  A    between atoms: N_4  and  C_5 
REMARK    2  A    between atoms: C_5  and  C_6 
REMARK       I    between atoms: C_6  and  N_7 
REMARK    3  A    between atoms: N_7  and  C_8 
ROOT
HETATM    1  C   UNL     1      25.640  45.252  53.985  1.00  0.00     0.257 C 
ENDROOT
BRANCH   1   2
HETATM    2  N   UNL     1      25.977  44.161  53.076  1.00  0.00    -0.225 N 
HETATM    3  N   UNL     1      27.229  43.613  53.227  1.00  0.00    -0.173 NA
HETATM    4  C   UNL     1      27.632  42.707  52.391  1.00  0.00     0.062 A 
HETATM    5  C   UNL     1      29.021  42.146  52.586  1.00  0.00     0.073 C 
HETATM    6  C   UNL     1      26.808  42.217  51.268  1.00  0.00     0.006 A 
HETATM    7  C   UNL     1      25.561  42.806  51.092  1.00  0.00     0.046 A 
HETATM    8  C   UNL     1      27.233  41.210  50.392  1.00  0.00     0.014 A 
HETATM    9  C   UNL     1      25.125  43.867  52.016  1.00  0.00     0.275 A 
HETATM   10  C   UNL     1      24.728  42.393  50.045  1.00  0.00     0.018 A 
HETATM   11  O   UNL     1      24.047  44.432  51.831  1.00  0.00    -0.266 OA
HETATM   12  C   UNL     1      25.150  41.389  49.174  1.00  0.00     0.001 A 
HETATM   13  C   UNL     1      26.401  40.800  49.347  1.00  0.00     0.001 A 
ENDBRANCH   1   2
BRANCH   1  14
HETATM   14  C   UNL     1      26.882  46.010  54.455  1.00  0.00     0.238 C 
HETATM   15  N   UNL     1      27.544  45.404  55.503  1.00  0.00    -0.351 N 
HETATM   16  H   UNL     1      27.343  44.417  55.663  1.00  0.00     0.163 HD
HETATM   17  O   UNL     1      27.257  47.064  53.947  1.00  0.00    -0.272 OA
BRANCH  15  18
HETATM   18  C   UNL     1      28.756  45.954  56.059  1.00  0.00     0.118 C 
HETATM   19  C   UNL     1      29.833  44.920  56.254  1.00  0.00    -0.029 A 
HETATM   20  C   UNL     1      30.467  45.091  57.490  1.00  0.00    -0.050 A 
HETATM   21  C   UNL     1      30.256  43.934  55.374  1.00  0.00     0.010 A 
HETATM   22  C   UNL     1      31.518  44.276  57.879  1.00  0.00     0.007 A 
HETATM   23  C   UNL     1      29.894  46.259  58.229  1.00  0.00     0.041 C 
HETATM   24  C   UNL     1      31.931  43.267  57.006  1.00  0.00     0.001 A 
HETATM   25  C   UNL     1      31.307  43.099  55.762  1.00  0.00     0.001 A 
HETATM   26  C   UNL     1      28.554  46.446  57.509  1.00  0.00     0.034 C 
ENDBRANCH  15  18
ENDBRANCH   1  14
TORSDOF 3
ENDMDL
MODEL 4
REMARK VINA RESULT:      -9.8      1.443      7.112
REMARK  3 active torsions:
REMARK  status: ('A' for Active; 'I' for Inactive)
REMARK    1  A    between atoms: N_4  and  C_5 
REMARK    2  A    between atoms: C_5  and  C_6 
REMARK       I    between atoms: C_6  and  N_7 
REMARK    3  A    between atoms: N_7  and  C_8 
ROOT
HETATM    1  C   UNL     1      25.203  44.080  50.264  1.00  0.00     0.257 C 
ENDROOT
BRANCH   1   2
HETATM    2  N   UNL     1      25.281  45.508  49.971  1.00  0.00    -0.225 N 
HETATM    3  N   UNL     1      24.082  46.151  49.776  1.00  0.00    -0.173 NA
HETATM    4  C   UNL     1      24.080  47.398  49.415  1.00  0.00     0.062 A 
HETATM    5  C   UNL     1      22.740  48.058  49.197  1.00  0.00     0.073 C 
HETATM    6  C   UNL     1      25.313  48.181  49.202  1.00  0.00     0.006 A 
HETATM    7  C   UNL     1      26.523  47.514  49.356  1.00  0.00     0.046 A 
HETATM    8  C   UNL     1      25.304  49.537  48.852  1.00  0.00     0.014 A 
HETATM    9  C   UNL     1      26.521  46.087  49.721  1.00  0.00     0.275 A 
HETATM   10  C   UNL     1      27.732  48.194  49.165  1.00  0.00     0.018 A 
HETATM   11  O   UNL     1      27.587  45.476  49.801  1.00  0.00    -0.266 OA
HETATM   12  C   UNL     1      27.724  49.544  48.818  1.00  0.00     0.001 A 
HETATM   13  C   UNL     1      26.512  50.215  48.661  1.00  0.00     0.001 A 
ENDBRANCH   1   2
BRANCH   1  14
HETATM   14  C   UNL     1      25.487  43.782  51.737  1.00  0.00     0.238 C 
HETATM   15  N   UNL     1      26.810  43.497  52.004  1.00  0.00    -0.351 N 
HETATM   16  H   UNL     1      27.492  43.790  51.306  1.00  0.00     0.163 HD
HETATM   17  O   UNL     1      24.616  43.794  52.604  1.00  0.00    -0.272 OA
BRANCH  15  18
HETATM   18  C   UNL     1      27.275  43.224  53.342  1.00  0.00     0.118 C 
HETATM   19  C   UNL     1      27.789  44.452  54.045  1.00  0.00    -0.029 A 
HETATM   20  C   UNL     1      28.975  44.169  54.734  1.00  0.00    -0.050 A 
HETATM   21  C   UNL     1      27.218  45.715  54.114  1.00  0.00     0.010 A 
HETATM   22  C   UNL     1      29.619  45.138  55.486  1.00  0.00     0.007 A 
HETATM   23  C   UNL     1      29.356  42.730  54.576  1.00  0.00     0.041 C 
HETATM   24  C   UNL     1      29.060  46.416  55.538  1.00  0.00     0.001 A 
HETATM   25  C   UNL     1      27.867  46.702  54.859  1.00  0.00     0.001 A 
HETATM   26  C   UNL     1      28.536  42.333  53.345  1.00  0.00     0.034 C 
ENDBRANCH  15  18
ENDBRANCH   1  14
TORSDOF 3
ENDMDL
MODEL 5
REMARK VINA RESULT:      -9.7      2.051      3.112
REMARK  3 active torsions:
REMARK  status: ('A' for Active; 'I' for Inactive)
REMARK    1  A    between atoms: N_4  and  C_5 
REMARK    2  A    between atoms: C_5  and  C_6 
REMARK       I    between atoms: C_6  and  N_7 
REMARK    3  A    between atoms: N_7  and  C_8 
ROOT
HETATM    1  C   UNL     1      27.024  41.902  51.540  1.00  0.00     0.257 C 
ENDROOT
BRANCH   1   2
HETATM    2  N   UNL     1      27.542  42.784  52.581  1.00  0.00    -0.225 N 
HETATM    3  N   UNL     1      26.890  43.984  52.736  1.00  0.00    -0.173 NA
HETATM    4  C   UNL     1      27.356  44.858  53.575  1.00  0.00     0.062 A 
HETATM    5  C   UNL     1      26.616  46.168  53.700  1.00  0.00     0.073 C 
HETATM    6  C   UNL     1      28.566  44.632  54.391  1.00  0.00     0.006 A 
HETATM    7  C   UNL     1      29.247  43.436  54.198  1.00  0.00     0.046 A 
HETATM    8  C   UNL     1      29.041  45.562  55.324  1.00  0.00     0.014 A 
HETATM    9  C   UNL     1      28.741  42.466  53.211  1.00  0.00     0.275 A 
HETATM   10  C   UNL     1      30.405  43.156  54.934  1.00  0.00     0.018 A 
HETATM   11  O   UNL     1      29.372  41.431  52.994  1.00  0.00    -0.266 OA
HETATM   12  C   UNL     1      30.877  44.082  55.865  1.00  0.00     0.001 A 
HETATM   13  C   UNL     1      30.197  45.283  56.058  1.00  0.00     0.001 A 
ENDBRANCH   1   2
BRANCH   1  14
HETATM   14  C   UNL     1      26.576  42.680  50.301  1.00  0.00     0.238 C 
HETATM   15  N   UNL     1      25.318  43.234  50.414  1.00  0.00    -0.351 N 
HETATM   16  H   UNL     1      24.945  43.335  51.358  1.00  0.00     0.163 HD
HETATM   17  O   UNL     1      27.272  42.800  49.296  1.00  0.00    -0.272 OA
BRANCH  15  18
HETATM   18  C   UNL     1      24.740  44.032  49.361  1.00  0.00     0.118 C 
HETATM   19  C   UNL     1      24.983  45.507  49.543  1.00  0.00    -0.029 A 
HETATM   20  C   UNL     1      23.822  46.239  49.263  1.00  0.00    -0.050 A 
HETATM   21  C   UNL     1      26.162  46.155  49.879  1.00  0.00     0.010 A 
HETATM   22  C   UNL     1      23.812  47.623  49.329  1.00  0.00     0.007 A 
HETATM   23  C   UNL     1      22.704  45.334  48.851  1.00  0.00     0.041 C 
HETATM   24  C   UNL     1      24.991  48.278  49.689  1.00  0.00     0.001 A 
HETATM   25  C   UNL     1      26.158  47.551  49.960  1.00  0.00     0.001 A 
HETATM   26  C   UNL     1      23.196  43.983  49.381  1.00  0.00     0.034 C 
ENDBRANCH  15  18
ENDBRANCH   1  14
TORSDOF 3
ENDMDL
MODEL 6
REMARK VINA RESULT:      -9.7      4.239      7.993
REMARK  3 active torsions:
REMARK  status: ('A' for Active; 'I' for Inactive)
REMARK    1  A    between atoms: N_4  and  C_5 
REMARK    2  A    between atoms: C_5  and  C_6 
REMARK       I    between atoms: C_6  and  N_7 
REMARK    3  A    between atoms: N_7  and  C_8 
ROOT
HETATM    1  C   UNL     1      28.795  41.239  52.753  1.00  0.00     0.257 C 
ENDROOT
BRANCH   1   2
HETATM    2  N   UNL     1      27.801  41.327  51.687  1.00  0.00    -0.225 N 
HETATM    3  N   UNL     1      26.812  42.267  51.859  1.00  0.00    -0.173 NA
HETATM    4  C   UNL     1      25.842  42.332  51.000  1.00  0.00     0.062 A 
HETATM    5  C   UNL     1      24.770  43.369  51.238  1.00  0.00     0.073 C 
HETATM    6  C   UNL     1      25.738  41.445  49.825  1.00  0.00     0.006 A 
HETATM    7  C   UNL     1      26.716  40.467  49.681  1.00  0.00     0.046 A 
HETATM    8  C   UNL     1      24.710  41.547  48.879  1.00  0.00     0.014 A 
HETATM    9  C   UNL     1      27.791  40.365  50.683  1.00  0.00     0.275 A 
HETATM   10  C   UNL     1      26.678  39.587  48.592  1.00  0.00     0.018 A 
HETATM   11  O   UNL     1      28.626  39.465  50.592  1.00  0.00    -0.266 OA
HETATM   12  C   UNL     1      25.656  39.691  47.649  1.00  0.00     0.001 A 
HETATM   13  C   UNL     1      24.673  40.668  47.794  1.00  0.00     0.001 A 
ENDBRANCH   1   2
BRANCH   1  14
HETATM   14  C   UNL     1      29.408  42.602  53.078  1.00  0.00     0.238 C 
HETATM   15  N   UNL     1      28.722  43.307  54.046  1.00  0.00    -0.351 N 
HETATM   16  H   UNL     1      28.091  42.773  54.640  1.00  0.00     0.163 HD
HETATM   17  O   UNL     1      30.419  43.032  52.527  1.00  0.00    -0.272 OA
BRANCH  15  18
HETATM   18  C   UNL     1      29.170  44.598  54.508  1.00  0.00     0.118 C 
HETATM   19  C   UNL     1      29.970  44.519  55.782  1.00  0.00    -0.029 A 
HETATM   20  C   UNL     1      29.590  45.533  56.670  1.00  0.00    -0.050 A 
HETATM   21  C   UNL     1      30.997  43.644  56.106  1.00  0.00     0.010 A 
HETATM   22  C   UNL     1      30.213  45.683  57.898  1.00  0.00     0.007 A 
HETATM   23  C   UNL     1      28.522  46.395  56.074  1.00  0.00     0.041 C 
HETATM   24  C   UNL     1      31.231  44.790  58.239  1.00  0.00     0.001 A 
HETATM   25  C   UNL     1      31.622  43.779  57.349  1.00  0.00     0.001 A 
HETATM   26  C   UNL     1      27.993  45.491  54.955  1.00  0.00     0.034 C 
ENDBRANCH  15  18
ENDBRANCH   1  14
TORSDOF 3
ENDMDL
MODEL 7
REMARK VINA RESULT:      -9.6      1.740      7.403
REMARK  3 active torsions:
REMARK  status: ('A' for Active; 'I' for Inactive)
REMARK    1  A    between atoms: N_4  and  C_5 
REMARK    2  A    between atoms: C_5  and  C_6 
REMARK       I    between atoms: C_6  and  N_7 
REMARK    3  A    between atoms: N_7  and  C_8 
ROOT
HETATM    1  C   UNL     1      25.281  44.565  49.706  1.00  0.00     0.257 C 
ENDROOT
BRANCH   1   2
HETATM    2  N   UNL     1      25.095  45.973  49.371  1.00  0.00    -0.225 N 
HETATM    3  N   UNL     1      26.213  46.768  49.454  1.00  0.00    -0.173 NA
HETATM    4  C   UNL     1      26.100  48.047  49.266  1.00  0.00     0.062 A 
HETATM    5  C   UNL     1      27.353  48.882  49.383  1.00  0.00     0.073 C 
HETATM    6  C   UNL     1      24.818  48.710  48.957  1.00  0.00     0.006 A 
HETATM    7  C   UNL     1      23.683  47.909  48.919  1.00  0.00     0.046 A 
HETATM    8  C   UNL     1      24.709  50.085  48.715  1.00  0.00     0.014 A 
HETATM    9  C   UNL     1      23.807  46.464  49.178  1.00  0.00     0.275 A 
HETATM   10  C   UNL     1      22.432  48.471  48.636  1.00  0.00     0.018 A 
HETATM   11  O   UNL     1      22.798  45.760  49.203  1.00  0.00    -0.266 OA
HETATM   12  C   UNL     1      22.324  49.841  48.393  1.00  0.00     0.001 A 
HETATM   13  C   UNL     1      23.461  50.646  48.434  1.00  0.00     0.001 A 
ENDBRANCH   1   2
BRANCH   1  14
HETATM   14  C   UNL     1      25.389  44.345  51.216  1.00  0.00     0.238 C 
HETATM   15  N   UNL     1      26.659  44.538  51.719  1.00  0.00    -0.351 N 
HETATM   16  H   UNL     1      27.306  45.072  51.140  1.00  0.00     0.163 HD
HETATM   17  O   UNL     1      24.432  44.025  51.917  1.00  0.00    -0.272 OA
BRANCH  15  18
HETATM   18  C   UNL     1      26.948  44.410  53.126  1.00  0.00     0.118 C 
HETATM   19  C   UNL     1      26.913  45.727  53.854  1.00  0.00    -0.029 A 
HETATM   20  C   UNL     1      27.989  45.831  54.744  1.00  0.00    -0.050 A 
HETATM   21  C   UNL     1      25.965  46.737  53.773  1.00  0.00     0.010 A 
HETATM   22  C   UNL     1      28.149  46.945  55.553  1.00  0.00     0.007 A 
HETATM   23  C   UNL     1      28.832  44.594  54.713  1.00  0.00     0.041 C 
HETATM   24  C   UNL     1      27.210  47.974  55.457  1.00  0.00     0.001 A 
HETATM   25  C   UNL     1      26.125  47.870  54.575  1.00  0.00     0.001 A 
HETATM   26  C   UNL     1      28.408  43.972  53.378  1.00  0.00     0.034 C 
ENDBRANCH  15  18
ENDBRANCH   1  14
TORSDOF 3
ENDMDL
MODEL 8
REMARK VINA RESULT:      -9.5      4.049      7.187
REMARK  3 active torsions:
REMARK  status: ('A' for Active; 'I' for Inactive)
REMARK    1  A    between atoms: N_4  and  C_5 
REMARK    2  A    between atoms: C_5  and  C_6 
REMARK       I    between atoms: C_6  and  N_7 
REMARK    3  A    between atoms: N_7  and  C_8 
ROOT
HETATM    1  C   UNL     1      26.313  42.742  51.844  1.00  0.00     0.257 C 
ENDROOT
BRANCH   1   2
HETATM    2  N   UNL     1      27.115  41.807  51.062  1.00  0.00    -0.225 N 
HETATM    3  N   UNL     1      26.900  41.814  49.705  1.00  0.00    -0.173 NA
HETATM    4  C   UNL     1      27.506  40.941  48.960  1.00  0.00     0.062 A 
HETATM    5  C   UNL     1      27.226  40.976  47.476  1.00  0.00     0.073 C 
HETATM    6  C   UNL     1      28.434  39.925  49.494  1.00  0.00     0.006 A 
HETATM    7  C   UNL     1      28.614  39.893  50.872  1.00  0.00     0.046 A 
HETATM    8  C   UNL     1      29.116  39.011  48.681  1.00  0.00     0.014 A 
HETATM    9  C   UNL     1      27.889  40.856  51.720  1.00  0.00     0.275 A 
HETATM   10  C   UNL     1      29.477  38.953  51.450  1.00  0.00     0.018 A 
HETATM   11  O   UNL     1      27.999  40.795  52.944  1.00  0.00    -0.266 OA
HETATM   12  C   UNL     1      30.158  38.045  50.640  1.00  0.00     0.001 A 
HETATM   13  C   UNL     1      29.977  38.073  49.258  1.00  0.00     0.001 A 
ENDBRANCH   1   2
BRANCH   1  14
HETATM   14  C   UNL     1      27.109  43.987  52.240  1.00  0.00     0.238 C 
HETATM   15  N   UNL     1      27.617  43.942  53.522  1.00  0.00    -0.351 N 
HETATM   16  H   UNL     1      27.679  43.023  53.958  1.00  0.00     0.163 HD
HETATM   17  O   UNL     1      27.280  44.942  51.485  1.00  0.00    -0.272 OA
BRANCH  15  18
HETATM   18  C   UNL     1      28.424  45.010  54.060  1.00  0.00     0.118 C 
HETATM   19  C   UNL     1      29.423  44.533  55.079  1.00  0.00    -0.029 A 
HETATM   20  C   UNL     1      29.464  45.401  56.178  1.00  0.00    -0.050 A 
HETATM   21  C   UNL     1      30.274  43.439  55.012  1.00  0.00     0.010 A 
HETATM   22  C   UNL     1      30.337  45.185  57.232  1.00  0.00     0.007 A 
HETATM   23  C   UNL     1      28.517  46.544  55.993  1.00  0.00     0.041 C 
HETATM   24  C   UNL     1      31.178  44.072  57.179  1.00  0.00     0.001 A 
HETATM   25  C   UNL     1      31.149  43.207  56.077  1.00  0.00     0.001 A 
HETATM   26  C   UNL     1      27.587  45.995  54.906  1.00  0.00     0.034 C 
ENDBRANCH  15  18
ENDBRANCH   1  14
TORSDOF 3
ENDMDL
MODEL 9
REMARK VINA RESULT:      -9.4      2.093      7.216
REMARK  3 active torsions:
REMARK  status: ('A' for Active; 'I' for Inactive)
REMARK    1  A    between atoms: N_4  and  C_5 
REMARK    2  A    between atoms: C_5  and  C_6 
REMARK       I    between atoms: C_6  and  N_7 
REMARK    3  A    between atoms: N_7  and  C_8 
ROOT
HETATM    1  C   UNL     1      27.012  42.717  49.764  1.00  0.00     0.257 C 
ENDROOT
BRANCH   1   2
HETATM    2  N   UNL     1      26.076  43.836  49.730  1.00  0.00    -0.225 N 
HETATM    3  N   UNL     1      24.750  43.510  49.570  1.00  0.00    -0.173 NA
HETATM    4  C   UNL     1      23.874  44.458  49.433  1.00  0.00     0.062 A 
HETATM    5  C   UNL     1      22.432  44.052  49.244  1.00  0.00     0.073 C 
HETATM    6  C   UNL     1      24.224  45.892  49.443  1.00  0.00     0.006 A 
HETATM    7  C   UNL     1      25.571  46.215  49.559  1.00  0.00     0.046 A 
HETATM    8  C   UNL     1      23.269  46.911  49.334  1.00  0.00     0.014 A 
HETATM    9  C   UNL     1      26.568  45.136  49.669  1.00  0.00     0.275 A 
HETATM   10  C   UNL     1      25.976  47.556  49.572  1.00  0.00     0.018 A 
HETATM   11  O   UNL     1      27.766  45.414  49.714  1.00  0.00    -0.266 OA
HETATM   12  C   UNL     1      25.025  48.571  49.466  1.00  0.00     0.001 A 
HETATM   13  C   UNL     1      23.674  48.249  49.346  1.00  0.00     0.001 A 
ENDBRANCH   1   2
BRANCH   1  14
HETATM   14  C   UNL     1      27.341  42.289  51.195  1.00  0.00     0.238 C 
HETATM   15  N   UNL     1      28.163  43.170  51.868  1.00  0.00    -0.351 N 
HETATM   16  H   UNL     1      28.227  44.115  51.491  1.00  0.00     0.163 HD
HETATM   17  O   UNL     1      26.913  41.254  51.701  1.00  0.00    -0.272 OA
BRANCH  15  18
HETATM   18  C   UNL     1      28.553  42.952  53.239  1.00  0.00     0.118 C 
HETATM   19  C   UNL     1      28.454  44.196  54.081  1.00  0.00    -0.029 A 
HETATM   20  C   UNL     1      29.574  44.323  54.913  1.00  0.00    -0.050 A 
HETATM   21  C   UNL     1      27.420  45.120  54.144  1.00  0.00     0.010 A 
HETATM   22  C   UNL     1      29.691  45.376  55.806  1.00  0.00     0.007 A 
HETATM   23  C   UNL     1      30.514  43.175  54.724  1.00  0.00     0.041 C 
HETATM   24  C   UNL     1      28.663  46.320  55.855  1.00  0.00     0.001 A 
HETATM   25  C   UNL     1      27.535  46.192  55.033  1.00  0.00     0.001 A 
HETATM   26  C   UNL     1      30.058  42.630  53.366  1.00  0.00     0.034 C 
ENDBRANCH  15  18
ENDBRANCH   1  14
TORSDOF 3
ENDMDL
MODEL 10
REMARK VINA RESULT:      -9.3      2.264      7.518
REMARK  3 active torsions:
REMARK  status: ('A' for Active; 'I' for Inactive)
REMARK    1  A    between atoms: N_4  and  C_5 
REMARK    2  A    between atoms: C_5  and  C_6 
REMARK       I    between atoms: C_6  and  N_7 
REMARK    3  A    between atoms: N_7  and  C_8 
ROOT
HETATM    1  C   UNL     1      26.898  42.963  49.571  1.00  0.00     0.257 C 
ENDROOT
BRANCH   1   2
HETATM    2  N   UNL     1      26.080  44.168  49.491  1.00  0.00    -0.225 N 
HETATM    3  N   UNL     1      26.564  45.272  50.152  1.00  0.00    -0.173 NA
HETATM    4  C   UNL     1      25.841  46.349  50.205  1.00  0.00     0.062 A 
HETATM    5  C   UNL     1      26.406  47.531  50.956  1.00  0.00     0.073 C 
HETATM    6  C   UNL     1      24.508  46.461  49.581  1.00  0.00     0.006 A 
HETATM    7  C   UNL     1      24.004  45.328  48.953  1.00  0.00     0.046 A 
HETATM    8  C   UNL     1      23.750  47.639  49.607  1.00  0.00     0.014 A 
HETATM    9  C   UNL     1      24.807  44.093  48.934  1.00  0.00     0.275 A 
HETATM   10  C   UNL     1      22.744  45.361  48.343  1.00  0.00     0.018 A 
HETATM   11  O   UNL     1      24.343  43.071  48.430  1.00  0.00    -0.266 OA
HETATM   12  C   UNL     1      21.990  46.535  48.367  1.00  0.00     0.001 A 
HETATM   13  C   UNL     1      22.492  47.671  48.999  1.00  0.00     0.001 A 
ENDBRANCH   1   2
BRANCH   1  14
HETATM   14  C   UNL     1      27.134  42.526  51.018  1.00  0.00     0.238 C 
HETATM   15  N   UNL     1      28.054  43.303  51.693  1.00  0.00    -0.351 N 
HETATM   16  H   UNL     1      28.254  44.221  51.300  1.00  0.00     0.163 HD
HETATM   17  O   UNL     1      26.559  41.571  51.533  1.00  0.00    -0.272 OA
BRANCH  15  18
HETATM   18  C   UNL     1      28.380  43.065  53.078  1.00  0.00     0.118 C 
HETATM   19  C   UNL     1      28.283  44.306  53.924  1.00  0.00    -0.029 A 
HETATM   20  C   UNL     1      29.370  44.395  54.802  1.00  0.00    -0.050 A 
HETATM   21  C   UNL     1      27.274  45.259  53.952  1.00  0.00     0.010 A 
HETATM   22  C   UNL     1      29.481  45.439  55.707  1.00  0.00     0.007 A 
HETATM   23  C   UNL     1      30.284  43.221  54.644  1.00  0.00     0.041 C 
HETATM   24  C   UNL     1      28.480  46.412  55.721  1.00  0.00     0.001 A 
HETATM   25  C   UNL     1      27.384  46.322  54.852  1.00  0.00     0.001 A 
HETATM   26  C   UNL     1      29.869  42.698  53.264  1.00  0.00     0.034 C 
ENDBRANCH  15  18
ENDBRANCH   1  14
TORSDOF 3
ENDMDL
