MODEL 1
REMARK VINA RESULT:      -9.4      0.000      0.000
REMARK  6 active torsions:
REMARK  status: ('A' for Active; 'I' for Inactive)
REMARK    1  A    between atoms: O_2  and  C_3 
REMARK    2  A    between atoms: C_6  and  C_7 
REMARK    3  A    between atoms: C_13  and  C_14 
REMARK       I    between atoms: C_14  and  N_15 
REMARK    4  A    between atoms: N_15  and  C_16 
REMARK    5  A    between atoms: C_18  and  O_19 
REMARK    6  A    between atoms: C_24  and  C_25 
ROOT
HETATM    1  C   UNL     1      25.188  45.626  52.077  1.00  0.00     0.118 C 
HETATM    2  N   UNL     1      26.454  45.058  52.568  1.00  0.00    -0.365 N 
HETATM    3  C   UNL     1      26.969  43.919  52.022  1.00  0.00     0.138 A 
HETATM    4  N   UNL     1      26.279  43.210  51.066  1.00  0.00    -0.240 N 
HETATM    5  N   UNL     1      26.863  42.054  50.717  1.00  0.00    -0.181 NA
HETATM    6  C   UNL     1      27.996  42.060  51.423  1.00  0.00     0.160 A 
HETATM    7  C   UNL     1      28.125  43.195  52.262  1.00  0.00     0.096 A 
HETATM    8  C   UNL     1      24.934  43.519  50.617  1.00  0.00     0.221 C 
HETATM    9  C   UNL     1      24.262  44.494  51.597  1.00  0.00     0.066 C 
HETATM   10  H   UNL     1      26.590  45.224  53.566  1.00  0.00     0.161 HD
ENDROOT
BRANCH   7  11
HETATM   11  C   UNL     1      29.232  43.454  53.172  1.00  0.00     0.261 C 
HETATM   12  N   UNL     1      28.866  44.119  54.326  1.00  0.00    -0.323 N 
HETATM   13  H   UNL     1      27.911  44.461  54.344  1.00  0.00     0.169 HD
HETATM   14  O   UNL     1      30.365  43.088  52.885  1.00  0.00    -0.267 OA
BRANCH  12  15
HETATM   15  C   UNL     1      29.657  44.373  55.464  1.00  0.00     0.037 A 
HETATM   16  C   UNL     1      30.653  43.510  55.931  1.00  0.00     0.066 A 
HETATM   17  C   UNL     1      31.363  43.827  57.089  1.00  0.00     0.067 A 
HETATM   18  C   UNL     1      31.092  44.988  57.800  1.00  0.00     0.036 A 
HETATM   19  C   UNL     1      30.104  45.855  57.343  1.00  0.00     0.005 A 
HETATM   20  C   UNL     1      29.394  45.552  56.178  1.00  0.00     0.029 A 
BRANCH  17  21
HETATM   21  O   UNL     1      32.345  43.007  57.563  1.00  0.00    -0.361 OA
HETATM   22  H   UNL     1      32.037  42.608  58.396  1.00  0.00     0.217 HD
ENDBRANCH  17  21
ENDBRANCH  12  15
ENDBRANCH   7  11
BRANCH   1  23
HETATM   23  C   UNL     1      25.389  46.746  51.067  1.00  0.00    -0.035 A 
HETATM   24  C   UNL     1      26.649  47.280  50.759  1.00  0.00     0.012 A 
HETATM   25  C   UNL     1      26.790  48.271  49.779  1.00  0.00     0.037 A 
HETATM   26  C   UNL     1      25.679  48.749  49.088  1.00  0.00     0.068 A 
HETATM   27  C   UNL     1      24.415  48.275  49.423  1.00  0.00     0.037 A 
HETATM   28  C   UNL     1      24.271  47.289  50.406  1.00  0.00     0.012 A 
BRANCH  26  29
HETATM   29  O   UNL     1      25.947  49.688  48.129  1.00  0.00    -0.356 OA
HETATM   30  C   UNL     1      24.830  50.442  47.672  1.00  0.00     0.210 C 
ENDBRANCH  26  29
ENDBRANCH   1  23
BRANCH   8  31
HETATM   31  C   UNL     1      24.951  43.973  49.175  1.00  0.00     0.409 C 
HETATM   32  F   UNL     1      23.894  44.728  48.822  1.00  0.00    -0.169 F 
HETATM   33  F   UNL     1      26.067  44.682  48.883  1.00  0.00    -0.169 F 
HETATM   34  F   UNL     1      24.967  42.894  48.349  1.00  0.00    -0.169 F 
ENDBRANCH   8  31
TORSDOF 6
ENDMDL
MODEL 2
REMARK VINA RESULT:      -8.6      2.897      5.032
REMARK  6 active torsions:
REMARK  status: ('A' for Active; 'I' for Inactive)
REMARK    1  A    between atoms: O_2  and  C_3 
REMARK    2  A    between atoms: C_6  and  C_7 
REMARK    3  A    between atoms: C_13  and  C_14 
REMARK       I    between atoms: C_14  and  N_15 
REMARK    4  A    between atoms: N_15  and  C_16 
REMARK    5  A    between atoms: C_18  and  O_19 
REMARK    6  A    between atoms: C_24  and  C_25 
ROOT
HETATM    1  C   UNL     1      27.156  43.425  49.740  1.00  0.00     0.118 C 
HETATM    2  N   UNL     1      27.596  43.511  51.141  1.00  0.00    -0.365 N 
HETATM    3  C   UNL     1      26.721  43.854  52.130  1.00  0.00     0.138 A 
HETATM    4  N   UNL     1      25.427  44.224  51.842  1.00  0.00    -0.240 N 
HETATM    5  N   UNL     1      24.731  44.645  52.908  1.00  0.00    -0.181 NA
HETATM    6  C   UNL     1      25.585  44.472  53.919  1.00  0.00     0.160 A 
HETATM    7  C   UNL     1      26.849  43.983  53.503  1.00  0.00     0.096 A 
HETATM    8  C   UNL     1      24.892  44.387  50.503  1.00  0.00     0.221 C 
HETATM    9  C   UNL     1      26.039  44.452  49.481  1.00  0.00     0.066 C 
HETATM   10  H   UNL     1      28.567  43.816  51.224  1.00  0.00     0.161 HD
ENDROOT
BRANCH   7  11
HETATM   11  C   UNL     1      27.988  43.733  54.375  1.00  0.00     0.261 C 
HETATM   12  N   UNL     1      28.429  44.851  55.057  1.00  0.00    -0.323 N 
HETATM   13  H   UNL     1      28.001  45.726  54.776  1.00  0.00     0.169 HD
HETATM   14  O   UNL     1      28.468  42.609  54.456  1.00  0.00    -0.267 OA
BRANCH  12  15
HETATM   15  C   UNL     1      29.392  44.912  56.084  1.00  0.00     0.037 A 
HETATM   16  C   UNL     1      30.436  43.993  56.231  1.00  0.00     0.066 A 
HETATM   17  C   UNL     1      31.322  44.111  57.300  1.00  0.00     0.067 A 
HETATM   18  C   UNL     1      31.184  45.127  58.238  1.00  0.00     0.036 A 
HETATM   19  C   UNL     1      30.150  46.048  58.099  1.00  0.00     0.005 A 
HETATM   20  C   UNL     1      29.262  45.945  57.024  1.00  0.00     0.029 A 
BRANCH  17  21
HETATM   21  O   UNL     1      32.354  43.233  57.465  1.00  0.00    -0.361 OA
HETATM   22  H   UNL     1      32.049  42.348  57.200  1.00  0.00     0.217 HD
ENDBRANCH  17  21
ENDBRANCH  12  15
ENDBRANCH   7  11
BRANCH   1  23
HETATM   23  C   UNL     1      26.821  42.006  49.306  1.00  0.00    -0.035 A 
HETATM   24  C   UNL     1      26.486  41.671  47.985  1.00  0.00     0.012 A 
HETATM   25  C   UNL     1      26.242  40.341  47.621  1.00  0.00     0.037 A 
HETATM   26  C   UNL     1      26.326  39.319  48.564  1.00  0.00     0.068 A 
HETATM   27  C   UNL     1      26.596  39.641  49.891  1.00  0.00     0.037 A 
HETATM   28  C   UNL     1      26.835  40.970  50.258  1.00  0.00     0.012 A 
BRANCH  26  29
HETATM   29  O   UNL     1      26.103  38.059  48.082  1.00  0.00    -0.356 OA
HETATM   30  C   UNL     1      26.810  37.011  48.737  1.00  0.00     0.210 C 
ENDBRANCH  26  29
ENDBRANCH   1  23
BRANCH   8  31
HETATM   31  C   UNL     1      23.845  43.333  50.223  1.00  0.00     0.409 C 
HETATM   32  F   UNL     1      23.797  42.932  48.939  1.00  0.00    -0.169 F 
HETATM   33  F   UNL     1      24.025  42.229  50.984  1.00  0.00    -0.169 F 
HETATM   34  F   UNL     1      22.611  43.810  50.540  1.00  0.00    -0.169 F 
ENDBRANCH   8  31
TORSDOF 6
ENDMDL
MODEL 3
REMARK VINA RESULT:      -8.5     12.791     15.838
REMARK  6 active torsions:
REMARK  status: ('A' for Active; 'I' for Inactive)
REMARK    1  A    between atoms: O_2  and  C_3 
REMARK    2  A    between atoms: C_6  and  C_7 
REMARK    3  A    between atoms: C_13  and  C_14 
REMARK       I    between atoms: C_14  and  N_15 
REMARK    4  A    between atoms: N_15  and  C_16 
REMARK    5  A    between atoms: C_18  and  O_19 
REMARK    6  A    between atoms: C_24  and  C_25 
ROOT
HETATM    1  C   UNL     1      31.393  51.689  42.204  1.00  0.00     0.118 C 
HETATM    2  N   UNL     1      32.680  52.253  41.769  1.00  0.00    -0.365 N 
HETATM    3  C   UNL     1      33.710  51.441  41.392  1.00  0.00     0.138 A 
HETATM    4  N   UNL     1      33.615  50.072  41.497  1.00  0.00    -0.240 N 
HETATM    5  N   UNL     1      34.750  49.423  41.200  1.00  0.00    -0.181 NA
HETATM    6  C   UNL     1      35.574  50.405  40.825  1.00  0.00     0.160 A 
HETATM    7  C   UNL     1      34.989  51.692  40.924  1.00  0.00     0.096 A 
HETATM    8  C   UNL     1      32.497  49.364  42.093  1.00  0.00     0.221 C 
HETATM    9  C   UNL     1      31.627  50.338  42.905  1.00  0.00     0.066 C 
HETATM   10  H   UNL     1      32.900  53.127  42.248  1.00  0.00     0.161 HD
ENDROOT
BRANCH   7  11
HETATM   11  C   UNL     1      35.655  52.950  40.620  1.00  0.00     0.261 C 
HETATM   12  N   UNL     1      35.149  53.600  39.511  1.00  0.00    -0.323 N 
HETATM   13  H   UNL     1      34.475  53.071  38.969  1.00  0.00     0.169 HD
HETATM   14  O   UNL     1      36.575  53.347  41.326  1.00  0.00    -0.267 OA
BRANCH  12  15
HETATM   15  C   UNL     1      35.460  54.897  39.053  1.00  0.00     0.037 A 
HETATM   16  C   UNL     1      34.693  56.030  39.340  1.00  0.00     0.066 A 
HETATM   17  C   UNL     1      35.057  57.268  38.813  1.00  0.00     0.067 A 
HETATM   18  C   UNL     1      36.171  57.400  37.994  1.00  0.00     0.036 A 
HETATM   19  C   UNL     1      36.942  56.278  37.705  1.00  0.00     0.005 A 
HETATM   20  C   UNL     1      36.592  55.034  38.237  1.00  0.00     0.029 A 
BRANCH  17  21
HETATM   21  O   UNL     1      34.331  58.392  39.081  1.00  0.00    -0.361 OA
HETATM   22  H   UNL     1      33.439  58.279  38.708  1.00  0.00     0.217 HD
ENDBRANCH  17  21
ENDBRANCH  12  15
ENDBRANCH   7  11
BRANCH   1  23
HETATM   23  C   UNL     1      30.352  51.650  41.096  1.00  0.00    -0.035 A 
HETATM   24  C   UNL     1      30.614  52.082  39.787  1.00  0.00     0.012 A 
HETATM   25  C   UNL     1      29.642  51.973  38.785  1.00  0.00     0.037 A 
HETATM   26  C   UNL     1      28.390  51.432  39.067  1.00  0.00     0.068 A 
HETATM   27  C   UNL     1      28.091  51.054  40.372  1.00  0.00     0.037 A 
HETATM   28  C   UNL     1      29.061  51.168  41.376  1.00  0.00     0.012 A 
BRANCH  26  29
HETATM   29  O   UNL     1      27.538  51.342  38.000  1.00  0.00    -0.356 OA
HETATM   30  C   UNL     1      26.569  50.302  38.066  1.00  0.00     0.210 C 
ENDBRANCH  26  29
ENDBRANCH   1  23
BRANCH   8  31
HETATM   31  C   UNL     1      31.756  48.570  41.041  1.00  0.00     0.409 C 
HETATM   32  F   UNL     1      30.461  48.346  41.332  1.00  0.00    -0.169 F 
HETATM   33  F   UNL     1      31.798  49.174  39.831  1.00  0.00    -0.169 F 
HETATM   34  F   UNL     1      32.346  47.356  40.875  1.00  0.00    -0.169 F 
ENDBRANCH   8  31
TORSDOF 6
ENDMDL
MODEL 4
REMARK VINA RESULT:      -8.4      3.265      7.230
REMARK  6 active torsions:
REMARK  status: ('A' for Active; 'I' for Inactive)
REMARK    1  A    between atoms: O_2  and  C_3 
REMARK    2  A    between atoms: C_6  and  C_7 
REMARK    3  A    between atoms: C_13  and  C_14 
REMARK       I    between atoms: C_14  and  N_15 
REMARK    4  A    between atoms: N_15  and  C_16 
REMARK    5  A    between atoms: C_18  and  O_19 
REMARK    6  A    between atoms: C_24  and  C_25 
ROOT
HETATM    1  C   UNL     1      25.927  43.723  53.817  1.00  0.00     0.118 C 
HETATM    2  N   UNL     1      25.952  42.935  52.575  1.00  0.00    -0.365 N 
HETATM    3  C   UNL     1      25.842  43.542  51.358  1.00  0.00     0.138 A 
HETATM    4  N   UNL     1      25.608  44.894  51.253  1.00  0.00    -0.240 N 
HETATM    5  N   UNL     1      25.409  45.316  49.996  1.00  0.00    -0.181 NA
HETATM    6  C   UNL     1      25.591  44.210  49.270  1.00  0.00     0.160 A 
HETATM    7  C   UNL     1      25.862  43.064  50.058  1.00  0.00     0.096 A 
HETATM    8  C   UNL     1      25.358  45.779  52.374  1.00  0.00     0.221 C 
HETATM    9  C   UNL     1      25.027  44.958  53.632  1.00  0.00     0.066 C 
HETATM   10  H   UNL     1      25.538  42.010  52.696  1.00  0.00     0.161 HD
ENDROOT
BRANCH   7  11
HETATM   11  C   UNL     1      26.066  41.715  49.549  1.00  0.00     0.261 C 
HETATM   12  N   UNL     1      27.365  41.454  49.159  1.00  0.00    -0.323 N 
HETATM   13  H   UNL     1      27.984  42.257  49.147  1.00  0.00     0.169 HD
HETATM   14  O   UNL     1      25.130  40.926  49.499  1.00  0.00    -0.267 OA
BRANCH  12  15
HETATM   15  C   UNL     1      27.921  40.215  48.780  1.00  0.00     0.037 A 
HETATM   16  C   UNL     1      28.698  39.417  49.624  1.00  0.00     0.066 A 
HETATM   17  C   UNL     1      29.238  38.222  49.151  1.00  0.00     0.067 A 
HETATM   18  C   UNL     1      29.024  37.807  47.843  1.00  0.00     0.036 A 
HETATM   19  C   UNL     1      28.249  38.592  46.995  1.00  0.00     0.005 A 
HETATM   20  C   UNL     1      27.695  39.787  47.463  1.00  0.00     0.029 A 
BRANCH  17  21
HETATM   21  O   UNL     1      29.995  37.420  49.955  1.00  0.00    -0.361 OA
HETATM   22  H   UNL     1      30.201  37.909  50.770  1.00  0.00     0.217 HD
ENDBRANCH  17  21
ENDBRANCH  12  15
ENDBRANCH   7  11
BRANCH   1  23
HETATM   23  C   UNL     1      27.315  44.030  54.357  1.00  0.00    -0.035 A 
HETATM   24  C   UNL     1      27.563  45.048  55.290  1.00  0.00     0.012 A 
HETATM   25  C   UNL     1      28.849  45.256  55.803  1.00  0.00     0.037 A 
HETATM   26  C   UNL     1      29.914  44.455  55.396  1.00  0.00     0.068 A 
HETATM   27  C   UNL     1      29.699  43.481  54.426  1.00  0.00     0.037 A 
HETATM   28  C   UNL     1      28.414  43.276  53.908  1.00  0.00     0.012 A 
BRANCH  26  29
HETATM   29  O   UNL     1      31.114  44.729  55.994  1.00  0.00    -0.356 OA
HETATM   30  C   UNL     1      31.607  43.730  56.880  1.00  0.00     0.210 C 
ENDBRANCH  26  29
ENDBRANCH   1  23
BRANCH   8  31
HETATM   31  C   UNL     1      26.495  46.762  52.534  1.00  0.00     0.409 C 
HETATM   32  F   UNL     1      26.513  47.396  53.721  1.00  0.00    -0.169 F 
HETATM   33  F   UNL     1      27.700  46.168  52.377  1.00  0.00    -0.169 F 
HETATM   34  F   UNL     1      26.421  47.718  51.570  1.00  0.00    -0.169 F 
ENDBRANCH   8  31
TORSDOF 6
ENDMDL
MODEL 5
REMARK VINA RESULT:      -8.4      7.055     10.419
REMARK  6 active torsions:
REMARK  status: ('A' for Active; 'I' for Inactive)
REMARK    1  A    between atoms: O_2  and  C_3 
REMARK    2  A    between atoms: C_6  and  C_7 
REMARK    3  A    between atoms: C_13  and  C_14 
REMARK       I    between atoms: C_14  and  N_15 
REMARK    4  A    between atoms: N_15  and  C_16 
REMARK    5  A    between atoms: C_18  and  O_19 
REMARK    6  A    between atoms: C_24  and  C_25 
ROOT
HETATM    1  C   UNL     1      18.626  51.644  47.523  1.00  0.00     0.118 C 
HETATM    2  N   UNL     1      19.739  50.696  47.690  1.00  0.00    -0.365 N 
HETATM    3  C   UNL     1      19.525  49.446  48.193  1.00  0.00     0.138 A 
HETATM    4  N   UNL     1      18.285  49.063  48.650  1.00  0.00    -0.240 N 
HETATM    5  N   UNL     1      18.266  47.849  49.221  1.00  0.00    -0.181 NA
HETATM    6  C   UNL     1      19.519  47.416  49.060  1.00  0.00     0.160 A 
HETATM    7  C   UNL     1      20.359  48.365  48.428  1.00  0.00     0.096 A 
HETATM    8  C   UNL     1      17.132  49.938  48.744  1.00  0.00     0.221 C 
HETATM    9  C   UNL     1      17.572  51.406  48.619  1.00  0.00     0.066 C 
HETATM   10  H   UNL     1      20.617  51.166  47.914  1.00  0.00     0.161 HD
ENDROOT
BRANCH   7  11
HETATM   11  C   UNL     1      21.779  48.189  48.153  1.00  0.00     0.261 C 
HETATM   12  N   UNL     1      22.607  48.872  49.023  1.00  0.00    -0.323 N 
HETATM   13  H   UNL     1      22.138  49.510  49.656  1.00  0.00     0.169 HD
HETATM   14  O   UNL     1      22.144  47.483  47.221  1.00  0.00    -0.267 OA
BRANCH  12  15
HETATM   15  C   UNL     1      24.010  48.783  49.129  1.00  0.00     0.037 A 
HETATM   16  C   UNL     1      24.896  49.669  48.510  1.00  0.00     0.066 A 
HETATM   17  C   UNL     1      26.272  49.482  48.640  1.00  0.00     0.067 A 
HETATM   18  C   UNL     1      26.785  48.419  49.372  1.00  0.00     0.036 A 
HETATM   19  C   UNL     1      25.911  47.533  49.994  1.00  0.00     0.005 A 
HETATM   20  C   UNL     1      24.530  47.717  49.878  1.00  0.00     0.029 A 
BRANCH  17  21
HETATM   21  O   UNL     1      27.161  50.335  48.053  1.00  0.00    -0.361 OA
HETATM   22  H   UNL     1      27.245  51.125  48.615  1.00  0.00     0.217 HD
ENDBRANCH  17  21
ENDBRANCH  12  15
ENDBRANCH   7  11
BRANCH   1  23
HETATM   23  C   UNL     1      18.070  51.667  46.108  1.00  0.00    -0.035 A 
HETATM   24  C   UNL     1      17.066  52.557  45.697  1.00  0.00     0.012 A 
HETATM   25  C   UNL     1      16.627  52.581  44.368  1.00  0.00     0.037 A 
HETATM   26  C   UNL     1      17.177  51.720  43.422  1.00  0.00     0.068 A 
HETATM   27  C   UNL     1      18.130  50.789  43.824  1.00  0.00     0.037 A 
HETATM   28  C   UNL     1      18.566  50.760  45.154  1.00  0.00     0.012 A 
BRANCH  26  29
HETATM   29  O   UNL     1      16.694  51.862  42.150  1.00  0.00    -0.356 OA
HETATM   30  C   UNL     1      17.546  52.544  41.236  1.00  0.00     0.210 C 
ENDBRANCH  26  29
ENDBRANCH   1  23
BRANCH   8  31
HETATM   31  C   UNL     1      16.061  49.506  47.767  1.00  0.00     0.409 C 
HETATM   32  F   UNL     1      16.538  48.943  46.642  1.00  0.00    -0.169 F 
HETATM   33  F   UNL     1      15.197  48.626  48.324  1.00  0.00    -0.169 F 
HETATM   34  F   UNL     1      15.315  50.579  47.394  1.00  0.00    -0.169 F 
ENDBRANCH   8  31
TORSDOF 6
ENDMDL
MODEL 6
REMARK VINA RESULT:      -8.3     11.304     13.703
REMARK  6 active torsions:
REMARK  status: ('A' for Active; 'I' for Inactive)
REMARK    1  A    between atoms: O_2  and  C_3 
REMARK    2  A    between atoms: C_6  and  C_7 
REMARK    3  A    between atoms: C_13  and  C_14 
REMARK       I    between atoms: C_14  and  N_15 
REMARK    4  A    between atoms: N_15  and  C_16 
REMARK    5  A    between atoms: C_18  and  O_19 
REMARK    6  A    between atoms: C_24  and  C_25 
ROOT
HETATM    1  C   UNL     1      28.449  51.208  41.560  1.00  0.00     0.118 C 
HETATM    2  N   UNL     1      27.661  50.022  41.192  1.00  0.00    -0.365 N 
HETATM    3  C   UNL     1      27.340  49.771  39.889  1.00  0.00     0.138 A 
HETATM    4  N   UNL     1      27.655  50.664  38.891  1.00  0.00    -0.240 N 
HETATM    5  N   UNL     1      27.168  50.329  37.688  1.00  0.00    -0.181 NA
HETATM    6  C   UNL     1      26.583  49.150  37.911  1.00  0.00     0.160 A 
HETATM    7  C   UNL     1      26.651  48.743  39.267  1.00  0.00     0.096 A 
HETATM    8  C   UNL     1      28.249  51.969  39.107  1.00  0.00     0.221 C 
HETATM    9  C   UNL     1      28.137  52.362  40.590  1.00  0.00     0.066 C 
HETATM   10  H   UNL     1      26.991  49.762  41.917  1.00  0.00     0.161 HD
ENDROOT
BRANCH   7  11
HETATM   11  C   UNL     1      26.070  47.525  39.815  1.00  0.00     0.261 C 
HETATM   12  N   UNL     1      27.002  46.633  40.309  1.00  0.00    -0.323 N 
HETATM   13  H   UNL     1      27.970  46.866  40.115  1.00  0.00     0.169 HD
HETATM   14  O   UNL     1      24.855  47.365  39.813  1.00  0.00    -0.267 OA
BRANCH  12  15
HETATM   15  C   UNL     1      26.764  45.452  41.041  1.00  0.00     0.037 A 
HETATM   16  C   UNL     1      25.884  45.370  42.124  1.00  0.00     0.066 A 
HETATM   17  C   UNL     1      25.738  44.166  42.813  1.00  0.00     0.067 A 
HETATM   18  C   UNL     1      26.464  43.039  42.449  1.00  0.00     0.036 A 
HETATM   19  C   UNL     1      27.341  43.110  41.371  1.00  0.00     0.005 A 
HETATM   20  C   UNL     1      27.486  44.309  40.667  1.00  0.00     0.029 A 
BRANCH  17  21
HETATM   21  O   UNL     1      24.881  44.055  43.869  1.00  0.00    -0.361 OA
HETATM   22  H   UNL     1      24.583  44.947  44.118  1.00  0.00     0.217 HD
ENDBRANCH  17  21
ENDBRANCH  12  15
ENDBRANCH   7  11
BRANCH   1  23
HETATM   23  C   UNL     1      29.931  50.912  41.729  1.00  0.00    -0.035 A 
HETATM   24  C   UNL     1      30.496  49.658  41.451  1.00  0.00     0.012 A 
HETATM   25  C   UNL     1      31.875  49.449  41.566  1.00  0.00     0.037 A 
HETATM   26  C   UNL     1      32.720  50.484  41.961  1.00  0.00     0.068 A 
HETATM   27  C   UNL     1      32.171  51.717  42.300  1.00  0.00     0.037 A 
HETATM   28  C   UNL     1      30.791  51.925  42.190  1.00  0.00     0.012 A 
BRANCH  26  29
HETATM   29  O   UNL     1      34.051  50.170  42.000  1.00  0.00    -0.356 OA
HETATM   30  C   UNL     1      34.905  51.159  42.566  1.00  0.00     0.210 C 
ENDBRANCH  26  29
ENDBRANCH   1  23
BRANCH   8  31
HETATM   31  C   UNL     1      29.650  52.012  38.540  1.00  0.00     0.409 C 
HETATM   32  F   UNL     1      30.505  52.780  39.240  1.00  0.00    -0.169 F 
HETATM   33  F   UNL     1      30.196  50.777  38.455  1.00  0.00    -0.169 F 
HETATM   34  F   UNL     1      29.622  52.497  37.271  1.00  0.00    -0.169 F 
ENDBRANCH   8  31
TORSDOF 6
ENDMDL
MODEL 7
REMARK VINA RESULT:      -8.3      1.594      2.211
REMARK  6 active torsions:
REMARK  status: ('A' for Active; 'I' for Inactive)
REMARK    1  A    between atoms: O_2  and  C_3 
REMARK    2  A    between atoms: C_6  and  C_7 
REMARK    3  A    between atoms: C_13  and  C_14 
REMARK       I    between atoms: C_14  and  N_15 
REMARK    4  A    between atoms: N_15  and  C_16 
REMARK    5  A    between atoms: C_18  and  O_19 
REMARK    6  A    between atoms: C_24  and  C_25 
ROOT
HETATM    1  C   UNL     1      24.003  43.084  51.198  1.00  0.00     0.118 C 
HETATM    2  N   UNL     1      25.080  43.095  52.200  1.00  0.00    -0.365 N 
HETATM    3  C   UNL     1      26.308  42.573  51.915  1.00  0.00     0.138 A 
HETATM    4  N   UNL     1      26.552  41.933  50.721  1.00  0.00    -0.240 N 
HETATM    5  N   UNL     1      27.768  41.373  50.643  1.00  0.00    -0.181 NA
HETATM    6  C   UNL     1      28.343  41.727  51.794  1.00  0.00     0.160 A 
HETATM    7  C   UNL     1      27.485  42.476  52.638  1.00  0.00     0.096 A 
HETATM    8  C   UNL     1      25.549  41.658  49.710  1.00  0.00     0.221 C 
HETATM    9  C   UNL     1      24.141  41.841  50.300  1.00  0.00     0.066 C 
HETATM   10  H   UNL     1      24.723  43.006  53.152  1.00  0.00     0.161 HD
ENDROOT
BRANCH   7  11
HETATM   11  C   UNL     1      27.822  42.965  53.968  1.00  0.00     0.261 C 
HETATM   12  N   UNL     1      29.149  43.317  54.117  1.00  0.00    -0.323 N 
HETATM   13  H   UNL     1      29.752  43.072  53.339  1.00  0.00     0.169 HD
HETATM   14  O   UNL     1      26.959  43.040  54.835  1.00  0.00    -0.267 OA
BRANCH  12  15
HETATM   15  C   UNL     1      29.753  43.967  55.212  1.00  0.00     0.037 A 
HETATM   16  C   UNL     1      30.773  43.407  55.987  1.00  0.00     0.066 A 
HETATM   17  C   UNL     1      31.286  44.111  57.076  1.00  0.00     0.067 A 
HETATM   18  C   UNL     1      30.794  45.364  57.416  1.00  0.00     0.036 A 
HETATM   19  C   UNL     1      29.780  45.931  56.650  1.00  0.00     0.005 A 
HETATM   20  C   UNL     1      29.266  45.239  55.550  1.00  0.00     0.029 A 
BRANCH  17  21
HETATM   21  O   UNL     1      32.287  43.592  57.845  1.00  0.00    -0.361 OA
HETATM   22  H   UNL     1      32.059  42.672  58.067  1.00  0.00     0.217 HD
ENDBRANCH  17  21
ENDBRANCH  12  15
ENDBRANCH   7  11
BRANCH   1  23
HETATM   23  C   UNL     1      23.879  44.397  50.440  1.00  0.00    -0.035 A 
HETATM   24  C   UNL     1      22.983  44.583  49.377  1.00  0.00     0.012 A 
HETATM   25  C   UNL     1      22.863  45.828  48.747  1.00  0.00     0.037 A 
HETATM   26  C   UNL     1      23.633  46.912  49.164  1.00  0.00     0.068 A 
HETATM   27  C   UNL     1      24.570  46.730  50.176  1.00  0.00     0.037 A 
HETATM   28  C   UNL     1      24.695  45.484  50.802  1.00  0.00     0.012 A 
BRANCH  26  29
HETATM   29  O   UNL     1      23.400  48.085  48.498  1.00  0.00    -0.356 OA
HETATM   30  C   UNL     1      24.214  49.187  48.883  1.00  0.00     0.210 C 
ENDBRANCH  26  29
ENDBRANCH   1  23
BRANCH   8  31
HETATM   31  C   UNL     1      25.827  42.462  48.460  1.00  0.00     0.409 C 
HETATM   32  F   UNL     1      24.738  42.705  47.708  1.00  0.00    -0.169 F 
HETATM   33  F   UNL     1      26.395  43.657  48.745  1.00  0.00    -0.169 F 
HETATM   34  F   UNL     1      26.718  41.802  47.673  1.00  0.00    -0.169 F 
ENDBRANCH   8  31
TORSDOF 6
ENDMDL
MODEL 8
REMARK VINA RESULT:      -8.3      3.584      8.677
REMARK  6 active torsions:
REMARK  status: ('A' for Active; 'I' for Inactive)
REMARK    1  A    between atoms: O_2  and  C_3 
REMARK    2  A    between atoms: C_6  and  C_7 
REMARK    3  A    between atoms: C_13  and  C_14 
REMARK       I    between atoms: C_14  and  N_15 
REMARK    4  A    between atoms: N_15  and  C_16 
REMARK    5  A    between atoms: C_18  and  O_19 
REMARK    6  A    between atoms: C_24  and  C_25 
ROOT
HETATM    1  C   UNL     1      26.784  45.535  50.234  1.00  0.00     0.118 C 
HETATM    2  N   UNL     1      25.660  46.413  49.874  1.00  0.00    -0.365 N 
HETATM    3  C   UNL     1      24.437  45.893  49.563  1.00  0.00     0.138 A 
HETATM    4  N   UNL     1      24.238  44.534  49.482  1.00  0.00    -0.240 N 
HETATM    5  N   UNL     1      23.016  44.187  49.052  1.00  0.00    -0.181 NA
HETATM    6  C   UNL     1      22.393  45.361  48.923  1.00  0.00     0.160 A 
HETATM    7  C   UNL     1      23.224  46.469  49.223  1.00  0.00     0.096 A 
HETATM    8  C   UNL     1      25.284  43.536  49.609  1.00  0.00     0.221 C 
HETATM    9  C   UNL     1      26.665  44.200  49.477  1.00  0.00     0.066 C 
HETATM   10  H   UNL     1      25.968  47.255  49.387  1.00  0.00     0.161 HD
ENDROOT
BRANCH   7  11
HETATM   11  C   UNL     1      22.833  47.869  49.135  1.00  0.00     0.261 C 
HETATM   12  N   UNL     1      21.470  48.065  49.021  1.00  0.00    -0.323 N 
HETATM   13  H   UNL     1      20.922  47.224  48.880  1.00  0.00     0.169 HD
HETATM   14  O   UNL     1      23.684  48.750  49.168  1.00  0.00    -0.267 OA
BRANCH  12  15
HETATM   15  C   UNL     1      20.765  49.284  49.077  1.00  0.00     0.037 A 
HETATM   16  C   UNL     1      19.565  49.460  49.772  1.00  0.00     0.066 A 
HETATM   17  C   UNL     1      18.918  50.695  49.742  1.00  0.00     0.067 A 
HETATM   18  C   UNL     1      19.440  51.761  49.021  1.00  0.00     0.036 A 
HETATM   19  C   UNL     1      20.636  51.597  48.327  1.00  0.00     0.005 A 
HETATM   20  C   UNL     1      21.298  50.366  48.360  1.00  0.00     0.029 A 
BRANCH  17  21
HETATM   21  O   UNL     1      17.749  50.898  50.417  1.00  0.00    -0.361 OA
HETATM   22  H   UNL     1      17.092  50.259  50.091  1.00  0.00     0.217 HD
ENDBRANCH  17  21
ENDBRANCH  12  15
ENDBRANCH   7  11
BRANCH   1  23
HETATM   23  C   UNL     1      26.972  45.392  51.737  1.00  0.00    -0.035 A 
HETATM   24  C   UNL     1      27.875  44.484  52.310  1.00  0.00     0.012 A 
HETATM   25  C   UNL     1      28.056  44.430  53.697  1.00  0.00     0.037 A 
HETATM   26  C   UNL     1      27.342  45.278  54.541  1.00  0.00     0.068 A 
HETATM   27  C   UNL     1      26.398  46.142  53.995  1.00  0.00     0.037 A 
HETATM   28  C   UNL     1      26.212  46.193  52.608  1.00  0.00     0.012 A 
BRANCH  26  29
HETATM   29  O   UNL     1      27.632  45.158  55.873  1.00  0.00    -0.356 OA
HETATM   30  C   UNL     1      28.597  46.072  56.382  1.00  0.00     0.210 C 
ENDBRANCH  26  29
ENDBRANCH   1  23
BRANCH   8  31
HETATM   31  C   UNL     1      25.084  42.721  50.866  1.00  0.00     0.409 C 
HETATM   32  F   UNL     1      24.225  41.695  50.727  1.00  0.00    -0.169 F 
HETATM   33  F   UNL     1      26.250  42.210  51.325  1.00  0.00    -0.169 F 
HETATM   34  F   UNL     1      24.604  43.513  51.862  1.00  0.00    -0.169 F 
ENDBRANCH   8  31
TORSDOF 6
ENDMDL
MODEL 9
REMARK VINA RESULT:      -8.2      4.738      9.176
REMARK  6 active torsions:
REMARK  status: ('A' for Active; 'I' for Inactive)
REMARK    1  A    between atoms: O_2  and  C_3 
REMARK    2  A    between atoms: C_6  and  C_7 
REMARK    3  A    between atoms: C_13  and  C_14 
REMARK       I    between atoms: C_14  and  N_15 
REMARK    4  A    between atoms: N_15  and  C_16 
REMARK    5  A    between atoms: C_18  and  O_19 
REMARK    6  A    between atoms: C_24  and  C_25 
ROOT
HETATM    1  C   UNL     1      24.014  44.368  50.957  1.00  0.00     0.118 C 
HETATM    2  N   UNL     1      23.428  45.534  50.277  1.00  0.00    -0.365 N 
HETATM    3  C   UNL     1      24.207  46.587  49.896  1.00  0.00     0.138 A 
HETATM    4  N   UNL     1      25.544  46.640  50.217  1.00  0.00    -0.240 N 
HETATM    5  N   UNL     1      26.142  47.790  49.875  1.00  0.00    -0.181 NA
HETATM    6  C   UNL     1      25.172  48.465  49.253  1.00  0.00     0.160 A 
HETATM    7  C   UNL     1      23.936  47.773  49.233  1.00  0.00     0.096 A 
HETATM    8  C   UNL     1      26.232  45.674  51.053  1.00  0.00     0.221 C 
HETATM    9  C   UNL     1      25.211  44.814  51.816  1.00  0.00     0.066 C 
HETATM   10  H   UNL     1      22.474  45.723  50.587  1.00  0.00     0.161 HD
ENDROOT
BRANCH   7  11
HETATM   11  C   UNL     1      22.695  48.273  48.659  1.00  0.00     0.261 C 
HETATM   12  N   UNL     1      21.945  49.042  49.529  1.00  0.00    -0.323 N 
HETATM   13  H   UNL     1      22.275  49.057  50.488  1.00  0.00     0.169 HD
HETATM   14  O   UNL     1      22.397  48.005  47.501  1.00  0.00    -0.267 OA
BRANCH  12  15
HETATM   15  C   UNL     1      20.790  49.796  49.239  1.00  0.00     0.037 A 
HETATM   16  C   UNL     1      19.497  49.267  49.220  1.00  0.00     0.066 A 
HETATM   17  C   UNL     1      18.415  50.081  48.886  1.00  0.00     0.067 A 
HETATM   18  C   UNL     1      18.600  51.419  48.560  1.00  0.00     0.036 A 
HETATM   19  C   UNL     1      19.883  51.956  48.578  1.00  0.00     0.005 A 
HETATM   20  C   UNL     1      20.972  51.151  48.922  1.00  0.00     0.029 A 
BRANCH  17  21
HETATM   21  O   UNL     1      17.141  49.593  48.866  1.00  0.00    -0.361 OA
HETATM   22  H   UNL     1      16.535  50.325  48.654  1.00  0.00     0.217 HD
ENDBRANCH  17  21
ENDBRANCH  12  15
ENDBRANCH   7  11
BRANCH   1  23
HETATM   23  C   UNL     1      24.312  43.214  50.012  1.00  0.00    -0.035 A 
HETATM   24  C   UNL     1      23.919  43.209  48.665  1.00  0.00     0.012 A 
HETATM   25  C   UNL     1      24.267  42.150  47.819  1.00  0.00     0.037 A 
HETATM   26  C   UNL     1      25.013  41.074  48.296  1.00  0.00     0.068 A 
HETATM   27  C   UNL     1      25.359  41.033  49.644  1.00  0.00     0.037 A 
HETATM   28  C   UNL     1      25.006  42.089  50.493  1.00  0.00     0.012 A 
BRANCH  26  29
HETATM   29  O   UNL     1      25.323  40.119  47.367  1.00  0.00    -0.356 OA
HETATM   30  C   UNL     1      26.712  39.902  47.143  1.00  0.00     0.210 C 
ENDBRANCH  26  29
ENDBRANCH   1  23
BRANCH   8  31
HETATM   31  C   UNL     1      27.241  44.896  50.239  1.00  0.00     0.409 C 
HETATM   32  F   UNL     1      27.767  43.836  50.880  1.00  0.00    -0.169 F 
HETATM   33  F   UNL     1      26.710  44.442  49.080  1.00  0.00    -0.169 F 
HETATM   34  F   UNL     1      28.275  45.705  49.886  1.00  0.00    -0.169 F 
ENDBRANCH   8  31
TORSDOF 6
ENDMDL
MODEL 10
REMARK VINA RESULT:      -8.1      4.877      7.373
REMARK  6 active torsions:
REMARK  status: ('A' for Active; 'I' for Inactive)
REMARK    1  A    between atoms: O_2  and  C_3 
REMARK    2  A    between atoms: C_6  and  C_7 
REMARK    3  A    between atoms: C_13  and  C_14 
REMARK       I    between atoms: C_14  and  N_15 
REMARK    4  A    between atoms: N_15  and  C_16 
REMARK    5  A    between atoms: C_18  and  O_19 
REMARK    6  A    between atoms: C_24  and  C_25 
ROOT
HETATM    1  C   UNL     1      26.433  39.015  48.344  1.00  0.00     0.118 C 
HETATM    2  N   UNL     1      26.259  40.138  49.278  1.00  0.00    -0.365 N 
HETATM    3  C   UNL     1      27.171  40.376  50.265  1.00  0.00     0.138 A 
HETATM    4  N   UNL     1      28.228  39.521  50.482  1.00  0.00    -0.240 N 
HETATM    5  N   UNL     1      28.964  39.828  51.560  1.00  0.00    -0.181 NA
HETATM    6  C   UNL     1      28.400  40.954  52.004  1.00  0.00     0.160 A 
HETATM    7  C   UNL     1      27.273  41.351  51.243  1.00  0.00     0.096 A 
HETATM    8  C   UNL     1      28.432  38.265  49.785  1.00  0.00     0.221 C 
HETATM    9  C   UNL     1      27.142  37.850  49.057  1.00  0.00     0.066 C 
HETATM   10  H   UNL     1      25.276  40.335  49.467  1.00  0.00     0.161 HD
ENDROOT
BRANCH   7  11
HETATM   11  C   UNL     1      26.437  42.513  51.511  1.00  0.00     0.261 C 
HETATM   12  N   UNL     1      27.039  43.465  52.311  1.00  0.00    -0.323 N 
HETATM   13  H   UNL     1      27.925  43.189  52.720  1.00  0.00     0.169 HD
HETATM   14  O   UNL     1      25.309  42.584  51.038  1.00  0.00    -0.267 OA
BRANCH  12  15
HETATM   15  C   UNL     1      26.568  44.758  52.618  1.00  0.00     0.037 A 
HETATM   16  C   UNL     1      26.088  45.660  51.665  1.00  0.00     0.066 A 
HETATM   17  C   UNL     1      25.675  46.933  52.058  1.00  0.00     0.067 A 
HETATM   18  C   UNL     1      25.742  47.330  53.387  1.00  0.00     0.036 A 
HETATM   19  C   UNL     1      26.217  46.438  54.344  1.00  0.00     0.005 A 
HETATM   20  C   UNL     1      26.622  45.156  53.962  1.00  0.00     0.029 A 
BRANCH  17  21
HETATM   21  O   UNL     1      25.195  47.833  51.150  1.00  0.00    -0.361 OA
HETATM   22  H   UNL     1      25.824  48.573  51.089  1.00  0.00     0.217 HD
ENDBRANCH  17  21
ENDBRANCH  12  15
ENDBRANCH   7  11
BRANCH   1  23
HETATM   23  C   UNL     1      27.069  39.427  47.026  1.00  0.00    -0.035 A 
HETATM   24  C   UNL     1      27.509  40.734  46.766  1.00  0.00     0.012 A 
HETATM   25  C   UNL     1      28.142  41.053  45.559  1.00  0.00     0.037 A 
HETATM   26  C   UNL     1      28.351  40.078  44.586  1.00  0.00     0.068 A 
HETATM   27  C   UNL     1      27.867  38.791  44.801  1.00  0.00     0.037 A 
HETATM   28  C   UNL     1      27.228  38.472  46.005  1.00  0.00     0.012 A 
BRANCH  26  29
HETATM   29  O   UNL     1      29.013  40.501  43.466  1.00  0.00    -0.356 OA
HETATM   30  C   UNL     1      29.876  39.545  42.859  1.00  0.00     0.210 C 
ENDBRANCH  26  29
ENDBRANCH   1  23
BRANCH   8  31
HETATM   31  C   UNL     1      29.663  38.341  48.911  1.00  0.00     0.409 C 
HETATM   32  F   UNL     1      29.609  37.563  47.815  1.00  0.00    -0.169 F 
HETATM   33  F   UNL     1      29.908  39.605  48.495  1.00  0.00    -0.169 F 
HETATM   34  F   UNL     1      30.759  37.962  49.619  1.00  0.00    -0.169 F 
ENDBRANCH   8  31
TORSDOF 6
ENDMDL
