MODEL 1
REMARK VINA RESULT:      -8.0      0.000      0.000
REMARK  6 active torsions:
REMARK  status: ('A' for Active; 'I' for Inactive)
REMARK    1  A    between atoms: O_2  and  C_3 
REMARK    2  A    between atoms: C_3  and  C_4 
REMARK    3  A    between atoms: C_4  and  N_5 
REMARK       I    between atoms: N_5  and  C_6 
REMARK    4  A    between atoms: C_6  and  C_7 
REMARK    5  A    between atoms: C_12  and  C_13 
REMARK    6  A    between atoms: C_22  and  C_23 
ROOT
HETATM    1  C   UNL     1      28.750  43.760  53.484  1.00  0.00     0.148 A 
HETATM    2  N   UNL     1      27.726  44.336  54.155  1.00  0.00    -0.165 NA
HETATM    3  N   UNL     1      26.903  44.749  53.174  1.00  0.00    -0.240 N 
HETATM    4  C   UNL     1      27.296  44.371  51.922  1.00  0.00     0.123 A 
HETATM    5  N   UNL     1      26.546  44.623  50.834  1.00  0.00    -0.366 N 
HETATM    6  C   UNL     1      25.208  45.195  50.900  1.00  0.00     0.118 C 
HETATM    7  C   UNL     1      24.650  45.229  52.335  1.00  0.00     0.066 C 
HETATM    8  C   UNL     1      25.684  45.480  53.448  1.00  0.00     0.221 C 
HETATM    9  C   UNL     1      28.511  43.761  52.082  1.00  0.00     0.088 A 
HETATM   10  H   UNL     1      26.857  44.338  49.906  1.00  0.00     0.161 HD
ENDROOT
BRANCH   1  11
HETATM   11  C   UNL     1      29.932  43.200  54.158  1.00  0.00     0.272 C 
HETATM   12  N   UNL     1      30.151  43.707  55.419  1.00  0.00    -0.354 N 
HETATM   13  H   UNL     1      29.385  44.250  55.810  1.00  0.00     0.162 HD
HETATM   14  O   UNL     1      30.645  42.345  53.641  1.00  0.00    -0.266 OA
BRANCH  12  15
HETATM   15  C   UNL     1      31.122  43.106  56.309  1.00  0.00     0.149 C 
BRANCH  15  16
HETATM   16  C   UNL     1      31.710  44.119  57.287  1.00  0.00     0.186 C 
BRANCH  16  17
HETATM   17  O   UNL     1      30.678  44.567  58.172  1.00  0.00    -0.394 OA
HETATM   18  C   UNL     1      30.592  45.985  58.197  1.00  0.00     0.201 C 
ENDBRANCH  16  17
ENDBRANCH  15  16
ENDBRANCH  12  15
ENDBRANCH   1  11
BRANCH   8  19
HETATM   19  C   UNL     1      25.995  46.941  53.675  1.00  0.00     0.409 C 
HETATM   20  F   UNL     1      27.159  47.342  53.132  1.00  0.00    -0.169 F 
HETATM   21  F   UNL     1      25.018  47.713  53.130  1.00  0.00    -0.169 F 
HETATM   22  F   UNL     1      26.032  47.254  54.990  1.00  0.00    -0.169 F 
ENDBRANCH   8  19
BRANCH   6  23
HETATM   23  C   UNL     1      25.127  46.511  50.143  1.00  0.00    -0.034 A 
HETATM   24  C   UNL     1      26.298  47.269  49.957  1.00  0.00     0.034 A 
HETATM   25  C   UNL     1      26.263  48.512  49.310  1.00  0.00     0.056 A 
HETATM   26 CL   UNL     1      27.750  49.379  49.159  1.00  0.00    -0.083 Cl
HETATM   27  C   UNL     1      25.052  49.012  48.826  1.00  0.00     0.055 A 
HETATM   28 CL   UNL     1      24.929  50.536  48.023  1.00  0.00    -0.083 Cl
HETATM   29  C   UNL     1      23.884  48.267  48.994  1.00  0.00     0.026 A 
HETATM   30  C   UNL     1      23.922  47.034  49.653  1.00  0.00     0.011 A 
ENDBRANCH   6  23
TORSDOF 6
ENDMDL
MODEL 2
REMARK VINA RESULT:      -7.7      4.603      8.274
REMARK  6 active torsions:
REMARK  status: ('A' for Active; 'I' for Inactive)
REMARK    1  A    between atoms: O_2  and  C_3 
REMARK    2  A    between atoms: C_3  and  C_4 
REMARK    3  A    between atoms: C_4  and  N_5 
REMARK       I    between atoms: N_5  and  C_6 
REMARK    4  A    between atoms: C_6  and  C_7 
REMARK    5  A    between atoms: C_12  and  C_13 
REMARK    6  A    between atoms: C_22  and  C_23 
ROOT
HETATM    1  C   UNL     1      24.776  47.251  50.181  1.00  0.00     0.148 A 
HETATM    2  N   UNL     1      24.892  45.953  49.816  1.00  0.00    -0.165 NA
HETATM    3  N   UNL     1      25.290  45.344  50.947  1.00  0.00    -0.240 N 
HETATM    4  C   UNL     1      25.330  46.165  52.037  1.00  0.00     0.123 A 
HETATM    5  N   UNL     1      25.622  45.703  53.267  1.00  0.00    -0.366 N 
HETATM    6  C   UNL     1      25.793  44.289  53.570  1.00  0.00     0.118 C 
HETATM    7  C   UNL     1      25.345  43.378  52.411  1.00  0.00     0.066 C 
HETATM    8  C   UNL     1      25.593  43.928  50.995  1.00  0.00     0.221 C 
HETATM    9  C   UNL     1      25.039  47.419  51.569  1.00  0.00     0.088 A 
HETATM   10  H   UNL     1      25.652  46.331  54.069  1.00  0.00     0.161 HD
ENDROOT
BRANCH   1  11
HETATM   11  C   UNL     1      24.405  48.317  49.238  1.00  0.00     0.272 C 
HETATM   12  N   UNL     1      23.061  48.361  48.943  1.00  0.00    -0.354 N 
HETATM   13  H   UNL     1      22.464  47.794  49.540  1.00  0.00     0.162 HD
HETATM   14  O   UNL     1      25.225  49.104  48.774  1.00  0.00    -0.266 OA
BRANCH  12  15
HETATM   15  C   UNL     1      22.489  49.479  48.223  1.00  0.00     0.149 C 
BRANCH  15  16
HETATM   16  C   UNL     1      21.045  49.749  48.633  1.00  0.00     0.186 C 
BRANCH  16  17
HETATM   17  O   UNL     1      20.560  48.640  49.396  1.00  0.00    -0.394 OA
HETATM   18  C   UNL     1      19.308  48.929  50.001  1.00  0.00     0.201 C 
ENDBRANCH  16  17
ENDBRANCH  15  16
ENDBRANCH  12  15
ENDBRANCH   1  11
BRANCH   8  19
HETATM   19  C   UNL     1      26.990  43.679  50.477  1.00  0.00     0.409 C 
HETATM   20  F   UNL     1      27.906  44.553  50.934  1.00  0.00    -0.169 F 
HETATM   21  F   UNL     1      27.407  42.440  50.849  1.00  0.00    -0.169 F 
HETATM   22  F   UNL     1      27.043  43.705  49.126  1.00  0.00    -0.169 F 
ENDBRANCH   8  19
BRANCH   6  23
HETATM   23  C   UNL     1      27.180  44.001  54.121  1.00  0.00    -0.034 A 
HETATM   24  C   UNL     1      27.879  45.023  54.789  1.00  0.00     0.034 A 
HETATM   25  C   UNL     1      29.180  44.818  55.269  1.00  0.00     0.056 A 
HETATM   26 CL   UNL     1      29.964  46.146  56.049  1.00  0.00    -0.083 Cl
HETATM   27  C   UNL     1      29.799  43.578  55.098  1.00  0.00     0.055 A 
HETATM   28 CL   UNL     1      31.400  43.252  55.657  1.00  0.00    -0.083 Cl
HETATM   29  C   UNL     1      29.114  42.551  54.445  1.00  0.00     0.026 A 
HETATM   30  C   UNL     1      27.822  42.765  53.956  1.00  0.00     0.011 A 
ENDBRANCH   6  23
TORSDOF 6
ENDMDL
MODEL 3
REMARK VINA RESULT:      -7.7     13.592     15.715
REMARK  6 active torsions:
REMARK  status: ('A' for Active; 'I' for Inactive)
REMARK    1  A    between atoms: O_2  and  C_3 
REMARK    2  A    between atoms: C_3  and  C_4 
REMARK    3  A    between atoms: C_4  and  N_5 
REMARK       I    between atoms: N_5  and  C_6 
REMARK    4  A    between atoms: C_6  and  C_7 
REMARK    5  A    between atoms: C_12  and  C_13 
REMARK    6  A    between atoms: C_22  and  C_23 
ROOT
HETATM    1  C   UNL     1      26.478  49.672  38.469  1.00  0.00     0.148 A 
HETATM    2  N   UNL     1      27.163  50.706  37.928  1.00  0.00    -0.165 NA
HETATM    3  N   UNL     1      28.393  50.576  38.456  1.00  0.00    -0.240 N 
HETATM    4  C   UNL     1      28.556  49.454  39.217  1.00  0.00     0.123 A 
HETATM    5  N   UNL     1      29.748  49.122  39.748  1.00  0.00    -0.366 N 
HETATM    6  C   UNL     1      30.980  49.842  39.461  1.00  0.00     0.118 C 
HETATM    7  C   UNL     1      30.826  50.837  38.296  1.00  0.00     0.066 C 
HETATM    8  C   UNL     1      29.453  51.525  38.182  1.00  0.00     0.221 C 
HETATM    9  C   UNL     1      27.323  48.864  39.279  1.00  0.00     0.088 A 
HETATM   10  H   UNL     1      29.851  48.283  40.318  1.00  0.00     0.161 HD
ENDROOT
BRANCH   1  11
HETATM   11  C   UNL     1      25.048  49.438  38.211  1.00  0.00     0.272 C 
HETATM   12  N   UNL     1      24.207  50.129  39.053  1.00  0.00    -0.354 N 
HETATM   13  H   UNL     1      24.649  50.852  39.615  1.00  0.00     0.162 HD
HETATM   14  O   UNL     1      24.650  48.703  37.312  1.00  0.00    -0.266 OA
BRANCH  12  15
HETATM   15  C   UNL     1      22.784  50.200  38.797  1.00  0.00     0.149 C 
BRANCH  15  16
HETATM   16  C   UNL     1      22.040  50.967  39.886  1.00  0.00     0.186 C 
BRANCH  16  17
HETATM   17  O   UNL     1      20.904  51.616  39.306  1.00  0.00    -0.394 OA
HETATM   18  C   UNL     1      20.111  50.707  38.555  1.00  0.00     0.201 C 
ENDBRANCH  16  17
ENDBRANCH  15  16
ENDBRANCH  12  15
ENDBRANCH   1  11
BRANCH   8  19
HETATM   19  C   UNL     1      29.302  52.740  39.067  1.00  0.00     0.409 C 
HETATM   20  F   UNL     1      30.466  53.208  39.555  1.00  0.00    -0.169 F 
HETATM   21  F   UNL     1      28.730  53.754  38.368  1.00  0.00    -0.169 F 
HETATM   22  F   UNL     1      28.488  52.503  40.121  1.00  0.00    -0.169 F 
ENDBRANCH   8  19
BRANCH   6  23
HETATM   23  C   UNL     1      31.597  50.417  40.726  1.00  0.00    -0.034 A 
HETATM   24  C   UNL     1      32.996  50.397  40.877  1.00  0.00     0.034 A 
HETATM   25  C   UNL     1      33.607  50.870  42.046  1.00  0.00     0.056 A 
HETATM   26 CL   UNL     1      35.329  50.774  42.146  1.00  0.00    -0.083 Cl
HETATM   27  C   UNL     1      32.823  51.383  43.083  1.00  0.00     0.055 A 
HETATM   28 CL   UNL     1      33.502  51.979  44.555  1.00  0.00    -0.083 Cl
HETATM   29  C   UNL     1      31.435  51.418  42.944  1.00  0.00     0.026 A 
HETATM   30  C   UNL     1      30.831  50.932  41.780  1.00  0.00     0.011 A 
ENDBRANCH   6  23
TORSDOF 6
ENDMDL
MODEL 4
REMARK VINA RESULT:      -7.6      4.949      8.217
REMARK  6 active torsions:
REMARK  status: ('A' for Active; 'I' for Inactive)
REMARK    1  A    between atoms: O_2  and  C_3 
REMARK    2  A    between atoms: C_3  and  C_4 
REMARK    3  A    between atoms: C_4  and  N_5 
REMARK       I    between atoms: N_5  and  C_6 
REMARK    4  A    between atoms: C_6  and  C_7 
REMARK    5  A    between atoms: C_12  and  C_13 
REMARK    6  A    between atoms: C_22  and  C_23 
ROOT
HETATM    1  C   UNL     1      22.571  44.677  49.204  1.00  0.00     0.148 A 
HETATM    2  N   UNL     1      23.550  45.524  48.811  1.00  0.00    -0.165 NA
HETATM    3  N   UNL     1      24.579  45.210  49.620  1.00  0.00    -0.240 N 
HETATM    4  C   UNL     1      24.341  44.137  50.430  1.00  0.00     0.123 A 
HETATM    5  N   UNL     1      25.291  43.632  51.239  1.00  0.00    -0.366 N 
HETATM    6  C   UNL     1      26.673  44.090  51.232  1.00  0.00     0.118 C 
HETATM    7  C   UNL     1      26.987  45.007  50.035  1.00  0.00     0.066 C 
HETATM    8  C   UNL     1      25.837  45.925  49.579  1.00  0.00     0.221 C 
HETATM    9  C   UNL     1      23.035  43.789  50.215  1.00  0.00     0.088 A 
HETATM   10  H   UNL     1      25.095  42.833  51.841  1.00  0.00     0.161 HD
ENDROOT
BRANCH   1  11
HETATM   11  C   UNL     1      21.221  44.691  48.621  1.00  0.00     0.272 C 
HETATM   12  N   UNL     1      20.353  45.564  49.237  1.00  0.00    -0.354 N 
HETATM   13  H   UNL     1      20.782  46.224  49.882  1.00  0.00     0.162 HD
HETATM   14  O   UNL     1      20.909  43.995  47.658  1.00  0.00    -0.266 OA
BRANCH  12  15
HETATM   15  C   UNL     1      19.066  45.877  48.655  1.00  0.00     0.149 C 
BRANCH  15  16
HETATM   16  C   UNL     1      18.789  47.377  48.640  1.00  0.00     0.186 C 
BRANCH  16  17
HETATM   17  O   UNL     1      19.552  48.003  49.676  1.00  0.00    -0.394 OA
HETATM   18  C   UNL     1      18.713  48.582  50.665  1.00  0.00     0.201 C 
ENDBRANCH  16  17
ENDBRANCH  15  16
ENDBRANCH  12  15
ENDBRANCH   1  11
BRANCH   8  19
HETATM   19  C   UNL     1      25.730  47.209  50.367  1.00  0.00     0.409 C 
HETATM   20  F   UNL     1      25.407  48.282  49.622  1.00  0.00    -0.169 F 
HETATM   21  F   UNL     1      24.771  47.088  51.322  1.00  0.00    -0.169 F 
HETATM   22  F   UNL     1      26.878  47.500  51.021  1.00  0.00    -0.169 F 
ENDBRANCH   8  19
BRANCH   6  23
HETATM   23  C   UNL     1      27.087  44.634  52.590  1.00  0.00    -0.034 A 
HETATM   24  C   UNL     1      28.281  44.178  53.178  1.00  0.00     0.034 A 
HETATM   25  C   UNL     1      28.677  44.613  54.449  1.00  0.00     0.056 A 
HETATM   26 CL   UNL     1      30.146  43.971  55.095  1.00  0.00    -0.083 Cl
HETATM   27  C   UNL     1      27.886  45.526  55.152  1.00  0.00     0.055 A 
HETATM   28 CL   UNL     1      28.305  46.104  56.724  1.00  0.00    -0.083 Cl
HETATM   29  C   UNL     1      26.703  45.994  54.578  1.00  0.00     0.026 A 
HETATM   30  C   UNL     1      26.306  45.546  53.315  1.00  0.00     0.011 A 
ENDBRANCH   6  23
TORSDOF 6
ENDMDL
MODEL 5
REMARK VINA RESULT:      -7.5      6.238      8.935
REMARK  6 active torsions:
REMARK  status: ('A' for Active; 'I' for Inactive)
REMARK    1  A    between atoms: O_2  and  C_3 
REMARK    2  A    between atoms: C_3  and  C_4 
REMARK    3  A    between atoms: C_4  and  N_5 
REMARK       I    between atoms: N_5  and  C_6 
REMARK    4  A    between atoms: C_6  and  C_7 
REMARK    5  A    between atoms: C_12  and  C_13 
REMARK    6  A    between atoms: C_22  and  C_23 
ROOT
HETATM    1  C   UNL     1      23.223  48.280  49.334  1.00  0.00     0.148 A 
HETATM    2  N   UNL     1      22.214  47.584  48.761  1.00  0.00    -0.165 NA
HETATM    3  N   UNL     1      21.354  48.543  48.372  1.00  0.00    -0.240 N 
HETATM    4  C   UNL     1      21.812  49.814  48.570  1.00  0.00     0.123 A 
HETATM    5  N   UNL     1      21.119  50.892  48.159  1.00  0.00    -0.366 N 
HETATM    6  C   UNL     1      19.902  50.805  47.364  1.00  0.00     0.118 C 
HETATM    7  C   UNL     1      19.647  49.384  46.826  1.00  0.00     0.066 C 
HETATM    8  C   UNL     1      20.084  48.232  47.749  1.00  0.00     0.221 C 
HETATM    9  C   UNL     1      23.005  49.681  49.228  1.00  0.00     0.088 A 
HETATM   10  H   UNL     1      21.473  51.834  48.319  1.00  0.00     0.161 HD
ENDROOT
BRANCH   1  11
HETATM   11  C   UNL     1      24.387  47.632  49.958  1.00  0.00     0.272 C 
HETATM   12  N   UNL     1      24.174  46.319  50.314  1.00  0.00    -0.354 N 
HETATM   13  H   UNL     1      23.327  45.898  49.941  1.00  0.00     0.162 HD
HETATM   14  O   UNL     1      25.455  48.213  50.127  1.00  0.00    -0.266 OA
BRANCH  12  15
HETATM   15  C   UNL     1      25.270  45.467  50.723  1.00  0.00     0.149 C 
BRANCH  15  16
HETATM   16  C   UNL     1      25.913  44.749  49.540  1.00  0.00     0.186 C 
BRANCH  16  17
HETATM   17  O   UNL     1      27.323  44.650  49.765  1.00  0.00    -0.394 OA
HETATM   18  C   UNL     1      27.611  44.070  51.029  1.00  0.00     0.201 C 
ENDBRANCH  16  17
ENDBRANCH  15  16
ENDBRANCH  12  15
ENDBRANCH   1  11
BRANCH   8  19
HETATM   19  C   UNL     1      19.063  47.874  48.804  1.00  0.00     0.409 C 
HETATM   20  F   UNL     1      17.811  48.269  48.509  1.00  0.00    -0.169 F 
HETATM   21  F   UNL     1      19.023  46.526  48.971  1.00  0.00    -0.169 F 
HETATM   22  F   UNL     1      19.378  48.393  50.013  1.00  0.00    -0.169 F 
ENDBRANCH   8  19
BRANCH   6  23
HETATM   23  C   UNL     1      18.723  51.447  48.077  1.00  0.00    -0.034 A 
HETATM   24  C   UNL     1      17.532  51.676  47.365  1.00  0.00     0.034 A 
HETATM   25  C   UNL     1      16.437  52.311  47.966  1.00  0.00     0.056 A 
HETATM   26 CL   UNL     1      15.030  52.573  46.997  1.00  0.00    -0.083 Cl
HETATM   27  C   UNL     1      16.513  52.718  49.301  1.00  0.00     0.055 A 
HETATM   28 CL   UNL     1      15.209  53.510  50.108  1.00  0.00    -0.083 Cl
HETATM   29  C   UNL     1      17.685  52.490  50.023  1.00  0.00     0.026 A 
HETATM   30  C   UNL     1      18.780  51.868  49.414  1.00  0.00     0.011 A 
ENDBRANCH   6  23
TORSDOF 6
ENDMDL
MODEL 6
REMARK VINA RESULT:      -7.4      6.825      9.474
REMARK  6 active torsions:
REMARK  status: ('A' for Active; 'I' for Inactive)
REMARK    1  A    between atoms: O_2  and  C_3 
REMARK    2  A    between atoms: C_3  and  C_4 
REMARK    3  A    between atoms: C_4  and  N_5 
REMARK       I    between atoms: N_5  and  C_6 
REMARK    4  A    between atoms: C_6  and  C_7 
REMARK    5  A    between atoms: C_12  and  C_13 
REMARK    6  A    between atoms: C_22  and  C_23 
ROOT
HETATM    1  C   UNL     1      21.679  47.118  48.655  1.00  0.00     0.148 A 
HETATM    2  N   UNL     1      21.991  48.357  49.101  1.00  0.00    -0.165 NA
HETATM    3  N   UNL     1      20.792  48.950  49.241  1.00  0.00    -0.240 N 
HETATM    4  C   UNL     1      19.732  48.122  49.011  1.00  0.00     0.123 A 
HETATM    5  N   UNL     1      18.460  48.526  49.192  1.00  0.00    -0.366 N 
HETATM    6  C   UNL     1      18.106  49.818  49.762  1.00  0.00     0.118 C 
HETATM    7  C   UNL     1      19.317  50.547  50.375  1.00  0.00     0.066 C 
HETATM    8  C   UNL     1      20.660  50.332  49.653  1.00  0.00     0.221 C 
HETATM    9  C   UNL     1      20.270  46.935  48.591  1.00  0.00     0.088 A 
HETATM   10  H   UNL     1      17.680  47.896  49.011  1.00  0.00     0.161 HD
ENDROOT
BRANCH   1  11
HETATM   11  C   UNL     1      22.696  46.113  48.309  1.00  0.00     0.272 C 
HETATM   12  N   UNL     1      23.760  46.069  49.182  1.00  0.00    -0.354 N 
HETATM   13  H   UNL     1      23.635  46.586  50.049  1.00  0.00     0.162 HD
HETATM   14  O   UNL     1      22.589  45.370  47.337  1.00  0.00    -0.266 OA
BRANCH  12  15
HETATM   15  C   UNL     1      24.728  44.994  49.129  1.00  0.00     0.149 C 
BRANCH  15  16
HETATM   16  C   UNL     1      26.076  45.404  49.714  1.00  0.00     0.186 C 
BRANCH  16  17
HETATM   17  O   UNL     1      27.043  44.394  49.411  1.00  0.00    -0.394 OA
HETATM   18  C   UNL     1      26.962  43.304  50.318  1.00  0.00     0.201 C 
ENDBRANCH  16  17
ENDBRANCH  15  16
ENDBRANCH  12  15
ENDBRANCH   1  11
BRANCH   8  19
HETATM   19  C   UNL     1      20.873  51.249  48.471  1.00  0.00     0.409 C 
HETATM   20  F   UNL     1      20.138  52.375  48.515  1.00  0.00    -0.169 F 
HETATM   21  F   UNL     1      22.176  51.629  48.409  1.00  0.00    -0.169 F 
HETATM   22  F   UNL     1      20.604  50.634  47.297  1.00  0.00    -0.169 F 
ENDBRANCH   8  19
BRANCH   6  23
HETATM   23  C   UNL     1      17.275  50.645  48.795  1.00  0.00    -0.034 A 
HETATM   24  C   UNL     1      16.434  51.654  49.301  1.00  0.00     0.034 A 
HETATM   25  C   UNL     1      15.612  52.408  48.452  1.00  0.00     0.056 A 
HETATM   26 CL   UNL     1      14.594  53.602  49.175  1.00  0.00    -0.083 Cl
HETATM   27  C   UNL     1      15.628  52.171  47.075  1.00  0.00     0.055 A 
HETATM   28 CL   UNL     1      14.641  53.054  45.967  1.00  0.00    -0.083 Cl
HETATM   29  C   UNL     1      16.464  51.180  46.557  1.00  0.00     0.026 A 
HETATM   30  C   UNL     1      17.272  50.422  47.410  1.00  0.00     0.011 A 
ENDBRANCH   6  23
TORSDOF 6
ENDMDL
MODEL 7
REMARK VINA RESULT:      -7.3      5.406      8.602
REMARK  6 active torsions:
REMARK  status: ('A' for Active; 'I' for Inactive)
REMARK    1  A    between atoms: O_2  and  C_3 
REMARK    2  A    between atoms: C_3  and  C_4 
REMARK    3  A    between atoms: C_4  and  N_5 
REMARK       I    between atoms: N_5  and  C_6 
REMARK    4  A    between atoms: C_6  and  C_7 
REMARK    5  A    between atoms: C_12  and  C_13 
REMARK    6  A    between atoms: C_22  and  C_23 
ROOT
HETATM    1  C   UNL     1      22.625  46.590  48.872  1.00  0.00     0.148 A 
HETATM    2  N   UNL     1      23.526  47.302  49.587  1.00  0.00    -0.165 NA
HETATM    3  N   UNL     1      24.571  46.462  49.697  1.00  0.00    -0.240 N 
HETATM    4  C   UNL     1      24.426  45.298  48.999  1.00  0.00     0.123 A 
HETATM    5  N   UNL     1      25.411  44.383  48.927  1.00  0.00    -0.366 N 
HETATM    6  C   UNL     1      26.745  44.601  49.467  1.00  0.00     0.118 C 
HETATM    7  C   UNL     1      26.984  46.066  49.881  1.00  0.00     0.066 C 
HETATM    8  C   UNL     1      25.760  46.807  50.449  1.00  0.00     0.221 C 
HETATM    9  C   UNL     1      23.158  45.330  48.482  1.00  0.00     0.088 A 
HETATM   10  H   UNL     1      25.283  43.517  48.405  1.00  0.00     0.161 HD
ENDROOT
BRANCH   1  11
HETATM   11  C   UNL     1      21.284  47.098  48.543  1.00  0.00     0.272 C 
HETATM   12  N   UNL     1      20.740  47.912  49.512  1.00  0.00    -0.354 N 
HETATM   13  H   UNL     1      21.385  48.219  50.236  1.00  0.00     0.162 HD
HETATM   14  O   UNL     1      20.715  46.829  47.490  1.00  0.00    -0.266 OA
BRANCH  12  15
HETATM   15  C   UNL     1      19.540  48.680  49.257  1.00  0.00     0.149 C 
BRANCH  15  16
HETATM   16  C   UNL     1      18.641  48.767  50.486  1.00  0.00     0.186 C 
BRANCH  16  17
HETATM   17  O   UNL     1      18.331  50.141  50.740  1.00  0.00    -0.394 OA
HETATM   18  C   UNL     1      17.942  50.817  49.553  1.00  0.00     0.201 C 
ENDBRANCH  16  17
ENDBRANCH  15  16
ENDBRANCH  12  15
ENDBRANCH   1  11
BRANCH   8  19
HETATM   19  C   UNL     1      25.529  46.565  51.923  1.00  0.00     0.409 C 
HETATM   20  F   UNL     1      24.825  45.449  52.190  1.00  0.00    -0.169 F 
HETATM   21  F   UNL     1      26.721  46.443  52.564  1.00  0.00    -0.169 F 
HETATM   22  F   UNL     1      24.889  47.600  52.513  1.00  0.00    -0.169 F 
ENDBRANCH   8  19
BRANCH   6  23
HETATM   23  C   UNL     1      27.095  43.565  50.523  1.00  0.00    -0.034 A 
HETATM   24  C   UNL     1      28.108  43.853  51.457  1.00  0.00     0.034 A 
HETATM   25  C   UNL     1      28.499  42.909  52.416  1.00  0.00     0.056 A 
HETATM   26 CL   UNL     1      29.772  43.348  53.499  1.00  0.00    -0.083 Cl
HETATM   27  C   UNL     1      27.872  41.661  52.463  1.00  0.00     0.055 A 
HETATM   28 CL   UNL     1      28.303  40.447  53.612  1.00  0.00    -0.083 Cl
HETATM   29  C   UNL     1      26.861  41.365  51.549  1.00  0.00     0.026 A 
HETATM   30  C   UNL     1      26.483  42.305  50.585  1.00  0.00     0.011 A 
ENDBRANCH   6  23
TORSDOF 6
ENDMDL
MODEL 8
REMARK VINA RESULT:      -7.3     12.795     14.562
REMARK  6 active torsions:
REMARK  status: ('A' for Active; 'I' for Inactive)
REMARK    1  A    between atoms: O_2  and  C_3 
REMARK    2  A    between atoms: C_3  and  C_4 
REMARK    3  A    between atoms: C_4  and  N_5 
REMARK       I    between atoms: N_5  and  C_6 
REMARK    4  A    between atoms: C_6  and  C_7 
REMARK    5  A    between atoms: C_12  and  C_13 
REMARK    6  A    between atoms: C_22  and  C_23 
ROOT
HETATM    1  C   UNL     1      33.628  51.902  39.867  1.00  0.00     0.148 A 
HETATM    2  N   UNL     1      33.617  51.046  40.915  1.00  0.00    -0.165 NA
HETATM    3  N   UNL     1      32.706  50.123  40.555  1.00  0.00    -0.240 N 
HETATM    4  C   UNL     1      32.218  50.287  39.291  1.00  0.00     0.123 A 
HETATM    5  N   UNL     1      31.366  49.405  38.737  1.00  0.00    -0.366 N 
HETATM    6  C   UNL     1      30.991  48.149  39.371  1.00  0.00     0.118 C 
HETATM    7  C   UNL     1      31.866  47.820  40.595  1.00  0.00     0.066 C 
HETATM    8  C   UNL     1      32.332  49.029  41.427  1.00  0.00     0.221 C 
HETATM    9  C   UNL     1      32.766  51.453  38.828  1.00  0.00     0.088 A 
HETATM   10  H   UNL     1      31.007  49.545  37.793  1.00  0.00     0.161 HD
ENDROOT
BRANCH   1  11
HETATM   11  C   UNL     1      34.455  53.118  39.837  1.00  0.00     0.272 C 
HETATM   12  N   UNL     1      35.748  52.927  40.269  1.00  0.00    -0.354 N 
HETATM   13  H   UNL     1      36.035  51.957  40.374  1.00  0.00     0.162 HD
HETATM   14  O   UNL     1      34.027  54.199  39.443  1.00  0.00    -0.266 OA
BRANCH  12  15
HETATM   15  C   UNL     1      36.757  53.950  40.089  1.00  0.00     0.149 C 
BRANCH  15  16
HETATM   16  C   UNL     1      37.445  54.317  41.400  1.00  0.00     0.186 C 
BRANCH  16  17
HETATM   17  O   UNL     1      36.684  53.789  42.491  1.00  0.00    -0.394 OA
HETATM   18  C   UNL     1      37.441  53.767  43.693  1.00  0.00     0.201 C 
ENDBRANCH  16  17
ENDBRANCH  15  16
ENDBRANCH  12  15
ENDBRANCH   1  11
BRANCH   8  19
HETATM   19  C   UNL     1      31.318  49.500  42.444  1.00  0.00     0.409 C 
HETATM   20  F   UNL     1      30.390  50.336  41.943  1.00  0.00    -0.169 F 
HETATM   21  F   UNL     1      30.652  48.434  42.960  1.00  0.00    -0.169 F 
HETATM   22  F   UNL     1      31.902  50.123  43.492  1.00  0.00    -0.169 F 
ENDBRANCH   8  19
BRANCH   6  23
HETATM   23  C   UNL     1      29.491  48.071  39.609  1.00  0.00    -0.034 A 
HETATM   24  C   UNL     1      28.644  48.987  38.958  1.00  0.00     0.034 A 
HETATM   25  C   UNL     1      27.262  48.985  39.185  1.00  0.00     0.056 A 
HETATM   26 CL   UNL     1      26.312  50.170  38.361  1.00  0.00    -0.083 Cl
HETATM   27  C   UNL     1      26.700  48.054  40.063  1.00  0.00     0.055 A 
HETATM   28 CL   UNL     1      25.008  47.994  40.397  1.00  0.00    -0.083 Cl
HETATM   29  C   UNL     1      27.526  47.133  40.709  1.00  0.00     0.026 A 
HETATM   30  C   UNL     1      28.907  47.148  40.489  1.00  0.00     0.011 A 
ENDBRANCH   6  23
TORSDOF 6
ENDMDL
MODEL 9
REMARK VINA RESULT:      -7.2      8.000     10.190
REMARK  6 active torsions:
REMARK  status: ('A' for Active; 'I' for Inactive)
REMARK    1  A    between atoms: O_2  and  C_3 
REMARK    2  A    between atoms: C_3  and  C_4 
REMARK    3  A    between atoms: C_4  and  N_5 
REMARK       I    between atoms: N_5  and  C_6 
REMARK    4  A    between atoms: C_6  and  C_7 
REMARK    5  A    between atoms: C_12  and  C_13 
REMARK    6  A    between atoms: C_22  and  C_23 
ROOT
HETATM    1  C   UNL     1      21.246  47.017  48.045  1.00  0.00     0.148 A 
HETATM    2  N   UNL     1      21.729  48.179  48.542  1.00  0.00    -0.165 NA
HETATM    3  N   UNL     1      20.623  48.832  48.943  1.00  0.00    -0.240 N 
HETATM    4  C   UNL     1      19.475  48.103  48.827  1.00  0.00     0.123 A 
HETATM    5  N   UNL     1      18.289  48.568  49.263  1.00  0.00    -0.366 N 
HETATM    6  C   UNL     1      18.143  49.814  50.002  1.00  0.00     0.118 C 
HETATM    7  C   UNL     1      19.495  50.394  50.458  1.00  0.00     0.066 C 
HETATM    8  C   UNL     1      20.676  50.169  49.497  1.00  0.00     0.221 C 
HETATM    9  C   UNL     1      19.836  46.934  48.212  1.00  0.00     0.088 A 
HETATM   10  H   UNL     1      17.441  48.013  49.164  1.00  0.00     0.161 HD
ENDROOT
BRANCH   1  11
HETATM   11  C   UNL     1      22.105  45.989  47.437  1.00  0.00     0.272 C 
HETATM   12  N   UNL     1      22.700  45.146  48.348  1.00  0.00    -0.354 N 
HETATM   13  H   UNL     1      22.339  45.202  49.297  1.00  0.00     0.162 HD
HETATM   14  O   UNL     1      22.257  45.888  46.223  1.00  0.00    -0.266 OA
BRANCH  12  15
HETATM   15  C   UNL     1      23.385  43.944  47.919  1.00  0.00     0.149 C 
BRANCH  15  16
HETATM   16  C   UNL     1      23.246  42.811  48.931  1.00  0.00     0.186 C 
BRANCH  16  17
HETATM   17  O   UNL     1      22.304  41.854  48.435  1.00  0.00    -0.394 OA
HETATM   18  C   UNL     1      22.307  41.806  47.016  1.00  0.00     0.201 C 
ENDBRANCH  16  17
ENDBRANCH  15  16
ENDBRANCH  12  15
ENDBRANCH   1  11
BRANCH   8  19
HETATM   19  C   UNL     1      20.763  51.188  48.385  1.00  0.00     0.409 C 
HETATM   20  F   UNL     1      20.294  50.748  47.202  1.00  0.00    -0.169 F 
HETATM   21  F   UNL     1      20.039  52.291  48.711  1.00  0.00    -0.169 F 
HETATM   22  F   UNL     1      22.030  51.615  48.185  1.00  0.00    -0.169 F 
ENDBRANCH   8  19
BRANCH   6  23
HETATM   23  C   UNL     1      17.232  50.790  49.275  1.00  0.00    -0.034 A 
HETATM   24  C   UNL     1      16.899  52.009  49.893  1.00  0.00     0.034 A 
HETATM   25  C   UNL     1      16.024  52.917  49.283  1.00  0.00     0.056 A 
HETATM   26 CL   UNL     1      15.654  54.373  50.138  1.00  0.00    -0.083 Cl
HETATM   27  C   UNL     1      15.475  52.624  48.032  1.00  0.00     0.055 A 
HETATM   28 CL   UNL     1      14.386  53.690  47.220  1.00  0.00    -0.083 Cl
HETATM   29  C   UNL     1      15.803  51.423  47.402  1.00  0.00     0.026 A 
HETATM   30  C   UNL     1      16.667  50.514  48.022  1.00  0.00     0.011 A 
ENDBRANCH   6  23
TORSDOF 6
ENDMDL
MODEL 10
REMARK VINA RESULT:      -7.1     12.703     13.977
REMARK  6 active torsions:
REMARK  status: ('A' for Active; 'I' for Inactive)
REMARK    1  A    between atoms: O_2  and  C_3 
REMARK    2  A    between atoms: C_3  and  C_4 
REMARK    3  A    between atoms: C_4  and  N_5 
REMARK       I    between atoms: N_5  and  C_6 
REMARK    4  A    between atoms: C_6  and  C_7 
REMARK    5  A    between atoms: C_12  and  C_13 
REMARK    6  A    between atoms: C_22  and  C_23 
ROOT
HETATM    1  C   UNL     1      35.525  51.541  42.021  1.00  0.00     0.148 A 
HETATM    2  N   UNL     1      34.547  51.617  42.953  1.00  0.00    -0.165 NA
HETATM    3  N   UNL     1      33.595  50.796  42.475  1.00  0.00    -0.240 N 
HETATM    4  C   UNL     1      33.959  50.119  41.347  1.00  0.00     0.123 A 
HETATM    5  N   UNL     1      33.162  49.191  40.786  1.00  0.00    -0.366 N 
HETATM    6  C   UNL     1      31.917  48.735  41.389  1.00  0.00     0.118 C 
HETATM    7  C   UNL     1      31.750  49.222  42.840  1.00  0.00     0.066 C 
HETATM    8  C   UNL     1      32.324  50.618  43.147  1.00  0.00     0.221 C 
HETATM    9  C   UNL     1      35.190  50.607  41.001  1.00  0.00     0.088 A 
HETATM   10  H   UNL     1      33.447  48.699  39.940  1.00  0.00     0.161 HD
ENDROOT
BRANCH   1  11
HETATM   11  C   UNL     1      36.767  52.326  42.098  1.00  0.00     0.272 C 
HETATM   12  N   UNL     1      36.633  53.521  42.768  1.00  0.00    -0.354 N 
HETATM   13  H   UNL     1      35.766  53.637  43.286  1.00  0.00     0.162 HD
HETATM   14  O   UNL     1      37.828  51.933  41.621  1.00  0.00    -0.266 OA
BRANCH  12  15
HETATM   15  C   UNL     1      37.792  54.305  43.139  1.00  0.00     0.149 C 
BRANCH  15  16
HETATM   16  C   UNL     1      38.308  53.948  44.529  1.00  0.00     0.186 C 
BRANCH  16  17
HETATM   17  O   UNL     1      37.740  54.851  45.484  1.00  0.00    -0.394 OA
HETATM   18  C   UNL     1      38.191  54.569  46.801  1.00  0.00     0.201 C 
ENDBRANCH  16  17
ENDBRANCH  15  16
ENDBRANCH  12  15
ENDBRANCH   1  11
BRANCH   8  19
HETATM   19  C   UNL     1      31.390  51.753  42.797  1.00  0.00     0.409 C 
HETATM   20  F   UNL     1      31.263  52.675  43.770  1.00  0.00    -0.169 F 
HETATM   21  F   UNL     1      31.843  52.402  41.693  1.00  0.00    -0.169 F 
HETATM   22  F   UNL     1      30.148  51.313  42.492  1.00  0.00    -0.169 F 
ENDBRANCH   8  19
BRANCH   6  23
HETATM   23  C   UNL     1      30.728  48.997  40.478  1.00  0.00    -0.034 A 
HETATM   24  C   UNL     1      30.800  50.042  39.538  1.00  0.00     0.034 A 
HETATM   25  C   UNL     1      29.711  50.351  38.713  1.00  0.00     0.056 A 
HETATM   26 CL   UNL     1      29.889  51.672  37.613  1.00  0.00    -0.083 Cl
HETATM   27  C   UNL     1      28.531  49.609  38.808  1.00  0.00     0.055 A 
HETATM   28 CL   UNL     1      27.146  49.935  37.829  1.00  0.00    -0.083 Cl
HETATM   29  C   UNL     1      28.448  48.564  39.729  1.00  0.00     0.026 A 
HETATM   30  C   UNL     1      29.533  48.268  40.559  1.00  0.00     0.011 A 
ENDBRANCH   6  23
TORSDOF 6
ENDMDL
