MODEL 1
REMARK VINA RESULT:     -10.2      0.000      0.000
REMARK  5 active torsions:
REMARK  status: ('A' for Active; 'I' for Inactive)
REMARK    1  A    between atoms: C_5  and  N_6 
REMARK       I    between atoms: N_6  and  C_7 
REMARK       I    between atoms: C_7  and  N_8 
REMARK    2  A    between atoms: N_8  and  C_9 
REMARK    3  A    between atoms: C_12  and  C_13 
REMARK    4  A    between atoms: C_13  and  C_14 
REMARK       I    between atoms: C_14  and  N_15 
REMARK    5  A    between atoms: N_15  and  C_16 
ROOT
HETATM    1  C   UNL     1      26.467  47.498  50.223  1.00  0.00     0.174 A 
HETATM    2  S   UNL     1      26.749  45.909  49.688  1.00  0.00    -0.062 SA
HETATM    3  C   UNL     1      26.387  45.337  51.267  1.00  0.00     0.081 A 
HETATM    4  C   UNL     1      26.076  46.399  52.098  1.00  0.00     0.052 A 
HETATM    5  N   UNL     1      26.137  47.650  51.484  1.00  0.00    -0.228 NA
ENDROOT
BRANCH   1   6
HETATM    6  N   UNL     1      26.593  48.465  49.272  1.00  0.00    -0.287 N 
HETATM    7  C   UNL     1      25.571  49.174  48.699  1.00  0.00     0.326 C 
HETATM    8  N   UNL     1      24.322  48.986  49.229  1.00  0.00    -0.309 N 
HETATM    9  O   UNL     1      25.853  49.915  47.759  1.00  0.00    -0.247 OA
HETATM   10  H   UNL     1      24.303  48.460  50.097  1.00  0.00     0.170 HD
HETATM   11  H   UNL     1      27.508  48.635  48.883  1.00  0.00     0.172 HD
BRANCH   8  12
HETATM   12  C   UNL     1      23.091  49.492  48.773  1.00  0.00     0.036 A 
HETATM   13  C   UNL     1      22.690  50.819  48.924  1.00  0.00     0.030 A 
HETATM   14  C   UNL     1      21.457  51.249  48.419  1.00  0.00     0.009 A 
HETATM   15  C   UNL     1      20.610  50.361  47.747  1.00  0.00    -0.062 A 
HETATM   16  C   UNL     1      19.277  50.826  47.242  1.00  0.00     0.048 C 
HETATM   17  C   UNL     1      21.009  49.029  47.603  1.00  0.00     0.009 A 
HETATM   18  C   UNL     1      22.241  48.601  48.108  1.00  0.00     0.030 A 
ENDBRANCH   8  12
ENDBRANCH   1   6
BRANCH   4  19
HETATM   19  C   UNL     1      25.701  46.331  53.546  1.00  0.00     0.163 C 
BRANCH  19  20
HETATM   20  C   UNL     1      26.584  45.412  54.384  1.00  0.00     0.227 C 
HETATM   21  N   UNL     1      27.888  45.847  54.546  1.00  0.00    -0.327 N 
HETATM   22  H   UNL     1      28.082  46.790  54.214  1.00  0.00     0.169 HD
HETATM   23  O   UNL     1      26.134  44.343  54.793  1.00  0.00    -0.273 OA
BRANCH  21  24
HETATM   24  C   UNL     1      28.964  45.176  55.157  1.00  0.00     0.036 A 
HETATM   25  C   UNL     1      29.506  45.529  56.396  1.00  0.00     0.056 A 
HETATM   26  C   UNL     1      30.556  44.782  56.939  1.00  0.00     0.074 A 
HETATM   27 CL   UNL     1      31.202  45.222  58.474  1.00  0.00    -0.081 Cl
HETATM   28  C   UNL     1      31.069  43.688  56.247  1.00  0.00     0.138 A 
HETATM   29  F   UNL     1      32.073  42.961  56.756  1.00  0.00    -0.204 F 
HETATM   30  C   UNL     1      30.543  43.329  55.012  1.00  0.00     0.046 A 
HETATM   31  C   UNL     1      29.493  44.073  54.469  1.00  0.00     0.032 A 
ENDBRANCH  21  24
ENDBRANCH  19  20
ENDBRANCH   4  19
TORSDOF 5
ENDMDL
MODEL 2
REMARK VINA RESULT:     -10.2      4.601     10.551
REMARK  5 active torsions:
REMARK  status: ('A' for Active; 'I' for Inactive)
REMARK    1  A    between atoms: C_5  and  N_6 
REMARK       I    between atoms: N_6  and  C_7 
REMARK       I    between atoms: C_7  and  N_8 
REMARK    2  A    between atoms: N_8  and  C_9 
REMARK    3  A    between atoms: C_12  and  C_13 
REMARK    4  A    between atoms: C_13  and  C_14 
REMARK       I    between atoms: C_14  and  N_15 
REMARK    5  A    between atoms: N_15  and  C_16 
ROOT
HETATM    1  C   UNL     1      25.889  46.320  51.685  1.00  0.00     0.174 A 
HETATM    2  S   UNL     1      26.232  45.062  50.592  1.00  0.00    -0.062 SA
HETATM    3  C   UNL     1      26.703  46.233  49.428  1.00  0.00     0.081 A 
HETATM    4  C   UNL     1      26.567  47.507  49.951  1.00  0.00     0.052 A 
HETATM    5  N   UNL     1      26.082  47.545  51.258  1.00  0.00    -0.228 NA
ENDROOT
BRANCH   1   6
HETATM    6  N   UNL     1      25.464  45.923  52.917  1.00  0.00    -0.287 N 
HETATM    7  C   UNL     1      26.256  45.489  53.946  1.00  0.00     0.326 C 
HETATM    8  N   UNL     1      27.610  45.591  53.761  1.00  0.00    -0.309 N 
HETATM    9  O   UNL     1      25.695  45.043  54.944  1.00  0.00    -0.247 OA
HETATM   10  H   UNL     1      27.890  46.125  52.945  1.00  0.00     0.170 HD
HETATM   11  H   UNL     1      24.470  45.863  53.081  1.00  0.00     0.172 HD
BRANCH   8  12
HETATM   12  C   UNL     1      28.646  45.126  54.593  1.00  0.00     0.036 A 
HETATM   13  C   UNL     1      29.127  45.822  55.701  1.00  0.00     0.030 A 
HETATM   14  C   UNL     1      30.145  45.277  56.492  1.00  0.00     0.009 A 
HETATM   15  C   UNL     1      30.690  44.024  56.194  1.00  0.00    -0.062 A 
HETATM   16  C   UNL     1      31.804  43.467  57.031  1.00  0.00     0.048 C 
HETATM   17  C   UNL     1      30.212  43.329  55.080  1.00  0.00     0.009 A 
HETATM   18  C   UNL     1      29.195  43.874  54.289  1.00  0.00     0.030 A 
ENDBRANCH   8  12
ENDBRANCH   1   6
BRANCH   4  19
HETATM   19  C   UNL     1      26.873  48.801  49.263  1.00  0.00     0.163 C 
BRANCH  19  20
HETATM   20  C   UNL     1      25.679  49.440  48.560  1.00  0.00     0.227 C 
HETATM   21  N   UNL     1      24.451  49.168  49.135  1.00  0.00    -0.327 N 
HETATM   22  H   UNL     1      24.481  48.692  50.036  1.00  0.00     0.169 HD
HETATM   23  O   UNL     1      25.854  50.077  47.522  1.00  0.00    -0.273 OA
BRANCH  21  24
HETATM   24  C   UNL     1      23.169  49.508  48.662  1.00  0.00     0.036 A 
HETATM   25  C   UNL     1      22.293  48.604  48.055  1.00  0.00     0.056 A 
HETATM   26  C   UNL     1      21.025  49.027  47.644  1.00  0.00     0.074 A 
HETATM   27 CL   UNL     1      19.951  47.897  46.912  1.00  0.00    -0.081 Cl
HETATM   28  C   UNL     1      20.633  50.350  47.833  1.00  0.00     0.138 A 
HETATM   29  F   UNL     1      19.419  50.770  47.447  1.00  0.00    -0.204 F 
HETATM   30  C   UNL     1      21.496  51.260  48.430  1.00  0.00     0.046 A 
HETATM   31  C   UNL     1      22.762  50.838  48.843  1.00  0.00     0.032 A 
ENDBRANCH  21  24
ENDBRANCH  19  20
ENDBRANCH   4  19
TORSDOF 5
ENDMDL
MODEL 3
REMARK VINA RESULT:      -9.5      4.707     10.218
REMARK  5 active torsions:
REMARK  status: ('A' for Active; 'I' for Inactive)
REMARK    1  A    between atoms: C_5  and  N_6 
REMARK       I    between atoms: N_6  and  C_7 
REMARK       I    between atoms: C_7  and  N_8 
REMARK    2  A    between atoms: N_8  and  C_9 
REMARK    3  A    between atoms: C_12  and  C_13 
REMARK    4  A    between atoms: C_13  and  C_14 
REMARK       I    between atoms: C_14  and  N_15 
REMARK    5  A    between atoms: N_15  and  C_16 
ROOT
HETATM    1  C   UNL     1      27.215  43.391  50.852  1.00  0.00     0.174 A 
HETATM    2  S   UNL     1      25.867  42.807  49.995  1.00  0.00    -0.062 SA
HETATM    3  C   UNL     1      25.556  44.402  49.441  1.00  0.00     0.081 A 
HETATM    4  C   UNL     1      26.502  45.275  49.947  1.00  0.00     0.052 A 
HETATM    5  N   UNL     1      27.453  44.679  50.775  1.00  0.00    -0.228 NA
ENDROOT
BRANCH   1   6
HETATM    6  N   UNL     1      27.934  42.449  51.523  1.00  0.00    -0.287 N 
HETATM    7  C   UNL     1      28.572  42.620  52.722  1.00  0.00     0.326 C 
HETATM    8  N   UNL     1      28.353  43.807  53.369  1.00  0.00    -0.309 N 
HETATM    9  O   UNL     1      29.287  41.702  53.120  1.00  0.00    -0.247 OA
HETATM   10  H   UNL     1      27.614  44.379  52.972  1.00  0.00     0.170 HD
HETATM   11  H   UNL     1      28.089  41.559  51.074  1.00  0.00     0.172 HD
BRANCH   8  12
HETATM   12  C   UNL     1      28.957  44.290  54.545  1.00  0.00     0.036 A 
HETATM   13  C   UNL     1      30.148  43.792  55.070  1.00  0.00     0.030 A 
HETATM   14  C   UNL     1      30.696  44.345  56.234  1.00  0.00     0.009 A 
HETATM   15  C   UNL     1      30.066  45.412  56.884  1.00  0.00    -0.062 A 
HETATM   16  C   UNL     1      30.646  45.973  58.148  1.00  0.00     0.048 C 
HETATM   17  C   UNL     1      28.868  45.907  56.361  1.00  0.00     0.009 A 
HETATM   18  C   UNL     1      28.321  45.353  55.199  1.00  0.00     0.030 A 
ENDBRANCH   8  12
ENDBRANCH   1   6
BRANCH   4  19
HETATM   19  C   UNL     1      26.589  46.750  49.704  1.00  0.00     0.163 C 
BRANCH  19  20
HETATM   20  C   UNL     1      25.310  47.519  50.022  1.00  0.00     0.227 C 
HETATM   21  N   UNL     1      24.697  48.106  48.930  1.00  0.00    -0.327 N 
HETATM   22  H   UNL     1      25.078  47.850  48.020  1.00  0.00     0.169 HD
HETATM   23  O   UNL     1      24.946  47.635  51.191  1.00  0.00    -0.273 OA
BRANCH  21  24
HETATM   24  C   UNL     1      23.584  48.969  48.910  1.00  0.00     0.036 A 
HETATM   25  C   UNL     1      22.270  48.557  49.148  1.00  0.00     0.056 A 
HETATM   26  C   UNL     1      21.231  49.493  49.139  1.00  0.00     0.074 A 
HETATM   27 CL   UNL     1      19.619  48.971  49.448  1.00  0.00    -0.081 Cl
HETATM   28  C   UNL     1      21.501  50.836  48.889  1.00  0.00     0.138 A 
HETATM   29  F   UNL     1      20.516  51.745  48.880  1.00  0.00    -0.204 F 
HETATM   30  C   UNL     1      22.802  51.258  48.646  1.00  0.00     0.046 A 
HETATM   31  C   UNL     1      23.841  50.325  48.656  1.00  0.00     0.032 A 
ENDBRANCH  21  24
ENDBRANCH  19  20
ENDBRANCH   4  19
TORSDOF 5
ENDMDL
MODEL 4
REMARK VINA RESULT:      -9.3      1.742      2.057
REMARK  5 active torsions:
REMARK  status: ('A' for Active; 'I' for Inactive)
REMARK    1  A    between atoms: C_5  and  N_6 
REMARK       I    between atoms: N_6  and  C_7 
REMARK       I    between atoms: C_7  and  N_8 
REMARK    2  A    between atoms: N_8  and  C_9 
REMARK    3  A    between atoms: C_12  and  C_13 
REMARK    4  A    between atoms: C_13  and  C_14 
REMARK       I    between atoms: C_14  and  N_15 
REMARK    5  A    between atoms: N_15  and  C_16 
ROOT
HETATM    1  C   UNL     1      24.715  46.842  50.002  1.00  0.00     0.174 A 
HETATM    2  S   UNL     1      26.154  47.726  49.809  1.00  0.00    -0.062 SA
HETATM    3  C   UNL     1      26.522  47.446  51.463  1.00  0.00     0.081 A 
HETATM    4  C   UNL     1      25.520  46.696  52.053  1.00  0.00     0.052 A 
HETATM    5  N   UNL     1      24.470  46.361  51.198  1.00  0.00    -0.228 NA
ENDROOT
BRANCH   1   6
HETATM    6  N   UNL     1      23.961  46.700  48.877  1.00  0.00    -0.287 N 
HETATM    7  C   UNL     1      22.883  47.466  48.523  1.00  0.00     0.326 C 
HETATM    8  N   UNL     1      22.624  48.559  49.308  1.00  0.00    -0.309 N 
HETATM    9  O   UNL     1      22.237  47.115  47.538  1.00  0.00    -0.247 OA
HETATM   10  H   UNL     1      23.350  48.782  49.981  1.00  0.00     0.170 HD
HETATM   11  H   UNL     1      24.150  45.915  48.272  1.00  0.00     0.172 HD
BRANCH   8  12
HETATM   12  C   UNL     1      21.532  49.445  49.245  1.00  0.00     0.036 A 
HETATM   13  C   UNL     1      20.263  49.154  49.741  1.00  0.00     0.030 A 
HETATM   14  C   UNL     1      19.236  50.103  49.661  1.00  0.00     0.009 A 
HETATM   15  C   UNL     1      19.466  51.360  49.092  1.00  0.00    -0.062 A 
HETATM   16  C   UNL     1      18.349  52.354  48.981  1.00  0.00     0.048 C 
HETATM   17  C   UNL     1      20.737  51.649  48.588  1.00  0.00     0.009 A 
HETATM   18  C   UNL     1      21.762  50.701  48.669  1.00  0.00     0.030 A 
ENDBRANCH   8  12
ENDBRANCH   1   6
BRANCH   4  19
HETATM   19  C   UNL     1      25.459  46.235  53.476  1.00  0.00     0.163 C 
BRANCH  19  20
HETATM   20  C   UNL     1      26.786  46.316  54.224  1.00  0.00     0.227 C 
HETATM   21  N   UNL     1      27.503  45.133  54.268  1.00  0.00    -0.327 N 
HETATM   22  H   UNL     1      27.144  44.378  53.685  1.00  0.00     0.169 HD
HETATM   23  O   UNL     1      27.104  47.362  54.788  1.00  0.00    -0.273 OA
BRANCH  21  24
HETATM   24  C   UNL     1      28.690  44.855  54.972  1.00  0.00     0.036 A 
HETATM   25  C   UNL     1      29.117  45.563  56.098  1.00  0.00     0.056 A 
HETATM   26  C   UNL     1      30.297  45.194  56.752  1.00  0.00     0.074 A 
HETATM   27 CL   UNL     1      30.801  46.068  58.148  1.00  0.00    -0.081 Cl
HETATM   28  C   UNL     1      31.053  44.124  56.280  1.00  0.00     0.138 A 
HETATM   29  F   UNL     1      32.185  43.756  56.897  1.00  0.00    -0.204 F 
HETATM   30  C   UNL     1      30.643  43.415  55.158  1.00  0.00     0.046 A 
HETATM   31  C   UNL     1      29.464  43.781  54.506  1.00  0.00     0.032 A 
ENDBRANCH  21  24
ENDBRANCH  19  20
ENDBRANCH   4  19
TORSDOF 5
ENDMDL
MODEL 5
REMARK VINA RESULT:      -9.3      4.720      8.334
REMARK  5 active torsions:
REMARK  status: ('A' for Active; 'I' for Inactive)
REMARK    1  A    between atoms: C_5  and  N_6 
REMARK       I    between atoms: N_6  and  C_7 
REMARK       I    between atoms: C_7  and  N_8 
REMARK    2  A    between atoms: N_8  and  C_9 
REMARK    3  A    between atoms: C_12  and  C_13 
REMARK    4  A    between atoms: C_13  and  C_14 
REMARK       I    between atoms: C_14  and  N_15 
REMARK    5  A    between atoms: N_15  and  C_16 
ROOT
HETATM    1  C   UNL     1      25.482  46.382  52.293  1.00  0.00     0.174 A 
HETATM    2  S   UNL     1      26.058  47.024  50.828  1.00  0.00    -0.062 SA
HETATM    3  C   UNL     1      25.311  45.724  49.991  1.00  0.00     0.081 A 
HETATM    4  C   UNL     1      24.671  44.885  50.886  1.00  0.00     0.052 A 
HETATM    5  N   UNL     1      24.787  45.271  52.222  1.00  0.00    -0.228 NA
ENDROOT
BRANCH   1   6
HETATM    6  N   UNL     1      25.783  47.106  53.407  1.00  0.00    -0.287 N 
HETATM    7  C   UNL     1      26.789  46.840  54.297  1.00  0.00     0.326 C 
HETATM    8  N   UNL     1      27.653  45.831  53.963  1.00  0.00    -0.309 N 
HETATM    9  O   UNL     1      26.835  47.521  55.320  1.00  0.00    -0.247 OA
HETATM   10  H   UNL     1      27.557  45.486  53.013  1.00  0.00     0.170 HD
HETATM   11  H   UNL     1      25.173  47.868  53.660  1.00  0.00     0.172 HD
BRANCH   8  12
HETATM   12  C   UNL     1      28.695  45.278  54.730  1.00  0.00     0.036 A 
HETATM   13  C   UNL     1      29.301  45.928  55.804  1.00  0.00     0.030 A 
HETATM   14  C   UNL     1      30.317  45.297  56.533  1.00  0.00     0.009 A 
HETATM   15  C   UNL     1      30.735  44.003  56.204  1.00  0.00    -0.062 A 
HETATM   16  C   UNL     1      31.847  43.352  56.971  1.00  0.00     0.048 C 
HETATM   17  C   UNL     1      30.132  43.354  55.123  1.00  0.00     0.009 A 
HETATM   18  C   UNL     1      29.117  43.985  54.396  1.00  0.00     0.030 A 
ENDBRANCH   8  12
ENDBRANCH   1   6
BRANCH   4  19
HETATM   19  C   UNL     1      23.901  43.642  50.565  1.00  0.00     0.163 C 
BRANCH  19  20
HETATM   20  C   UNL     1      24.763  42.399  50.367  1.00  0.00     0.227 C 
HETATM   21  N   UNL     1      25.873  42.323  51.189  1.00  0.00    -0.327 N 
HETATM   22  H   UNL     1      25.923  43.023  51.928  1.00  0.00     0.169 HD
HETATM   23  O   UNL     1      24.481  41.599  49.476  1.00  0.00    -0.273 OA
BRANCH  21  24
HETATM   24  C   UNL     1      26.913  41.375  51.169  1.00  0.00     0.036 A 
HETATM   25  C   UNL     1      27.201  40.551  50.077  1.00  0.00     0.056 A 
HETATM   26  C   UNL     1      28.276  39.659  50.138  1.00  0.00     0.074 A 
HETATM   27 CL   UNL     1      28.627  38.661  48.778  1.00  0.00    -0.081 Cl
HETATM   28  C   UNL     1      29.060  39.584  51.287  1.00  0.00     0.138 A 
HETATM   29  F   UNL     1      30.096  38.736  51.359  1.00  0.00    -0.204 F 
HETATM   30  C   UNL     1      28.782  40.393  52.381  1.00  0.00     0.046 A 
HETATM   31  C   UNL     1      27.710  41.286  52.321  1.00  0.00     0.032 A 
ENDBRANCH  21  24
ENDBRANCH  19  20
ENDBRANCH   4  19
TORSDOF 5
ENDMDL
MODEL 6
REMARK VINA RESULT:      -9.1      7.560      9.901
REMARK  5 active torsions:
REMARK  status: ('A' for Active; 'I' for Inactive)
REMARK    1  A    between atoms: C_5  and  N_6 
REMARK       I    between atoms: N_6  and  C_7 
REMARK       I    between atoms: C_7  and  N_8 
REMARK    2  A    between atoms: N_8  and  C_9 
REMARK    3  A    between atoms: C_12  and  C_13 
REMARK    4  A    between atoms: C_13  and  C_14 
REMARK       I    between atoms: C_14  and  N_15 
REMARK    5  A    between atoms: N_15  and  C_16 
ROOT
HETATM    1  C   UNL     1      23.435  47.161  49.098  1.00  0.00     0.174 A 
HETATM    2  S   UNL     1      24.332  45.983  49.934  1.00  0.00    -0.062 SA
HETATM    3  C   UNL     1      23.385  44.762  49.183  1.00  0.00     0.081 A 
HETATM    4  C   UNL     1      22.447  45.336  48.344  1.00  0.00     0.052 A 
HETATM    5  N   UNL     1      22.477  46.730  48.311  1.00  0.00    -0.228 NA
ENDROOT
BRANCH   1   6
HETATM    6  N   UNL     1      23.820  48.450  49.314  1.00  0.00    -0.287 N 
HETATM    7  C   UNL     1      22.994  49.537  49.405  1.00  0.00     0.326 C 
HETATM    8  N   UNL     1      21.647  49.284  49.413  1.00  0.00    -0.309 N 
HETATM    9  O   UNL     1      23.521  50.646  49.469  1.00  0.00    -0.247 OA
HETATM   10  H   UNL     1      21.399  48.305  49.510  1.00  0.00     0.170 HD
HETATM   11  H   UNL     1      24.808  48.655  49.334  1.00  0.00     0.172 HD
BRANCH   8  12
HETATM   12  C   UNL     1      20.582  50.204  49.386  1.00  0.00     0.036 A 
HETATM   13  C   UNL     1      20.549  51.334  48.571  1.00  0.00     0.030 A 
HETATM   14  C   UNL     1      19.438  52.186  48.587  1.00  0.00     0.009 A 
HETATM   15  C   UNL     1      18.340  51.916  49.410  1.00  0.00    -0.062 A 
HETATM   16  C   UNL     1      17.172  52.855  49.443  1.00  0.00     0.048 C 
HETATM   17  C   UNL     1      18.377  50.786  50.232  1.00  0.00     0.009 A 
HETATM   18  C   UNL     1      19.487  49.936  50.217  1.00  0.00     0.030 A 
ENDBRANCH   8  12
ENDBRANCH   1   6
BRANCH   4  19
HETATM   19  C   UNL     1      21.433  44.623  47.504  1.00  0.00     0.163 C 
BRANCH  19  20
HETATM   20  C   UNL     1      20.007  45.145  47.657  1.00  0.00     0.227 C 
HETATM   21  N   UNL     1      19.858  46.503  47.437  1.00  0.00    -0.327 N 
HETATM   22  H   UNL     1      20.676  46.981  47.063  1.00  0.00     0.169 HD
HETATM   23  O   UNL     1      19.116  44.381  48.023  1.00  0.00    -0.273 OA
BRANCH  21  24
HETATM   24  C   UNL     1      18.708  47.296  47.613  1.00  0.00     0.036 A 
HETATM   25  C   UNL     1      18.436  48.454  46.880  1.00  0.00     0.056 A 
HETATM   26  C   UNL     1      17.250  49.161  47.104  1.00  0.00     0.074 A 
HETATM   27 CL   UNL     1      16.923  50.579  46.181  1.00  0.00    -0.081 Cl
HETATM   28  C   UNL     1      16.339  48.717  48.059  1.00  0.00     0.138 A 
HETATM   29  F   UNL     1      15.197  49.382  48.283  1.00  0.00    -0.204 F 
HETATM   30  C   UNL     1      16.600  47.570  48.798  1.00  0.00     0.046 A 
HETATM   31  C   UNL     1      17.783  46.862  48.575  1.00  0.00     0.032 A 
ENDBRANCH  21  24
ENDBRANCH  19  20
ENDBRANCH   4  19
TORSDOF 5
ENDMDL
MODEL 7
REMARK VINA RESULT:      -9.0      2.430      3.016
REMARK  5 active torsions:
REMARK  status: ('A' for Active; 'I' for Inactive)
REMARK    1  A    between atoms: C_5  and  N_6 
REMARK       I    between atoms: N_6  and  C_7 
REMARK       I    between atoms: C_7  and  N_8 
REMARK    2  A    between atoms: N_8  and  C_9 
REMARK    3  A    between atoms: C_12  and  C_13 
REMARK    4  A    between atoms: C_13  and  C_14 
REMARK       I    between atoms: C_14  and  N_15 
REMARK    5  A    between atoms: N_15  and  C_16 
ROOT
HETATM    1  C   UNL     1      23.631  46.282  49.336  1.00  0.00     0.174 A 
HETATM    2  S   UNL     1      24.528  47.583  49.965  1.00  0.00    -0.062 SA
HETATM    3  C   UNL     1      25.115  46.549  51.205  1.00  0.00     0.081 A 
HETATM    4  C   UNL     1      24.586  45.279  51.055  1.00  0.00     0.052 A 
HETATM    5  N   UNL     1      23.717  45.139  49.974  1.00  0.00    -0.228 NA
ENDROOT
BRANCH   1   6
HETATM    6  N   UNL     1      22.922  46.555  48.205  1.00  0.00    -0.287 N 
HETATM    7  C   UNL     1      21.932  47.491  48.077  1.00  0.00     0.326 C 
HETATM    8  N   UNL     1      21.730  48.320  49.148  1.00  0.00    -0.309 N 
HETATM    9  O   UNL     1      21.305  47.512  47.019  1.00  0.00    -0.247 OA
HETATM   10  H   UNL     1      22.440  48.263  49.871  1.00  0.00     0.170 HD
HETATM   11  H   UNL     1      23.072  45.970  47.396  1.00  0.00     0.172 HD
BRANCH   8  12
HETATM   12  C   UNL     1      20.723  49.286  49.333  1.00  0.00     0.036 A 
HETATM   13  C   UNL     1      19.517  49.039  49.988  1.00  0.00     0.030 A 
HETATM   14  C   UNL     1      18.577  50.064  50.151  1.00  0.00     0.009 A 
HETATM   15  C   UNL     1      18.832  51.352  49.671  1.00  0.00    -0.062 A 
HETATM   16  C   UNL     1      17.802  52.432  49.823  1.00  0.00     0.048 C 
HETATM   17  C   UNL     1      20.038  51.598  49.009  1.00  0.00     0.009 A 
HETATM   18  C   UNL     1      20.977  50.574  48.845  1.00  0.00     0.030 A 
ENDBRANCH   8  12
ENDBRANCH   1   6
BRANCH   4  19
HETATM   19  C   UNL     1      24.847  44.087  51.923  1.00  0.00     0.163 C 
BRANCH  19  20
HETATM   20  C   UNL     1      25.562  44.403  53.233  1.00  0.00     0.227 C 
HETATM   21  N   UNL     1      26.906  44.706  53.103  1.00  0.00    -0.327 N 
HETATM   22  H   UNL     1      27.241  44.824  52.148  1.00  0.00     0.169 HD
HETATM   23  O   UNL     1      24.954  44.305  54.297  1.00  0.00    -0.273 OA
BRANCH  21  24
HETATM   24  C   UNL     1      27.856  44.924  54.120  1.00  0.00     0.036 A 
HETATM   25  C   UNL     1      28.849  44.007  54.473  1.00  0.00     0.056 A 
HETATM   26  C   UNL     1      29.770  44.324  55.477  1.00  0.00     0.074 A 
HETATM   27 CL   UNL     1      30.997  43.189  55.890  1.00  0.00    -0.081 Cl
HETATM   28  C   UNL     1      29.697  45.552  56.130  1.00  0.00     0.138 A 
HETATM   29  F   UNL     1      30.574  45.872  57.093  1.00  0.00    -0.204 F 
HETATM   30  C   UNL     1      28.711  46.470  55.792  1.00  0.00     0.046 A 
HETATM   31  C   UNL     1      27.792  46.155  54.789  1.00  0.00     0.032 A 
ENDBRANCH  21  24
ENDBRANCH  19  20
ENDBRANCH   4  19
TORSDOF 5
ENDMDL
MODEL 8
REMARK VINA RESULT:      -8.9     12.080     13.807
REMARK  5 active torsions:
REMARK  status: ('A' for Active; 'I' for Inactive)
REMARK    1  A    between atoms: C_5  and  N_6 
REMARK       I    between atoms: N_6  and  C_7 
REMARK       I    between atoms: C_7  and  N_8 
REMARK    2  A    between atoms: N_8  and  C_9 
REMARK    3  A    between atoms: C_12  and  C_13 
REMARK    4  A    between atoms: C_13  and  C_14 
REMARK       I    between atoms: C_14  and  N_15 
REMARK    5  A    between atoms: N_15  and  C_16 
ROOT
HETATM    1  C   UNL     1      26.828  49.917  38.796  1.00  0.00     0.174 A 
HETATM    2  S   UNL     1      25.186  49.475  38.818  1.00  0.00    -0.062 SA
HETATM    3  C   UNL     1      25.626  47.958  39.490  1.00  0.00     0.081 A 
HETATM    4  C   UNL     1      26.999  47.889  39.653  1.00  0.00     0.052 A 
HETATM    5  N   UNL     1      27.687  49.028  39.236  1.00  0.00    -0.228 NA
ENDROOT
BRANCH   1   6
HETATM    6  N   UNL     1      27.088  51.174  38.340  1.00  0.00    -0.287 N 
HETATM    7  C   UNL     1      28.297  51.816  38.382  1.00  0.00     0.326 C 
HETATM    8  N   UNL     1      29.370  51.074  38.799  1.00  0.00    -0.309 N 
HETATM    9  O   UNL     1      28.322  52.999  38.047  1.00  0.00    -0.247 OA
HETATM   10  H   UNL     1      29.193  50.079  38.884  1.00  0.00     0.170 HD
HETATM   11  H   UNL     1      26.315  51.730  38.008  1.00  0.00     0.172 HD
BRANCH   8  12
HETATM   12  C   UNL     1      30.690  51.500  39.041  1.00  0.00     0.036 A 
HETATM   13  C   UNL     1      31.047  52.398  40.046  1.00  0.00     0.030 A 
HETATM   14  C   UNL     1      32.389  52.751  40.236  1.00  0.00     0.009 A 
HETATM   15  C   UNL     1      33.394  52.205  39.431  1.00  0.00    -0.062 A 
HETATM   16  C   UNL     1      34.822  52.618  39.624  1.00  0.00     0.048 C 
HETATM   17  C   UNL     1      33.035  51.310  38.420  1.00  0.00     0.009 A 
HETATM   18  C   UNL     1      31.694  50.958  38.230  1.00  0.00     0.030 A 
ENDBRANCH   8  12
ENDBRANCH   1   6
BRANCH   4  19
HETATM   19  C   UNL     1      27.784  46.742  40.208  1.00  0.00     0.163 C 
BRANCH  19  20
HETATM   20  C   UNL     1      29.262  47.041  40.437  1.00  0.00     0.227 C 
HETATM   21  N   UNL     1      29.516  48.118  41.268  1.00  0.00    -0.327 N 
HETATM   22  H   UNL     1      28.704  48.507  41.746  1.00  0.00     0.169 HD
HETATM   23  O   UNL     1      30.115  46.385  39.842  1.00  0.00    -0.273 OA
BRANCH  21  24
HETATM   24  C   UNL     1      30.755  48.711  41.577  1.00  0.00     0.036 A 
HETATM   25  C   UNL     1      30.932  49.688  42.560  1.00  0.00     0.056 A 
HETATM   26  C   UNL     1      32.208  50.198  42.819  1.00  0.00     0.074 A 
HETATM   27 CL   UNL     1      32.411  51.390  44.045  1.00  0.00    -0.081 Cl
HETATM   28  C   UNL     1      33.305  49.738  42.095  1.00  0.00     0.138 A 
HETATM   29  F   UNL     1      34.536  50.215  42.333  1.00  0.00    -0.204 F 
HETATM   30  C   UNL     1      33.143  48.771  41.111  1.00  0.00     0.046 A 
HETATM   31  C   UNL     1      31.869  48.260  40.853  1.00  0.00     0.032 A 
ENDBRANCH  21  24
ENDBRANCH  19  20
ENDBRANCH   4  19
TORSDOF 5
ENDMDL
MODEL 9
REMARK VINA RESULT:      -8.9      5.078      8.650
REMARK  5 active torsions:
REMARK  status: ('A' for Active; 'I' for Inactive)
REMARK    1  A    between atoms: C_5  and  N_6 
REMARK       I    between atoms: N_6  and  C_7 
REMARK       I    between atoms: C_7  and  N_8 
REMARK    2  A    between atoms: N_8  and  C_9 
REMARK    3  A    between atoms: C_12  and  C_13 
REMARK    4  A    between atoms: C_13  and  C_14 
REMARK       I    between atoms: C_14  and  N_15 
REMARK    5  A    between atoms: N_15  and  C_16 
ROOT
HETATM    1  C   UNL     1      26.179  40.187  48.492  1.00  0.00     0.174 A 
HETATM    2  S   UNL     1      26.275  40.393  46.807  1.00  0.00    -0.062 SA
HETATM    3  C   UNL     1      24.833  41.325  46.861  1.00  0.00     0.081 A 
HETATM    4  C   UNL     1      24.374  41.415  48.164  1.00  0.00     0.052 A 
HETATM    5  N   UNL     1      25.156  40.741  49.100  1.00  0.00    -0.228 NA
ENDROOT
BRANCH   1   6
HETATM    6  N   UNL     1      27.197  39.476  49.052  1.00  0.00    -0.287 N 
HETATM    7  C   UNL     1      27.923  39.835  50.156  1.00  0.00     0.326 C 
HETATM    8  N   UNL     1      27.495  40.944  50.837  1.00  0.00    -0.309 N 
HETATM    9  O   UNL     1      28.894  39.140  50.446  1.00  0.00    -0.247 OA
HETATM   10  H   UNL     1      26.589  41.299  50.547  1.00  0.00     0.170 HD
HETATM   11  H   UNL     1      27.513  38.643  48.579  1.00  0.00     0.172 HD
BRANCH   8  12
HETATM   12  C   UNL     1      28.106  41.596  51.925  1.00  0.00     0.036 A 
HETATM   13  C   UNL     1      28.156  41.074  53.216  1.00  0.00     0.030 A 
HETATM   14  C   UNL     1      28.806  41.775  54.239  1.00  0.00     0.009 A 
HETATM   15  C   UNL     1      29.423  43.004  53.984  1.00  0.00    -0.062 A 
HETATM   16  C   UNL     1      30.086  43.761  55.096  1.00  0.00     0.048 C 
HETATM   17  C   UNL     1      29.367  43.530  52.690  1.00  0.00     0.009 A 
HETATM   18  C   UNL     1      28.717  42.829  51.669  1.00  0.00     0.030 A 
ENDBRANCH   8  12
ENDBRANCH   1   6
BRANCH   4  19
HETATM   19  C   UNL     1      23.152  42.138  48.640  1.00  0.00     0.163 C 
BRANCH  19  20
HETATM   20  C   UNL     1      23.368  42.989  49.888  1.00  0.00     0.227 C 
HETATM   21  N   UNL     1      24.645  43.505  50.027  1.00  0.00    -0.327 N 
HETATM   22  H   UNL     1      25.259  43.383  49.223  1.00  0.00     0.169 HD
HETATM   23  O   UNL     1      22.459  43.108  50.708  1.00  0.00    -0.273 OA
BRANCH  21  24
HETATM   24  C   UNL     1      25.185  44.220  51.112  1.00  0.00     0.036 A 
HETATM   25  C   UNL     1      25.292  43.713  52.409  1.00  0.00     0.056 A 
HETATM   26  C   UNL     1      25.874  44.487  53.418  1.00  0.00     0.074 A 
HETATM   27 CL   UNL     1      26.012  43.840  55.009  1.00  0.00    -0.081 Cl
HETATM   28  C   UNL     1      26.343  45.767  53.136  1.00  0.00     0.138 A 
HETATM   29  F   UNL     1      26.905  46.521  54.091  1.00  0.00    -0.204 F 
HETATM   30  C   UNL     1      26.238  46.286  51.851  1.00  0.00     0.046 A 
HETATM   31  C   UNL     1      25.659  45.513  50.842  1.00  0.00     0.032 A 
ENDBRANCH  21  24
ENDBRANCH  19  20
ENDBRANCH   4  19
TORSDOF 5
ENDMDL
MODEL 10
REMARK VINA RESULT:      -8.8      5.740     10.900
REMARK  5 active torsions:
REMARK  status: ('A' for Active; 'I' for Inactive)
REMARK    1  A    between atoms: C_5  and  N_6 
REMARK       I    between atoms: N_6  and  C_7 
REMARK       I    between atoms: C_7  and  N_8 
REMARK    2  A    between atoms: N_8  and  C_9 
REMARK    3  A    between atoms: C_12  and  C_13 
REMARK    4  A    between atoms: C_13  and  C_14 
REMARK       I    between atoms: C_14  and  N_15 
REMARK    5  A    between atoms: N_15  and  C_16 
ROOT
HETATM    1  C   UNL     1      24.886  44.030  48.947  1.00  0.00     0.174 A 
HETATM    2  S   UNL     1      23.286  43.510  48.698  1.00  0.00    -0.062 SA
HETATM    3  C   UNL     1      22.740  45.102  49.040  1.00  0.00     0.081 A 
HETATM    4  C   UNL     1      23.817  45.925  49.321  1.00  0.00     0.052 A 
HETATM    5  N   UNL     1      25.057  45.288  49.277  1.00  0.00    -0.228 NA
ENDROOT
BRANCH   1   6
HETATM    6  N   UNL     1      25.845  43.081  48.756  1.00  0.00    -0.287 N 
HETATM    7  C   UNL     1      26.847  42.754  49.631  1.00  0.00     0.326 C 
HETATM    8  N   UNL     1      26.798  43.344  50.866  1.00  0.00    -0.309 N 
HETATM    9  O   UNL     1      27.705  41.966  49.240  1.00  0.00    -0.247 OA
HETATM   10  H   UNL     1      25.936  43.842  51.066  1.00  0.00     0.170 HD
HETATM   11  H   UNL     1      25.885  42.618  47.860  1.00  0.00     0.172 HD
BRANCH   8  12
HETATM   12  C   UNL     1      27.742  43.278  51.908  1.00  0.00     0.036 A 
HETATM   13  C   UNL     1      28.729  42.298  52.004  1.00  0.00     0.030 A 
HETATM   14  C   UNL     1      29.647  42.318  53.060  1.00  0.00     0.009 A 
HETATM   15  C   UNL     1      29.599  43.324  54.031  1.00  0.00    -0.062 A 
HETATM   16  C   UNL     1      30.567  43.314  55.176  1.00  0.00     0.048 C 
HETATM   17  C   UNL     1      28.605  44.302  53.939  1.00  0.00     0.009 A 
HETATM   18  C   UNL     1      27.688  44.281  52.883  1.00  0.00     0.030 A 
ENDBRANCH   8  12
ENDBRANCH   1   6
BRANCH   4  19
HETATM   19  C   UNL     1      23.772  47.381  49.666  1.00  0.00     0.163 C 
BRANCH  19  20
HETATM   20  C   UNL     1      22.754  48.188  48.866  1.00  0.00     0.227 C 
HETATM   21  N   UNL     1      21.870  48.930  49.629  1.00  0.00    -0.327 N 
HETATM   22  H   UNL     1      22.076  48.971  50.626  1.00  0.00     0.169 HD
HETATM   23  O   UNL     1      22.726  48.087  47.640  1.00  0.00    -0.273 OA
BRANCH  21  24
HETATM   24  C   UNL     1      20.756  49.676  49.198  1.00  0.00     0.036 A 
HETATM   25  C   UNL     1      19.483  49.136  48.996  1.00  0.00     0.056 A 
HETATM   26  C   UNL     1      18.428  49.962  48.598  1.00  0.00     0.074 A 
HETATM   27 CL   UNL     1      16.861  49.284  48.368  1.00  0.00    -0.081 Cl
HETATM   28  C   UNL     1      18.642  51.323  48.395  1.00  0.00     0.138 A 
HETATM   29  F   UNL     1      17.640  52.129  48.016  1.00  0.00    -0.204 F 
HETATM   30  C   UNL     1      19.904  51.872  48.587  1.00  0.00     0.046 A 
HETATM   31  C   UNL     1      20.958  51.048  48.987  1.00  0.00     0.032 A 
ENDBRANCH  21  24
ENDBRANCH  19  20
ENDBRANCH   4  19
TORSDOF 5
ENDMDL
