MODEL 1
REMARK VINA RESULT:     -12.3      0.000      0.000
REMARK  6 active torsions:
REMARK  status: ('A' for Active; 'I' for Inactive)
REMARK    1  A    between atoms: C_8  and  N_9 
REMARK       I    between atoms: N_9  and  C_10 
REMARK    2  A    between atoms: C_10  and  C_12 
REMARK    3  A    between atoms: C_16  and  C_17 
REMARK    4  A    between atoms: C_17  and  N_18 
REMARK       I    between atoms: N_18  and  C_19 
REMARK    5  A    between atoms: C_19  and  C_21 
REMARK    6  A    between atoms: C_25  and  C_31 
REMARK       I    between atoms: C_31  and  N_33 
ROOT
HETATM    1  C   UNL     1      24.168  49.211  48.643  1.00  0.00     0.032 A 
HETATM    2  C   UNL     1      25.473  49.696  48.498  1.00  0.00     0.017 A 
HETATM    3  C   UNL     1      26.540  49.003  49.072  1.00  0.00     0.002 A 
HETATM    4  C   UNL     1      26.310  47.831  49.796  1.00  0.00     0.009 A 
HETATM    5  C   UNL     1      25.009  47.333  49.951  1.00  0.00    -0.040 A 
HETATM    6  C   UNL     1      23.941  48.038  49.379  1.00  0.00     0.026 A 
ENDROOT
BRANCH   5   7
HETATM    7  C   UNL     1      24.755  46.087  50.758  1.00  0.00     0.161 C 
BRANCH   7   8
HETATM    8  N   UNL     1      25.837  45.838  51.679  1.00  0.00    -0.351 N 
HETATM    9  C   UNL     1      25.734  44.931  52.708  1.00  0.00     0.268 C 
HETATM   10  O   UNL     1      24.703  44.290  52.897  1.00  0.00    -0.266 OA
HETATM   11  H   UNL     1      26.731  46.254  51.471  1.00  0.00     0.163 HD
BRANCH   9  12
HETATM   12  C   UNL     1      26.921  44.808  53.546  1.00  0.00     0.103 A 
HETATM   13  C   UNL     1      27.261  45.485  54.709  1.00  0.00     0.049 A 
HETATM   14  C   UNL     1      28.489  44.975  55.203  1.00  0.00    -0.006 A 
HETATM   15  C   UNL     1      29.271  45.263  56.340  1.00  0.00     0.030 A 
HETATM   16  C   UNL     1      28.908  43.982  54.320  1.00  0.00     0.045 A 
HETATM   17  C   UNL     1      30.456  44.548  56.575  1.00  0.00     0.032 A 
HETATM   18  C   UNL     1      30.850  43.547  55.683  1.00  0.00     0.019 A 
HETATM   19  C   UNL     1      30.089  43.254  54.542  1.00  0.00     0.031 A 
HETATM   20  N   UNL     1      27.961  43.915  53.313  1.00  0.00    -0.346 N 
HETATM   21  C   UNL     1      28.032  43.021  52.172  1.00  0.00     0.156 C 
BRANCH  17  22
HETATM   22  C   UNL     1      31.230  44.878  57.805  1.00  0.00     0.249 C 
HETATM   23  O   UNL     1      32.121  44.145  58.220  1.00  0.00    -0.268 OA
HETATM   24  N   UNL     1      30.906  46.017  58.488  1.00  0.00    -0.366 N 
HETATM   25  H   UNL     1      30.067  46.550  58.323  1.00  0.00     0.159 HD
HETATM   26  H   UNL     1      31.396  46.167  59.361  1.00  0.00     0.159 HD
ENDBRANCH  17  22
ENDBRANCH   9  12
ENDBRANCH   7   8
ENDBRANCH   5   7
BRANCH   1  27
HETATM   27  C   UNL     1      22.985  49.921  48.078  1.00  0.00     0.256 C 
HETATM   28  N   UNL     1      21.843  49.878  48.857  1.00  0.00    -0.323 N 
HETATM   29  H   UNL     1      21.922  49.452  49.769  1.00  0.00     0.169 HD
HETATM   30  O   UNL     1      23.128  50.505  47.010  1.00  0.00    -0.267 OA
BRANCH  28  31
HETATM   31  C   UNL     1      20.587  50.454  48.560  1.00  0.00     0.035 A 
HETATM   32  C   UNL     1      20.307  51.814  48.681  1.00  0.00     0.030 A 
HETATM   33  C   UNL     1      19.036  52.309  48.374  1.00  0.00     0.010 A 
HETATM   34  C   UNL     1      18.026  51.450  47.930  1.00  0.00    -0.048 A 
HETATM   35  C   UNL     1      16.645  51.984  47.649  1.00  0.00     0.069 C 
HETATM   36  C   UNL     1      18.288  50.076  47.813  1.00  0.00    -0.022 A 
HETATM   37  C   UNL     1      15.792  51.009  46.829  1.00  0.00     0.277 C 
HETATM   38  N   UNL     1      15.856  49.656  47.402  1.00  0.00     0.088 N 
HETATM   39  C   UNL     1      14.911  48.764  46.734  1.00  0.00     0.310 C 
HETATM   40  C   UNL     1      17.227  49.127  47.291  1.00  0.00     0.311 C 
HETATM   41  C   UNL     1      19.573  49.593  48.117  1.00  0.00     0.039 A 
ENDBRANCH  28  31
ENDBRANCH   1  27
TORSDOF 6
ENDMDL
MODEL 2
REMARK VINA RESULT:     -11.9      2.240     13.055
REMARK  6 active torsions:
REMARK  status: ('A' for Active; 'I' for Inactive)
REMARK    1  A    between atoms: C_8  and  N_9 
REMARK       I    between atoms: N_9  and  C_10 
REMARK    2  A    between atoms: C_10  and  C_12 
REMARK    3  A    between atoms: C_16  and  C_17 
REMARK    4  A    between atoms: C_17  and  N_18 
REMARK       I    between atoms: N_18  and  C_19 
REMARK    5  A    between atoms: C_19  and  C_21 
REMARK    6  A    between atoms: C_25  and  C_31 
REMARK       I    between atoms: C_31  and  N_33 
ROOT
HETATM    1  C   UNL     1      24.706  45.043  51.125  1.00  0.00     0.032 A 
HETATM    2  C   UNL     1      23.892  44.186  50.375  1.00  0.00     0.017 A 
HETATM    3  C   UNL     1      23.128  44.697  49.324  1.00  0.00     0.002 A 
HETATM    4  C   UNL     1      23.167  46.061  49.024  1.00  0.00     0.009 A 
HETATM    5  C   UNL     1      23.976  46.931  49.766  1.00  0.00    -0.040 A 
HETATM    6  C   UNL     1      24.735  46.413  50.825  1.00  0.00     0.026 A 
ENDROOT
BRANCH   5   7
HETATM    7  C   UNL     1      23.995  48.407  49.465  1.00  0.00     0.161 C 
BRANCH   7   8
HETATM    8  N   UNL     1      22.666  48.965  49.533  1.00  0.00    -0.351 N 
HETATM    9  C   UNL     1      22.095  49.638  48.478  1.00  0.00     0.268 C 
HETATM   10  O   UNL     1      22.699  49.802  47.421  1.00  0.00    -0.266 OA
HETATM   11  H   UNL     1      22.105  48.735  50.338  1.00  0.00     0.163 HD
BRANCH   9  12
HETATM   12  C   UNL     1      20.748  50.141  48.719  1.00  0.00     0.103 A 
HETATM   13  C   UNL     1      20.335  51.289  49.381  1.00  0.00     0.049 A 
HETATM   14  C   UNL     1      18.921  51.387  49.304  1.00  0.00    -0.006 A 
HETATM   15  C   UNL     1      17.990  52.341  49.762  1.00  0.00     0.030 A 
HETATM   16  C   UNL     1      18.469  50.276  48.596  1.00  0.00     0.045 A 
HETATM   17  C   UNL     1      16.622  52.167  49.498  1.00  0.00     0.032 A 
HETATM   18  C   UNL     1      16.192  51.052  48.774  1.00  0.00     0.019 A 
HETATM   19  C   UNL     1      17.104  50.088  48.319  1.00  0.00     0.031 A 
HETATM   20  N   UNL     1      19.585  49.523  48.274  1.00  0.00    -0.346 N 
HETATM   21  C   UNL     1      19.551  48.263  47.555  1.00  0.00     0.156 C 
BRANCH  17  22
HETATM   22  C   UNL     1      15.685  53.219  49.985  1.00  0.00     0.249 C 
HETATM   23  O   UNL     1      14.736  52.948  50.711  1.00  0.00    -0.268 OA
HETATM   24  N   UNL     1      15.893  54.508  49.580  1.00  0.00    -0.366 N 
HETATM   25  H   UNL     1      16.518  54.768  48.834  1.00  0.00     0.159 HD
HETATM   26  H   UNL     1      15.191  55.181  49.863  1.00  0.00     0.159 HD
ENDBRANCH  17  22
ENDBRANCH   9  12
ENDBRANCH   7   8
ENDBRANCH   5   7
BRANCH   1  27
HETATM   27  C   UNL     1      25.523  44.562  52.276  1.00  0.00     0.256 C 
HETATM   28  N   UNL     1      26.892  44.601  52.084  1.00  0.00    -0.323 N 
HETATM   29  H   UNL     1      27.228  45.024  51.231  1.00  0.00     0.169 HD
HETATM   30  O   UNL     1      24.930  44.214  53.290  1.00  0.00    -0.267 OA
BRANCH  28  31
HETATM   31  C   UNL     1      27.893  44.199  52.998  1.00  0.00     0.035 A 
HETATM   32  C   UNL     1      28.610  43.008  52.891  1.00  0.00     0.030 A 
HETATM   33  C   UNL     1      29.582  42.676  53.840  1.00  0.00     0.010 A 
HETATM   34  C   UNL     1      29.860  43.538  54.906  1.00  0.00    -0.048 A 
HETATM   35  C   UNL     1      30.874  43.149  55.951  1.00  0.00     0.069 C 
HETATM   36  C   UNL     1      29.139  44.736  55.033  1.00  0.00    -0.022 A 
HETATM   37  C   UNL     1      31.321  44.339  56.809  1.00  0.00     0.277 C 
HETATM   38  N   UNL     1      30.157  45.097  57.290  1.00  0.00     0.088 N 
HETATM   39  C   UNL     1      30.564  46.122  58.249  1.00  0.00     0.310 C 
HETATM   40  C   UNL     1      29.450  45.710  56.152  1.00  0.00     0.311 C 
HETATM   41  C   UNL     1      28.170  45.061  54.068  1.00  0.00     0.039 A 
ENDBRANCH  28  31
ENDBRANCH   1  27
TORSDOF 6
ENDMDL
MODEL 3
REMARK VINA RESULT:     -11.2      2.097      3.158
REMARK  6 active torsions:
REMARK  status: ('A' for Active; 'I' for Inactive)
REMARK    1  A    between atoms: C_8  and  N_9 
REMARK       I    between atoms: N_9  and  C_10 
REMARK    2  A    between atoms: C_10  and  C_12 
REMARK    3  A    between atoms: C_16  and  C_17 
REMARK    4  A    between atoms: C_17  and  N_18 
REMARK       I    between atoms: N_18  and  C_19 
REMARK    5  A    between atoms: C_19  and  C_21 
REMARK    6  A    between atoms: C_25  and  C_31 
REMARK       I    between atoms: C_31  and  N_33 
ROOT
HETATM    1  C   UNL     1      23.067  45.180  49.000  1.00  0.00     0.032 A 
HETATM    2  C   UNL     1      22.270  44.162  49.537  1.00  0.00     0.017 A 
HETATM    3  C   UNL     1      22.868  43.002  50.035  1.00  0.00     0.002 A 
HETATM    4  C   UNL     1      24.256  42.852  49.993  1.00  0.00     0.009 A 
HETATM    5  C   UNL     1      25.066  43.863  49.458  1.00  0.00    -0.040 A 
HETATM    6  C   UNL     1      24.459  45.021  48.951  1.00  0.00     0.026 A 
ENDROOT
BRANCH   5   7
HETATM    7  C   UNL     1      26.560  43.689  49.381  1.00  0.00     0.161 C 
BRANCH   7   8
HETATM    8  N   UNL     1      27.175  43.935  50.663  1.00  0.00    -0.351 N 
HETATM    9  C   UNL     1      27.588  42.915  51.489  1.00  0.00     0.268 C 
HETATM   10  O   UNL     1      27.443  41.737  51.174  1.00  0.00    -0.266 OA
HETATM   11  H   UNL     1      27.419  44.886  50.888  1.00  0.00     0.163 HD
BRANCH   9  12
HETATM   12  C   UNL     1      28.183  43.342  52.750  1.00  0.00     0.103 A 
HETATM   13  C   UNL     1      29.212  42.768  53.484  1.00  0.00     0.049 A 
HETATM   14  C   UNL     1      29.487  43.582  54.614  1.00  0.00    -0.006 A 
HETATM   15  C   UNL     1      30.428  43.502  55.659  1.00  0.00     0.030 A 
HETATM   16  C   UNL     1      28.604  44.659  54.571  1.00  0.00     0.045 A 
HETATM   17  C   UNL     1      30.472  44.504  56.642  1.00  0.00     0.032 A 
HETATM   18  C   UNL     1      29.586  45.582  56.571  1.00  0.00     0.019 A 
HETATM   19  C   UNL     1      28.636  45.673  55.543  1.00  0.00     0.031 A 
HETATM   20  N   UNL     1      27.808  44.481  53.452  1.00  0.00    -0.346 N 
HETATM   21  C   UNL     1      26.735  45.373  53.054  1.00  0.00     0.156 C 
BRANCH  17  22
HETATM   22  C   UNL     1      31.503  44.381  57.710  1.00  0.00     0.249 C 
HETATM   23  O   UNL     1      32.335  43.480  57.700  1.00  0.00    -0.268 OA
HETATM   24  N   UNL     1      31.490  45.290  58.731  1.00  0.00    -0.366 N 
HETATM   25  H   UNL     1      30.726  45.922  58.910  1.00  0.00     0.159 HD
HETATM   26  H   UNL     1      32.152  45.128  59.480  1.00  0.00     0.159 HD
ENDBRANCH  17  22
ENDBRANCH   9  12
ENDBRANCH   7   8
ENDBRANCH   5   7
BRANCH   1  27
HETATM   27  C   UNL     1      22.486  46.428  48.428  1.00  0.00     0.256 C 
HETATM   28  N   UNL     1      22.084  47.372  49.356  1.00  0.00    -0.323 N 
HETATM   29  H   UNL     1      22.290  47.182  50.327  1.00  0.00     0.169 HD
HETATM   30  O   UNL     1      22.446  46.532  47.208  1.00  0.00    -0.267 OA
BRANCH  28  31
HETATM   31  C   UNL     1      21.496  48.630  49.094  1.00  0.00     0.035 A 
HETATM   32  C   UNL     1      22.211  49.748  48.668  1.00  0.00     0.030 A 
HETATM   33  C   UNL     1      21.560  50.963  48.434  1.00  0.00     0.010 A 
HETATM   34  C   UNL     1      20.177  51.075  48.612  1.00  0.00    -0.048 A 
HETATM   35  C   UNL     1      19.491  52.400  48.406  1.00  0.00     0.069 C 
HETATM   36  C   UNL     1      19.444  49.961  49.050  1.00  0.00    -0.022 A 
HETATM   37  C   UNL     1      17.969  52.261  48.271  1.00  0.00     0.277 C 
HETATM   38  N   UNL     1      17.430  51.416  49.347  1.00  0.00     0.088 N 
HETATM   39  C   UNL     1      15.969  51.423  49.330  1.00  0.00     0.310 C 
HETATM   40  C   UNL     1      17.938  50.040  49.209  1.00  0.00     0.311 C 
HETATM   41  C   UNL     1      20.110  48.744  49.274  1.00  0.00     0.039 A 
ENDBRANCH  28  31
ENDBRANCH   1  27
TORSDOF 6
ENDMDL
MODEL 4
REMARK VINA RESULT:     -10.8      3.478      4.643
REMARK  6 active torsions:
REMARK  status: ('A' for Active; 'I' for Inactive)
REMARK    1  A    between atoms: C_8  and  N_9 
REMARK       I    between atoms: N_9  and  C_10 
REMARK    2  A    between atoms: C_10  and  C_12 
REMARK    3  A    between atoms: C_16  and  C_17 
REMARK    4  A    between atoms: C_17  and  N_18 
REMARK       I    between atoms: N_18  and  C_19 
REMARK    5  A    between atoms: C_19  and  C_21 
REMARK    6  A    between atoms: C_25  and  C_31 
REMARK       I    between atoms: C_31  and  N_33 
ROOT
HETATM    1  C   UNL     1      24.641  49.108  48.823  1.00  0.00     0.032 A 
HETATM    2  C   UNL     1      25.947  49.465  48.467  1.00  0.00     0.017 A 
HETATM    3  C   UNL     1      27.031  48.837  49.082  1.00  0.00     0.002 A 
HETATM    4  C   UNL     1      26.818  47.860  50.057  1.00  0.00     0.009 A 
HETATM    5  C   UNL     1      25.517  47.492  50.425  1.00  0.00    -0.040 A 
HETATM    6  C   UNL     1      24.432  48.133  49.809  1.00  0.00     0.026 A 
ENDROOT
BRANCH   5   7
HETATM    7  C   UNL     1      25.285  46.462  51.499  1.00  0.00     0.161 C 
BRANCH   7   8
HETATM    8  N   UNL     1      25.844  45.187  51.122  1.00  0.00    -0.351 N 
HETATM    9  C   UNL     1      25.337  43.995  51.585  1.00  0.00     0.268 C 
HETATM   10  O   UNL     1      24.380  43.961  52.354  1.00  0.00    -0.266 OA
HETATM   11  H   UNL     1      26.543  45.181  50.397  1.00  0.00     0.163 HD
BRANCH   9  12
HETATM   12  C   UNL     1      26.025  42.802  51.107  1.00  0.00     0.103 A 
HETATM   13  C   UNL     1      27.235  42.253  51.510  1.00  0.00     0.049 A 
HETATM   14  C   UNL     1      27.460  41.048  50.797  1.00  0.00    -0.006 A 
HETATM   15  C   UNL     1      28.488  40.084  50.824  1.00  0.00     0.030 A 
HETATM   16  C   UNL     1      26.378  40.868  49.938  1.00  0.00     0.045 A 
HETATM   17  C   UNL     1      28.410  38.954  49.994  1.00  0.00     0.032 A 
HETATM   18  C   UNL     1      27.309  38.787  49.151  1.00  0.00     0.019 A 
HETATM   19  C   UNL     1      26.282  39.742  49.104  1.00  0.00     0.031 A 
HETATM   20  N   UNL     1      25.535  41.951  50.122  1.00  0.00    -0.346 N 
HETATM   21  C   UNL     1      24.297  42.165  49.397  1.00  0.00     0.156 C 
BRANCH  17  22
HETATM   22  C   UNL     1      29.513  37.955  50.082  1.00  0.00     0.249 C 
HETATM   23  O   UNL     1      30.547  38.080  49.436  1.00  0.00    -0.268 OA
HETATM   24  N   UNL     1      29.337  36.866  50.890  1.00  0.00    -0.366 N 
HETATM   25  H   UNL     1      28.450  36.598  51.285  1.00  0.00     0.159 HD
HETATM   26  H   UNL     1      30.071  36.169  50.863  1.00  0.00     0.159 HD
ENDBRANCH  17  22
ENDBRANCH   9  12
ENDBRANCH   7   8
ENDBRANCH   5   7
BRANCH   1  27
HETATM   27  C   UNL     1      23.443  49.762  48.222  1.00  0.00     0.256 C 
HETATM   28  N   UNL     1      22.297  49.718  48.995  1.00  0.00    -0.323 N 
HETATM   29  H   UNL     1      22.381  49.332  49.924  1.00  0.00     0.169 HD
HETATM   30  O   UNL     1      23.577  50.305  47.132  1.00  0.00    -0.267 OA
BRANCH  28  31
HETATM   31  C   UNL     1      21.027  50.246  48.668  1.00  0.00     0.035 A 
HETATM   32  C   UNL     1      20.710  51.602  48.729  1.00  0.00     0.030 A 
HETATM   33  C   UNL     1      19.428  52.048  48.394  1.00  0.00     0.010 A 
HETATM   34  C   UNL     1      18.445  51.144  47.982  1.00  0.00    -0.048 A 
HETATM   35  C   UNL     1      17.052  51.627  47.672  1.00  0.00     0.069 C 
HETATM   36  C   UNL     1      18.745  49.774  47.925  1.00  0.00    -0.022 A 
HETATM   37  C   UNL     1      16.231  50.595  46.889  1.00  0.00     0.277 C 
HETATM   38  N   UNL     1      16.328  49.271  47.519  1.00  0.00     0.088 N 
HETATM   39  C   UNL     1      15.411  48.325  46.885  1.00  0.00     0.310 C 
HETATM   40  C   UNL     1      17.713  48.775  47.439  1.00  0.00     0.311 C 
HETATM   41  C   UNL     1      20.040  49.339  48.256  1.00  0.00     0.039 A 
ENDBRANCH  28  31
ENDBRANCH   1  27
TORSDOF 6
ENDMDL
MODEL 5
REMARK VINA RESULT:     -10.7      4.297      9.192
REMARK  6 active torsions:
REMARK  status: ('A' for Active; 'I' for Inactive)
REMARK    1  A    between atoms: C_8  and  N_9 
REMARK       I    between atoms: N_9  and  C_10 
REMARK    2  A    between atoms: C_10  and  C_12 
REMARK    3  A    between atoms: C_16  and  C_17 
REMARK    4  A    between atoms: C_17  and  N_18 
REMARK       I    between atoms: N_18  and  C_19 
REMARK    5  A    between atoms: C_19  and  C_21 
REMARK    6  A    between atoms: C_25  and  C_31 
REMARK       I    between atoms: C_31  and  N_33 
ROOT
HETATM    1  C   UNL     1      24.058  47.082  49.666  1.00  0.00     0.032 A 
HETATM    2  C   UNL     1      23.186  48.076  49.207  1.00  0.00     0.017 A 
HETATM    3  C   UNL     1      22.251  47.776  48.214  1.00  0.00     0.002 A 
HETATM    4  C   UNL     1      22.189  46.491  47.672  1.00  0.00     0.009 A 
HETATM    5  C   UNL     1      23.056  45.485  48.121  1.00  0.00    -0.040 A 
HETATM    6  C   UNL     1      23.997  45.795  49.112  1.00  0.00     0.026 A 
ENDROOT
BRANCH   5   7
HETATM    7  C   UNL     1      23.012  44.107  47.515  1.00  0.00     0.161 C 
BRANCH   7   8
HETATM    8  N   UNL     1      24.045  43.266  48.068  1.00  0.00    -0.351 N 
HETATM    9  C   UNL     1      23.769  42.064  48.678  1.00  0.00     0.268 C 
HETATM   10  O   UNL     1      22.617  41.651  48.787  1.00  0.00    -0.266 OA
HETATM   11  H   UNL     1      25.002  43.519  47.880  1.00  0.00     0.163 HD
BRANCH   9  12
HETATM   12  C   UNL     1      24.931  41.345  49.186  1.00  0.00     0.103 A 
HETATM   13  C   UNL     1      25.545  40.197  48.705  1.00  0.00     0.049 A 
HETATM   14  C   UNL     1      26.686  39.912  49.498  1.00  0.00    -0.006 A 
HETATM   15  C   UNL     1      27.675  38.909  49.448  1.00  0.00     0.030 A 
HETATM   16  C   UNL     1      26.758  40.894  50.485  1.00  0.00     0.045 A 
HETATM   17  C   UNL     1      28.722  38.911  50.384  1.00  0.00     0.032 A 
HETATM   18  C   UNL     1      28.783  39.913  51.355  1.00  0.00     0.019 A 
HETATM   19  C   UNL     1      27.801  40.913  51.426  1.00  0.00     0.031 A 
HETATM   20  N   UNL     1      25.675  41.734  50.294  1.00  0.00    -0.346 N 
HETATM   21  C   UNL     1      25.364  42.880  51.128  1.00  0.00     0.156 C 
BRANCH  17  22
HETATM   22  C   UNL     1      29.754  37.841  50.268  1.00  0.00     0.249 C 
HETATM   23  O   UNL     1      30.743  37.976  49.557  1.00  0.00    -0.268 OA
HETATM   24  N   UNL     1      29.561  36.678  50.961  1.00  0.00    -0.366 N 
HETATM   25  H   UNL     1      28.688  36.422  51.395  1.00  0.00     0.159 HD
HETATM   26  H   UNL     1      30.238  35.944  50.796  1.00  0.00     0.159 HD
ENDBRANCH  17  22
ENDBRANCH   9  12
ENDBRANCH   7   8
ENDBRANCH   5   7
BRANCH   1  27
HETATM   27  C   UNL     1      25.095  47.348  50.704  1.00  0.00     0.256 C 
HETATM   28  N   UNL     1      25.046  46.522  51.813  1.00  0.00    -0.323 N 
HETATM   29  H   UNL     1      24.380  45.763  51.794  1.00  0.00     0.169 HD
HETATM   30  O   UNL     1      25.913  48.232  50.479  1.00  0.00    -0.267 OA
BRANCH  28  31
HETATM   31  C   UNL     1      25.896  46.559  52.942  1.00  0.00     0.035 A 
HETATM   32  C   UNL     1      25.852  47.556  53.915  1.00  0.00     0.030 A 
HETATM   33  C   UNL     1      26.730  47.527  55.002  1.00  0.00     0.010 A 
HETATM   34  C   UNL     1      27.661  46.493  55.138  1.00  0.00    -0.048 A 
HETATM   35  C   UNL     1      28.638  46.497  56.285  1.00  0.00     0.069 C 
HETATM   36  C   UNL     1      27.725  45.487  54.161  1.00  0.00    -0.022 A 
HETATM   37  C   UNL     1      29.310  45.134  56.492  1.00  0.00     0.277 C 
HETATM   38  N   UNL     1      29.817  44.608  55.216  1.00  0.00     0.088 N 
HETATM   39  C   UNL     1      30.611  43.400  55.430  1.00  0.00     0.310 C 
HETATM   40  C   UNL     1      28.693  44.330  54.304  1.00  0.00     0.311 C 
HETATM   41  C   UNL     1      26.831  45.524  53.077  1.00  0.00     0.039 A 
ENDBRANCH  28  31
ENDBRANCH   1  27
TORSDOF 6
ENDMDL
MODEL 6
REMARK VINA RESULT:     -10.6      2.980     12.816
REMARK  6 active torsions:
REMARK  status: ('A' for Active; 'I' for Inactive)
REMARK    1  A    between atoms: C_8  and  N_9 
REMARK       I    between atoms: N_9  and  C_10 
REMARK    2  A    between atoms: C_10  and  C_12 
REMARK    3  A    between atoms: C_16  and  C_17 
REMARK    4  A    between atoms: C_17  and  N_18 
REMARK       I    between atoms: N_18  and  C_19 
REMARK    5  A    between atoms: C_19  and  C_21 
REMARK    6  A    between atoms: C_25  and  C_31 
REMARK       I    between atoms: C_31  and  N_33 
ROOT
HETATM    1  C   UNL     1      24.764  48.554  49.134  1.00  0.00     0.032 A 
HETATM    2  C   UNL     1      25.071  49.789  48.551  1.00  0.00     0.017 A 
HETATM    3  C   UNL     1      24.090  50.486  47.843  1.00  0.00     0.002 A 
HETATM    4  C   UNL     1      22.806  49.952  47.709  1.00  0.00     0.009 A 
HETATM    5  C   UNL     1      22.484  48.716  48.286  1.00  0.00    -0.040 A 
HETATM    6  C   UNL     1      23.477  48.017  48.989  1.00  0.00     0.026 A 
ENDROOT
BRANCH   5   7
HETATM    7  C   UNL     1      21.110  48.123  48.115  1.00  0.00     0.161 C 
BRANCH   7   8
HETATM    8  N   UNL     1      20.090  49.132  48.264  1.00  0.00    -0.351 N 
HETATM    9  C   UNL     1      19.023  48.978  49.118  1.00  0.00     0.268 C 
HETATM   10  O   UNL     1      18.884  47.961  49.794  1.00  0.00    -0.266 OA
HETATM   11  H   UNL     1      20.247  50.023  47.821  1.00  0.00     0.163 HD
BRANCH   9  12
HETATM   12  C   UNL     1      18.083  50.092  49.142  1.00  0.00     0.103 A 
HETATM   13  C   UNL     1      17.992  51.159  50.026  1.00  0.00     0.049 A 
HETATM   14  C   UNL     1      16.952  52.027  49.603  1.00  0.00    -0.006 A 
HETATM   15  C   UNL     1      16.451  53.249  50.094  1.00  0.00     0.030 A 
HETATM   16  C   UNL     1      16.394  51.472  48.454  1.00  0.00     0.045 A 
HETATM   17  C   UNL     1      15.403  53.897  49.421  1.00  0.00     0.032 A 
HETATM   18  C   UNL     1      14.868  53.330  48.262  1.00  0.00     0.019 A 
HETATM   19  C   UNL     1      15.347  52.109  47.766  1.00  0.00     0.031 A 
HETATM   20  N   UNL     1      17.073  50.291  48.207  1.00  0.00    -0.346 N 
HETATM   21  C   UNL     1      16.784  49.387  47.110  1.00  0.00     0.156 C 
BRANCH  17  22
HETATM   22  C   UNL     1      14.930  55.199  49.970  1.00  0.00     0.249 C 
HETATM   23  O   UNL     1      14.812  55.384  51.176  1.00  0.00    -0.268 OA
HETATM   24  N   UNL     1      14.601  56.192  49.089  1.00  0.00    -0.366 N 
HETATM   25  H   UNL     1      14.480  56.047  48.100  1.00  0.00     0.159 HD
HETATM   26  H   UNL     1      14.207  57.033  49.494  1.00  0.00     0.159 HD
ENDBRANCH  17  22
ENDBRANCH   9  12
ENDBRANCH   7   8
ENDBRANCH   5   7
BRANCH   1  27
HETATM   27  C   UNL     1      25.776  47.750  49.878  1.00  0.00     0.256 C 
HETATM   28  N   UNL     1      25.347  47.235  51.088  1.00  0.00    -0.323 N 
HETATM   29  H   UNL     1      24.375  47.368  51.328  1.00  0.00     0.169 HD
HETATM   30  O   UNL     1      26.870  47.582  49.352  1.00  0.00    -0.267 OA
BRANCH  28  31
HETATM   31  C   UNL     1      26.096  46.451  51.995  1.00  0.00     0.035 A 
HETATM   32  C   UNL     1      26.487  46.887  53.260  1.00  0.00     0.030 A 
HETATM   33  C   UNL     1      27.234  46.055  54.099  1.00  0.00     0.010 A 
HETATM   34  C   UNL     1      27.592  44.767  53.689  1.00  0.00    -0.048 A 
HETATM   35  C   UNL     1      28.439  43.895  54.580  1.00  0.00     0.069 C 
HETATM   36  C   UNL     1      27.215  44.316  52.414  1.00  0.00    -0.022 A 
HETATM   37  C   UNL     1      28.416  42.421  54.156  1.00  0.00     0.277 C 
HETATM   38  N   UNL     1      28.658  42.294  52.712  1.00  0.00     0.088 N 
HETATM   39  C   UNL     1      28.814  40.892  52.332  1.00  0.00     0.310 C 
HETATM   40  C   UNL     1      27.550  42.910  51.960  1.00  0.00     0.311 C 
HETATM   41  C   UNL     1      26.458  45.161  51.583  1.00  0.00     0.039 A 
ENDBRANCH  28  31
ENDBRANCH   1  27
TORSDOF 6
ENDMDL
MODEL 7
REMARK VINA RESULT:     -10.4      4.520      8.931
REMARK  6 active torsions:
REMARK  status: ('A' for Active; 'I' for Inactive)
REMARK    1  A    between atoms: C_8  and  N_9 
REMARK       I    between atoms: N_9  and  C_10 
REMARK    2  A    between atoms: C_10  and  C_12 
REMARK    3  A    between atoms: C_16  and  C_17 
REMARK    4  A    between atoms: C_17  and  N_18 
REMARK       I    between atoms: N_18  and  C_19 
REMARK    5  A    between atoms: C_19  and  C_21 
REMARK    6  A    between atoms: C_25  and  C_31 
REMARK       I    between atoms: C_31  and  N_33 
ROOT
HETATM    1  C   UNL     1      24.325  44.472  49.061  1.00  0.00     0.032 A 
HETATM    2  C   UNL     1      23.189  44.884  48.356  1.00  0.00     0.017 A 
HETATM    3  C   UNL     1      22.752  46.207  48.454  1.00  0.00     0.002 A 
HETATM    4  C   UNL     1      23.440  47.117  49.259  1.00  0.00     0.009 A 
HETATM    5  C   UNL     1      24.580  46.720  49.971  1.00  0.00    -0.040 A 
HETATM    6  C   UNL     1      25.008  45.388  49.875  1.00  0.00     0.026 A 
ENDROOT
BRANCH   5   7
HETATM    7  C   UNL     1      25.304  47.691  50.865  1.00  0.00     0.161 C 
BRANCH   7   8
HETATM    8  N   UNL     1      26.261  47.009  51.702  1.00  0.00    -0.351 N 
HETATM    9  C   UNL     1      26.210  47.067  53.075  1.00  0.00     0.268 C 
HETATM   10  O   UNL     1      25.345  47.716  53.658  1.00  0.00    -0.266 OA
HETATM   11  H   UNL     1      26.900  46.371  51.255  1.00  0.00     0.163 HD
BRANCH   9  12
HETATM   12  C   UNL     1      27.257  46.324  53.766  1.00  0.00     0.103 A 
HETATM   13  C   UNL     1      28.039  46.692  54.852  1.00  0.00     0.049 A 
HETATM   14  C   UNL     1      28.879  45.605  55.211  1.00  0.00    -0.006 A 
HETATM   15  C   UNL     1      29.831  45.413  56.232  1.00  0.00     0.030 A 
HETATM   16  C   UNL     1      28.612  44.567  54.321  1.00  0.00     0.045 A 
HETATM   17  C   UNL     1      30.496  44.182  56.346  1.00  0.00     0.032 A 
HETATM   18  C   UNL     1      30.203  43.150  55.452  1.00  0.00     0.019 A 
HETATM   19  C   UNL     1      29.265  43.327  54.424  1.00  0.00     0.031 A 
HETATM   20  N   UNL     1      27.649  45.030  53.441  1.00  0.00    -0.346 N 
HETATM   21  C   UNL     1      27.107  44.263  52.334  1.00  0.00     0.156 C 
BRANCH  17  22
HETATM   22  C   UNL     1      31.475  44.026  57.460  1.00  0.00     0.249 C 
HETATM   23  O   UNL     1      32.325  43.143  57.450  1.00  0.00    -0.268 OA
HETATM   24  N   UNL     1      31.391  44.885  58.520  1.00  0.00    -0.366 N 
HETATM   25  H   UNL     1      30.605  45.493  58.689  1.00  0.00     0.159 HD
HETATM   26  H   UNL     1      32.018  44.699  59.293  1.00  0.00     0.159 HD
ENDBRANCH  17  22
ENDBRANCH   9  12
ENDBRANCH   7   8
ENDBRANCH   5   7
BRANCH   1  27
HETATM   27  C   UNL     1      24.825  43.068  49.019  1.00  0.00     0.256 C 
HETATM   28  N   UNL     1      26.190  42.932  48.844  1.00  0.00    -0.323 N 
HETATM   29  H   UNL     1      26.743  43.777  48.846  1.00  0.00     0.169 HD
HETATM   30  O   UNL     1      24.008  42.167  49.175  1.00  0.00    -0.267 OA
BRANCH  28  31
HETATM   31  C   UNL     1      26.923  41.726  48.759  1.00  0.00     0.035 A 
HETATM   32  C   UNL     1      27.637  41.174  49.821  1.00  0.00     0.030 A 
HETATM   33  C   UNL     1      28.344  39.979  49.658  1.00  0.00     0.010 A 
HETATM   34  C   UNL     1      28.338  39.310  48.429  1.00  0.00    -0.048 A 
HETATM   35  C   UNL     1      29.143  38.050  48.247  1.00  0.00     0.069 C 
HETATM   36  C   UNL     1      27.632  39.859  47.347  1.00  0.00    -0.022 A 
HETATM   37  C   UNL     1      28.730  37.262  46.998  1.00  0.00     0.277 C 
HETATM   38  N   UNL     1      28.652  38.150  45.829  1.00  0.00     0.088 N 
HETATM   39  C   UNL     1      28.433  37.381  44.606  1.00  0.00     0.310 C 
HETATM   40  C   UNL     1      27.571  39.134  46.017  1.00  0.00     0.311 C 
HETATM   41  C   UNL     1      26.920  41.057  47.527  1.00  0.00     0.039 A 
ENDBRANCH  28  31
ENDBRANCH   1  27
TORSDOF 6
ENDMDL
MODEL 8
REMARK VINA RESULT:     -10.0      1.473      2.297
REMARK  6 active torsions:
REMARK  status: ('A' for Active; 'I' for Inactive)
REMARK    1  A    between atoms: C_8  and  N_9 
REMARK       I    between atoms: N_9  and  C_10 
REMARK    2  A    between atoms: C_10  and  C_12 
REMARK    3  A    between atoms: C_16  and  C_17 
REMARK    4  A    between atoms: C_17  and  N_18 
REMARK       I    between atoms: N_18  and  C_19 
REMARK    5  A    between atoms: C_19  and  C_21 
REMARK    6  A    between atoms: C_25  and  C_31 
REMARK       I    between atoms: C_31  and  N_33 
ROOT
HETATM    1  C   UNL     1      24.184  49.014  49.156  1.00  0.00     0.032 A 
HETATM    2  C   UNL     1      25.278  49.847  48.895  1.00  0.00     0.017 A 
HETATM    3  C   UNL     1      26.572  49.322  48.920  1.00  0.00     0.002 A 
HETATM    4  C   UNL     1      26.778  47.972  49.212  1.00  0.00     0.009 A 
HETATM    5  C   UNL     1      25.692  47.126  49.476  1.00  0.00    -0.040 A 
HETATM    6  C   UNL     1      24.396  47.661  49.457  1.00  0.00     0.026 A 
ENDROOT
BRANCH   5   7
HETATM    7  C   UNL     1      25.914  45.677  49.822  1.00  0.00     0.161 C 
BRANCH   7   8
HETATM    8  N   UNL     1      26.692  45.547  51.029  1.00  0.00    -0.351 N 
HETATM    9  C   UNL     1      26.160  45.058  52.200  1.00  0.00     0.268 C 
HETATM   10  O   UNL     1      24.983  44.713  52.273  1.00  0.00    -0.266 OA
HETATM   11  H   UNL     1      27.685  45.703  50.962  1.00  0.00     0.163 HD
BRANCH   9  12
HETATM   12  C   UNL     1      27.085  45.000  53.325  1.00  0.00     0.103 A 
HETATM   13  C   UNL     1      28.055  44.055  53.628  1.00  0.00     0.049 A 
HETATM   14  C   UNL     1      28.752  44.462  54.796  1.00  0.00    -0.006 A 
HETATM   15  C   UNL     1      29.829  43.915  55.521  1.00  0.00     0.030 A 
HETATM   16  C   UNL     1      28.187  45.665  55.215  1.00  0.00     0.045 A 
HETATM   17  C   UNL     1      30.326  44.585  56.651  1.00  0.00     0.032 A 
HETATM   18  C   UNL     1      29.754  45.797  57.044  1.00  0.00     0.019 A 
HETATM   19  C   UNL     1      28.674  46.351  56.340  1.00  0.00     0.031 A 
HETATM   20  N   UNL     1      27.166  45.959  54.328  1.00  0.00    -0.346 N 
HETATM   21  C   UNL     1      26.302  47.121  54.422  1.00  0.00     0.156 C 
BRANCH  17  22
HETATM   22  C   UNL     1      31.483  43.974  57.364  1.00  0.00     0.249 C 
HETATM   23  O   UNL     1      32.252  44.648  58.039  1.00  0.00    -0.268 OA
HETATM   24  N   UNL     1      31.687  42.628  57.231  1.00  0.00    -0.366 N 
HETATM   25  H   UNL     1      31.225  42.056  56.543  1.00  0.00     0.159 HD
HETATM   26  H   UNL     1      32.527  42.262  57.663  1.00  0.00     0.159 HD
ENDBRANCH  17  22
ENDBRANCH   9  12
ENDBRANCH   7   8
ENDBRANCH   5   7
BRANCH   1  27
HETATM   27  C   UNL     1      22.782  49.522  49.172  1.00  0.00     0.256 C 
HETATM   28  N   UNL     1      21.914  48.883  48.304  1.00  0.00    -0.323 N 
HETATM   29  H   UNL     1      22.268  48.083  47.802  1.00  0.00     0.169 HD
HETATM   30  O   UNL     1      22.509  50.419  49.961  1.00  0.00    -0.267 OA
BRANCH  28  31
HETATM   31  C   UNL     1      20.542  49.166  48.109  1.00  0.00     0.035 A 
HETATM   32  C   UNL     1      19.719  48.456  47.237  1.00  0.00     0.030 A 
HETATM   33  C   UNL     1      18.371  48.799  47.093  1.00  0.00     0.010 A 
HETATM   34  C   UNL     1      17.823  49.853  47.831  1.00  0.00    -0.048 A 
HETATM   35  C   UNL     1      16.382  50.248  47.633  1.00  0.00     0.069 C 
HETATM   36  C   UNL     1      18.641  50.585  48.706  1.00  0.00    -0.022 A 
HETATM   37  C   UNL     1      15.856  51.143  48.762  1.00  0.00     0.277 C 
HETATM   38  N   UNL     1      16.795  52.242  49.032  1.00  0.00     0.088 N 
HETATM   39  C   UNL     1      16.220  53.195  49.979  1.00  0.00     0.310 C 
HETATM   40  C   UNL     1      18.064  51.703  49.551  1.00  0.00     0.311 C 
HETATM   41  C   UNL     1      19.992  50.224  48.846  1.00  0.00     0.039 A 
ENDBRANCH  28  31
ENDBRANCH   1  27
TORSDOF 6
ENDMDL
MODEL 9
REMARK VINA RESULT:      -9.9      2.980     11.829
REMARK  6 active torsions:
REMARK  status: ('A' for Active; 'I' for Inactive)
REMARK    1  A    between atoms: C_8  and  N_9 
REMARK       I    between atoms: N_9  and  C_10 
REMARK    2  A    between atoms: C_10  and  C_12 
REMARK    3  A    between atoms: C_16  and  C_17 
REMARK    4  A    between atoms: C_17  and  N_18 
REMARK       I    between atoms: N_18  and  C_19 
REMARK    5  A    between atoms: C_19  and  C_21 
REMARK    6  A    between atoms: C_25  and  C_31 
REMARK       I    between atoms: C_31  and  N_33 
ROOT
HETATM    1  C   UNL     1      26.345  43.007  49.489  1.00  0.00     0.032 A 
HETATM    2  C   UNL     1      27.010  41.977  48.813  1.00  0.00     0.017 A 
HETATM    3  C   UNL     1      26.304  41.157  47.930  1.00  0.00     0.002 A 
HETATM    4  C   UNL     1      24.937  41.357  47.724  1.00  0.00     0.009 A 
HETATM    5  C   UNL     1      24.258  42.383  48.394  1.00  0.00    -0.040 A 
HETATM    6  C   UNL     1      24.970  43.198  49.286  1.00  0.00     0.026 A 
ENDROOT
BRANCH   5   7
HETATM    7  C   UNL     1      22.777  42.580  48.199  1.00  0.00     0.161 C 
BRANCH   7   8
HETATM    8  N   UNL     1      22.413  43.965  48.372  1.00  0.00    -0.351 N 
HETATM    9  C   UNL     1      22.558  44.895  47.369  1.00  0.00     0.268 C 
HETATM   10  O   UNL     1      23.017  44.588  46.272  1.00  0.00    -0.266 OA
HETATM   11  H   UNL     1      21.919  44.215  49.214  1.00  0.00     0.163 HD
BRANCH   9  12
HETATM   12  C   UNL     1      22.146  46.250  47.716  1.00  0.00     0.103 A 
HETATM   13  C   UNL     1      21.023  46.965  47.323  1.00  0.00     0.049 A 
HETATM   14  C   UNL     1      21.021  48.226  47.973  1.00  0.00    -0.006 A 
HETATM   15  C   UNL     1      20.130  49.317  47.970  1.00  0.00     0.030 A 
HETATM   16  C   UNL     1      22.168  48.283  48.763  1.00  0.00     0.045 A 
HETATM   17  C   UNL     1      20.399  50.444  48.762  1.00  0.00     0.032 A 
HETATM   18  C   UNL     1      21.547  50.474  49.557  1.00  0.00     0.019 A 
HETATM   19  C   UNL     1      22.451  49.402  49.565  1.00  0.00     0.031 A 
HETATM   20  N   UNL     1      22.846  47.091  48.574  1.00  0.00    -0.346 N 
HETATM   21  C   UNL     1      24.112  46.754  49.198  1.00  0.00     0.156 C 
BRANCH  17  22
HETATM   22  C   UNL     1      19.409  51.558  48.738  1.00  0.00     0.249 C 
HETATM   23  O   UNL     1      19.034  52.063  47.686  1.00  0.00    -0.268 OA
HETATM   24  N   UNL     1      18.937  52.031  49.931  1.00  0.00    -0.366 N 
HETATM   25  H   UNL     1      19.346  51.806  50.824  1.00  0.00     0.159 HD
HETATM   26  H   UNL     1      18.330  52.839  49.880  1.00  0.00     0.159 HD
ENDBRANCH  17  22
ENDBRANCH   9  12
ENDBRANCH   7   8
ENDBRANCH   5   7
BRANCH   1  27
HETATM   27  C   UNL     1      27.037  43.896  50.465  1.00  0.00     0.256 C 
HETATM   28  N   UNL     1      26.964  43.493  51.786  1.00  0.00    -0.323 N 
HETATM   29  H   UNL     1      26.531  42.600  51.974  1.00  0.00     0.169 HD
HETATM   30  O   UNL     1      27.634  44.871  50.024  1.00  0.00    -0.267 OA
BRANCH  28  31
HETATM   31  C   UNL     1      27.517  44.148  52.910  1.00  0.00     0.035 A 
HETATM   32  C   UNL     1      27.062  45.372  53.399  1.00  0.00     0.030 A 
HETATM   33  C   UNL     1      27.666  45.962  54.513  1.00  0.00     0.010 A 
HETATM   34  C   UNL     1      28.729  45.329  55.164  1.00  0.00    -0.048 A 
HETATM   35  C   UNL     1      29.407  45.995  56.334  1.00  0.00     0.069 C 
HETATM   36  C   UNL     1      29.207  44.102  54.679  1.00  0.00    -0.022 A 
HETATM   37  C   UNL     1      30.273  45.024  57.145  1.00  0.00     0.277 C 
HETATM   38  N   UNL     1      31.144  44.241  56.256  1.00  0.00     0.088 N 
HETATM   39  C   UNL     1      32.093  43.443  57.029  1.00  0.00     0.310 C 
HETATM   40  C   UNL     1      30.328  43.371  55.390  1.00  0.00     0.311 C 
HETATM   41  C   UNL     1      28.586  43.516  53.562  1.00  0.00     0.039 A 
ENDBRANCH  28  31
ENDBRANCH   1  27
TORSDOF 6
ENDMDL
MODEL 10
REMARK VINA RESULT:      -9.7      2.122      3.132
REMARK  6 active torsions:
REMARK  status: ('A' for Active; 'I' for Inactive)
REMARK    1  A    between atoms: C_8  and  N_9 
REMARK       I    between atoms: N_9  and  C_10 
REMARK    2  A    between atoms: C_10  and  C_12 
REMARK    3  A    between atoms: C_16  and  C_17 
REMARK    4  A    between atoms: C_17  and  N_18 
REMARK       I    between atoms: N_18  and  C_19 
REMARK    5  A    between atoms: C_19  and  C_21 
REMARK    6  A    between atoms: C_25  and  C_31 
REMARK       I    between atoms: C_31  and  N_33 
ROOT
HETATM    1  C   UNL     1      21.750  50.283  48.349  1.00  0.00     0.032 A 
HETATM    2  C   UNL     1      22.930  51.035  48.299  1.00  0.00     0.017 A 
HETATM    3  C   UNL     1      24.160  50.414  48.525  1.00  0.00     0.002 A 
HETATM    4  C   UNL     1      24.217  49.047  48.806  1.00  0.00     0.009 A 
HETATM    5  C   UNL     1      23.044  48.281  48.860  1.00  0.00    -0.040 A 
HETATM    6  C   UNL     1      21.812  48.913  48.641  1.00  0.00     0.026 A 
ENDROOT
BRANCH   5   7
HETATM    7  C   UNL     1      23.100  46.814  49.195  1.00  0.00     0.161 C 
BRANCH   7   8
HETATM    8  N   UNL     1      24.165  46.538  50.129  1.00  0.00    -0.351 N 
HETATM    9  C   UNL     1      24.353  45.293  50.683  1.00  0.00     0.268 C 
HETATM   10  O   UNL     1      23.611  44.351  50.411  1.00  0.00    -0.266 OA
HETATM   11  H   UNL     1      24.859  47.254  50.270  1.00  0.00     0.163 HD
BRANCH   9  12
HETATM   12  C   UNL     1      25.472  45.191  51.612  1.00  0.00     0.103 A 
HETATM   13  C   UNL     1      25.741  45.919  52.762  1.00  0.00     0.049 A 
HETATM   14  C   UNL     1      26.919  45.412  53.370  1.00  0.00    -0.006 A 
HETATM   15  C   UNL     1      27.622  45.742  54.545  1.00  0.00     0.030 A 
HETATM   16  C   UNL     1      27.380  44.369  52.568  1.00  0.00     0.045 A 
HETATM   17  C   UNL     1      28.772  45.019  54.901  1.00  0.00     0.032 A 
HETATM   18  C   UNL     1      29.208  43.969  54.090  1.00  0.00     0.019 A 
HETATM   19  C   UNL     1      28.526  43.633  52.911  1.00  0.00     0.031 A 
HETATM   20  N   UNL     1      26.507  44.269  51.499  1.00  0.00    -0.346 N 
HETATM   21  C   UNL     1      26.642  43.318  50.411  1.00  0.00     0.156 C 
BRANCH  17  22
HETATM   22  C   UNL     1      29.461  45.396  56.168  1.00  0.00     0.249 C 
HETATM   23  O   UNL     1      30.609  45.037  56.407  1.00  0.00    -0.268 OA
HETATM   24  N   UNL     1      28.770  46.139  57.084  1.00  0.00    -0.366 N 
HETATM   25  H   UNL     1      27.775  46.294  57.046  1.00  0.00     0.159 HD
HETATM   26  H   UNL     1      29.240  46.307  57.965  1.00  0.00     0.159 HD
ENDBRANCH  17  22
ENDBRANCH   9  12
ENDBRANCH   7   8
ENDBRANCH   5   7
BRANCH   1  27
HETATM   27  C   UNL     1      20.406  50.895  48.145  1.00  0.00     0.256 C 
HETATM   28  N   UNL     1      19.597  50.248  47.228  1.00  0.00    -0.323 N 
HETATM   29  H   UNL     1      19.939  49.380  46.841  1.00  0.00     0.169 HD
HETATM   30  O   UNL     1      20.118  51.877  48.818  1.00  0.00    -0.267 OA
BRANCH  28  31
HETATM   31  C   UNL     1      18.288  50.614  46.838  1.00  0.00     0.035 A 
HETATM   32  C   UNL     1      17.131  50.040  47.362  1.00  0.00     0.030 A 
HETATM   33  C   UNL     1      15.870  50.452  46.921  1.00  0.00     0.010 A 
HETATM   34  C   UNL     1      15.747  51.455  45.954  1.00  0.00    -0.048 A 
HETATM   35  C   UNL     1      14.386  51.858  45.448  1.00  0.00     0.069 C 
HETATM   36  C   UNL     1      16.903  52.036  45.408  1.00  0.00    -0.022 A 
HETATM   37  C   UNL     1      14.408  53.195  44.697  1.00  0.00     0.277 C 
HETATM   38  N   UNL     1      15.496  53.215  43.708  1.00  0.00     0.088 N 
HETATM   39  C   UNL     1      15.414  54.410  42.871  1.00  0.00     0.310 C 
HETATM   40  C   UNL     1      16.799  53.156  44.392  1.00  0.00     0.311 C 
HETATM   41  C   UNL     1      18.164  51.618  45.867  1.00  0.00     0.039 A 
ENDBRANCH  28  31
ENDBRANCH   1  27
TORSDOF 6
ENDMDL
