MODEL 1
REMARK VINA RESULT:     -10.2      0.000      0.000
REMARK  4 active torsions:
REMARK  status: ('A' for Active; 'I' for Inactive)
REMARK    1  A    between atoms: C_6  and  C_7 
REMARK    2  A    between atoms: C_7  and  C_8 
REMARK       I    between atoms: C_8  and  N_9 
REMARK    3  A    between atoms: N_9  and  C_10 
REMARK    4  A    between atoms: C_12  and  C_13 
ROOT
HETATM    1  C   UNL     1      26.037  46.819  52.229  1.00  0.00     0.226 C 
HETATM    2  N   UNL     1      26.533  46.950  50.941  1.00  0.00    -0.327 N 
HETATM    3  O   UNL     1      25.276  47.599  52.796  1.00  0.00    -0.273 OA
HETATM    4  H   UNL     1      27.219  46.264  50.656  1.00  0.00     0.169 HD
ENDROOT
BRANCH   1   5
HETATM    5  C   UNL     1      26.508  45.540  52.912  1.00  0.00     0.144 C 
BRANCH   5   6
HETATM    6  C   UNL     1      27.395  45.815  54.083  1.00  0.00    -0.021 A 
HETATM    7  C   UNL     1      28.474  45.007  54.571  1.00  0.00    -0.001 A 
HETATM    8  C   UNL     1      29.009  45.655  55.685  1.00  0.00     0.043 A 
HETATM    9  C   UNL     1      29.053  43.785  54.173  1.00  0.00     0.015 A 
HETATM   10  C   UNL     1      30.093  45.148  56.414  1.00  0.00     0.037 A 
HETATM   11  N   UNL     1      28.281  46.805  55.875  1.00  0.00    -0.365 N 
HETATM   12  C   UNL     1      30.655  43.930  56.004  1.00  0.00    -0.060 A 
HETATM   13  C   UNL     1      31.844  43.373  56.732  1.00  0.00     0.048 C 
HETATM   14  C   UNL     1      30.142  43.267  54.887  1.00  0.00     0.007 A 
HETATM   15  C   UNL     1      27.306  46.909  54.922  1.00  0.00     0.097 A 
HETATM   16  H   UNL     1      28.447  47.473  56.615  1.00  0.00     0.165 HD
ENDBRANCH   5   6
ENDBRANCH   1   5
BRANCH   2  17
HETATM   17  C   UNL     1      26.222  47.938  49.985  1.00  0.00     0.035 A 
HETATM   18  C   UNL     1      24.866  48.103  49.658  1.00  0.00     0.042 A 
HETATM   19  C   UNL     1      24.449  49.081  48.741  1.00  0.00    -0.021 A 
HETATM   20  C   UNL     1      25.417  49.889  48.137  1.00  0.00     0.012 A 
HETATM   21  C   UNL     1      26.768  49.727  48.450  1.00  0.00     0.003 A 
HETATM   22  C   UNL     1      27.168  48.757  49.373  1.00  0.00     0.029 A 
BRANCH  19  23
HETATM   23  C   UNL     1      23.041  49.258  48.415  1.00  0.00     0.010 A 
HETATM   24  C   UNL     1      21.919  48.434  48.673  1.00  0.00     0.152 A 
HETATM   25  N   UNL     1      20.780  48.940  48.192  1.00  0.00    -0.187 NA
HETATM   26  N   UNL     1      21.166  50.089  47.618  1.00  0.00    -0.289 N 
HETATM   27  H   UNL     1      20.460  50.661  47.168  1.00  0.00     0.188 HD
HETATM   28  C   UNL     1      22.507  50.325  47.721  1.00  0.00     0.123 A 
ENDBRANCH  19  23
ENDBRANCH   2  17
TORSDOF 4
ENDMDL
MODEL 2
REMARK VINA RESULT:      -9.9      1.358      1.909
REMARK  4 active torsions:
REMARK  status: ('A' for Active; 'I' for Inactive)
REMARK    1  A    between atoms: C_6  and  C_7 
REMARK    2  A    between atoms: C_7  and  C_8 
REMARK       I    between atoms: C_8  and  N_9 
REMARK    3  A    between atoms: N_9  and  C_10 
REMARK    4  A    between atoms: C_12  and  C_13 
ROOT
HETATM    1  C   UNL     1      25.762  46.496  52.327  1.00  0.00     0.226 C 
HETATM    2  N   UNL     1      25.678  46.490  50.943  1.00  0.00    -0.327 N 
HETATM    3  O   UNL     1      25.934  47.483  53.039  1.00  0.00    -0.273 OA
HETATM    4  H   UNL     1      25.623  45.581  50.505  1.00  0.00     0.169 HD
ENDROOT
BRANCH   1   5
HETATM    5  C   UNL     1      25.578  45.110  52.933  1.00  0.00     0.144 C 
BRANCH   5   6
HETATM    6  C   UNL     1      26.854  44.334  52.974  1.00  0.00    -0.021 A 
HETATM    7  C   UNL     1      27.899  44.419  53.952  1.00  0.00    -0.001 A 
HETATM    8  C   UNL     1      28.894  43.516  53.579  1.00  0.00     0.043 A 
HETATM    9  C   UNL     1      28.096  45.177  55.125  1.00  0.00     0.015 A 
HETATM   10  C   UNL     1      30.069  43.327  54.319  1.00  0.00     0.037 A 
HETATM   11  N   UNL     1      28.480  42.911  52.417  1.00  0.00    -0.365 N 
HETATM   12  C   UNL     1      30.249  44.091  55.482  1.00  0.00    -0.060 A 
HETATM   13  C   UNL     1      31.474  43.890  56.327  1.00  0.00     0.048 C 
HETATM   14  C   UNL     1      29.262  44.996  55.881  1.00  0.00     0.007 A 
HETATM   15  C   UNL     1      27.259  43.398  52.041  1.00  0.00     0.097 A 
HETATM   16  H   UNL     1      29.007  42.209  51.916  1.00  0.00     0.165 HD
ENDBRANCH   5   6
ENDBRANCH   1   5
BRANCH   2  17
HETATM   17  C   UNL     1      25.688  47.592  50.065  1.00  0.00     0.035 A 
HETATM   18  C   UNL     1      24.443  48.147  49.725  1.00  0.00     0.042 A 
HETATM   19  C   UNL     1      24.347  49.266  48.883  1.00  0.00    -0.021 A 
HETATM   20  C   UNL     1      25.524  49.820  48.369  1.00  0.00     0.012 A 
HETATM   21  C   UNL     1      26.765  49.271  48.695  1.00  0.00     0.003 A 
HETATM   22  C   UNL     1      26.847  48.163  49.543  1.00  0.00     0.029 A 
BRANCH  19  23
HETATM   23  C   UNL     1      23.057  49.847  48.544  1.00  0.00     0.010 A 
HETATM   24  C   UNL     1      22.006  49.358  47.729  1.00  0.00     0.152 A 
HETATM   25  N   UNL     1      20.975  50.204  47.648  1.00  0.00    -0.187 NA
HETATM   26  N   UNL     1      21.361  51.242  48.404  1.00  0.00    -0.289 N 
HETATM   27  H   UNL     1      20.730  52.032  48.492  1.00  0.00     0.188 HD
HETATM   28  C   UNL     1      22.597  51.080  48.961  1.00  0.00     0.123 A 
ENDBRANCH  19  23
ENDBRANCH   2  17
TORSDOF 4
ENDMDL
MODEL 3
REMARK VINA RESULT:      -9.6      2.418      9.161
REMARK  4 active torsions:
REMARK  status: ('A' for Active; 'I' for Inactive)
REMARK    1  A    between atoms: C_6  and  C_7 
REMARK    2  A    between atoms: C_7  and  C_8 
REMARK       I    between atoms: C_8  and  N_9 
REMARK    3  A    between atoms: N_9  and  C_10 
REMARK    4  A    between atoms: C_12  and  C_13 
ROOT
HETATM    1  C   UNL     1      25.617  44.283  52.545  1.00  0.00     0.226 C 
HETATM    2  N   UNL     1      26.907  44.764  52.707  1.00  0.00    -0.327 N 
HETATM    3  O   UNL     1      24.736  44.266  53.401  1.00  0.00    -0.273 OA
HETATM    4  H   UNL     1      27.535  44.625  51.927  1.00  0.00     0.169 HD
ENDROOT
BRANCH   1   5
HETATM    5  C   UNL     1      25.351  43.782  51.130  1.00  0.00     0.144 C 
BRANCH   5   6
HETATM    6  C   UNL     1      24.403  44.662  50.384  1.00  0.00    -0.021 A 
HETATM    7  C   UNL     1      24.600  46.028  49.994  1.00  0.00    -0.001 A 
HETATM    8  C   UNL     1      23.447  46.442  49.327  1.00  0.00     0.043 A 
HETATM    9  C   UNL     1      25.651  46.956  50.141  1.00  0.00     0.015 A 
HETATM   10  C   UNL     1      23.294  47.729  48.796  1.00  0.00     0.037 A 
HETATM   11  N   UNL     1      22.578  45.377  49.318  1.00  0.00    -0.365 N 
HETATM   12  C   UNL     1      24.349  48.640  48.952  1.00  0.00    -0.060 A 
HETATM   13  C   UNL     1      24.243  50.016  48.362  1.00  0.00     0.048 C 
HETATM   14  C   UNL     1      25.517  48.246  49.609  1.00  0.00     0.007 A 
HETATM   15  C   UNL     1      23.139  44.305  49.955  1.00  0.00     0.097 A 
HETATM   16  H   UNL     1      21.657  45.392  48.901  1.00  0.00     0.165 HD
ENDBRANCH   5   6
ENDBRANCH   1   5
BRANCH   2  17
HETATM   17  C   UNL     1      27.463  45.402  53.834  1.00  0.00     0.035 A 
HETATM   18  C   UNL     1      28.487  44.719  54.512  1.00  0.00     0.042 A 
HETATM   19  C   UNL     1      29.127  45.281  55.628  1.00  0.00    -0.021 A 
HETATM   20  C   UNL     1      28.716  46.543  56.070  1.00  0.00     0.012 A 
HETATM   21  C   UNL     1      27.695  47.226  55.406  1.00  0.00     0.003 A 
HETATM   22  C   UNL     1      27.074  46.659  54.291  1.00  0.00     0.029 A 
BRANCH  19  23
HETATM   23  C   UNL     1      30.196  44.577  56.320  1.00  0.00     0.010 A 
HETATM   24  C   UNL     1      30.799  44.816  57.579  1.00  0.00     0.152 A 
HETATM   25  N   UNL     1      31.775  43.948  57.860  1.00  0.00    -0.187 NA
HETATM   26  N   UNL     1      31.807  43.152  56.781  1.00  0.00    -0.289 N 
HETATM   27  H   UNL     1      32.489  42.401  56.759  1.00  0.00     0.188 HD
HETATM   28  C   UNL     1      30.885  43.485  55.832  1.00  0.00     0.123 A 
ENDBRANCH  19  23
ENDBRANCH   2  17
TORSDOF 4
ENDMDL
MODEL 4
REMARK VINA RESULT:      -9.5      4.894      7.709
REMARK  4 active torsions:
REMARK  status: ('A' for Active; 'I' for Inactive)
REMARK    1  A    between atoms: C_6  and  C_7 
REMARK    2  A    between atoms: C_7  and  C_8 
REMARK       I    between atoms: C_8  and  N_9 
REMARK    3  A    between atoms: N_9  and  C_10 
REMARK    4  A    between atoms: C_12  and  C_13 
ROOT
HETATM    1  C   UNL     1      27.039  44.224  51.681  1.00  0.00     0.226 C 
HETATM    2  N   UNL     1      26.742  42.875  51.555  1.00  0.00    -0.327 N 
HETATM    3  O   UNL     1      27.754  44.883  50.930  1.00  0.00    -0.273 OA
HETATM    4  H   UNL     1      26.207  42.465  52.308  1.00  0.00     0.169 HD
ENDROOT
BRANCH   1   5
HETATM    5  C   UNL     1      26.341  44.869  52.873  1.00  0.00     0.144 C 
BRANCH   5   6
HETATM    6  C   UNL     1      27.308  45.378  53.890  1.00  0.00    -0.021 A 
HETATM    7  C   UNL     1      28.404  44.671  54.485  1.00  0.00    -0.001 A 
HETATM    8  C   UNL     1      29.023  45.541  55.383  1.00  0.00     0.043 A 
HETATM    9  C   UNL     1      28.935  43.372  54.347  1.00  0.00     0.015 A 
HETATM   10  C   UNL     1      30.145  45.182  56.142  1.00  0.00     0.037 A 
HETATM   11  N   UNL     1      28.329  46.726  55.346  1.00  0.00    -0.365 N 
HETATM   12  C   UNL     1      30.659  43.885  55.992  1.00  0.00    -0.060 A 
HETATM   13  C   UNL     1      31.885  43.474  56.755  1.00  0.00     0.048 C 
HETATM   14  C   UNL     1      30.061  42.999  55.093  1.00  0.00     0.007 A 
HETATM   15  C   UNL     1      27.294  46.639  54.457  1.00  0.00     0.097 A 
HETATM   16  H   UNL     1      28.555  47.542  55.899  1.00  0.00     0.165 HD
ENDBRANCH   5   6
ENDBRANCH   1   5
BRANCH   2  17
HETATM   17  C   UNL     1      27.114  41.995  50.518  1.00  0.00     0.035 A 
HETATM   18  C   UNL     1      27.693  40.773  50.897  1.00  0.00     0.042 A 
HETATM   19  C   UNL     1      28.070  39.815  49.943  1.00  0.00    -0.021 A 
HETATM   20  C   UNL     1      27.871  40.105  48.589  1.00  0.00     0.012 A 
HETATM   21  C   UNL     1      27.303  41.320  48.202  1.00  0.00     0.003 A 
HETATM   22  C   UNL     1      26.924  42.261  49.163  1.00  0.00     0.029 A 
BRANCH  19  23
HETATM   23  C   UNL     1      28.656  38.544  50.340  1.00  0.00     0.010 A 
HETATM   24  C   UNL     1      29.923  38.242  50.896  1.00  0.00     0.152 A 
HETATM   25  N   UNL     1      30.100  36.934  51.108  1.00  0.00    -0.187 NA
HETATM   26  N   UNL     1      28.950  36.390  50.683  1.00  0.00    -0.289 N 
HETATM   27  H   UNL     1      28.846  35.383  50.740  1.00  0.00     0.188 HD
HETATM   28  C   UNL     1      28.055  37.308  50.213  1.00  0.00     0.123 A 
ENDBRANCH  19  23
ENDBRANCH   2  17
TORSDOF 4
ENDMDL
MODEL 5
REMARK VINA RESULT:      -9.3      1.766      9.543
REMARK  4 active torsions:
REMARK  status: ('A' for Active; 'I' for Inactive)
REMARK    1  A    between atoms: C_6  and  C_7 
REMARK    2  A    between atoms: C_7  and  C_8 
REMARK       I    between atoms: C_8  and  N_9 
REMARK    3  A    between atoms: N_9  and  C_10 
REMARK    4  A    between atoms: C_12  and  C_13 
ROOT
HETATM    1  C   UNL     1      26.204  46.822  50.403  1.00  0.00     0.226 C 
HETATM    2  N   UNL     1      25.870  46.873  51.748  1.00  0.00    -0.327 N 
HETATM    3  O   UNL     1      26.804  45.911  49.839  1.00  0.00    -0.273 OA
HETATM    4  H   UNL     1      25.452  47.735  52.070  1.00  0.00     0.169 HD
ENDROOT
BRANCH   1   5
HETATM    5  C   UNL     1      25.708  48.039  49.629  1.00  0.00     0.144 C 
BRANCH   5   6
HETATM    6  C   UNL     1      24.236  47.994  49.382  1.00  0.00    -0.021 A 
HETATM    7  C   UNL     1      23.357  49.100  49.135  1.00  0.00    -0.001 A 
HETATM    8  C   UNL     1      22.072  48.582  48.970  1.00  0.00     0.043 A 
HETATM    9  C   UNL     1      23.527  50.495  49.033  1.00  0.00     0.015 A 
HETATM   10  C   UNL     1      20.955  49.384  48.702  1.00  0.00     0.037 A 
HETATM   11  N   UNL     1      22.161  47.218  49.119  1.00  0.00    -0.365 N 
HETATM   12  C   UNL     1      21.144  50.770  48.606  1.00  0.00    -0.060 A 
HETATM   13  C   UNL     1      19.981  51.663  48.279  1.00  0.00     0.048 C 
HETATM   14  C   UNL     1      22.422  51.312  48.759  1.00  0.00     0.007 A 
HETATM   15  C   UNL     1      23.454  46.854  49.372  1.00  0.00     0.097 A 
HETATM   16  H   UNL     1      21.378  46.581  49.052  1.00  0.00     0.165 HD
ENDBRANCH   5   6
ENDBRANCH   1   5
BRANCH   2  17
HETATM   17  C   UNL     1      26.064  45.882  52.731  1.00  0.00     0.035 A 
HETATM   18  C   UNL     1      27.271  45.923  53.448  1.00  0.00     0.042 A 
HETATM   19  C   UNL     1      27.547  44.999  54.469  1.00  0.00    -0.021 A 
HETATM   20  C   UNL     1      26.595  44.016  54.757  1.00  0.00     0.012 A 
HETATM   21  C   UNL     1      25.395  43.963  54.045  1.00  0.00     0.003 A 
HETATM   22  C   UNL     1      25.129  44.895  53.038  1.00  0.00     0.029 A 
BRANCH  19  23
HETATM   23  C   UNL     1      28.793  45.053  55.218  1.00  0.00     0.010 A 
HETATM   24  C   UNL     1      29.283  46.017  56.133  1.00  0.00     0.152 A 
HETATM   25  N   UNL     1      30.496  45.716  56.605  1.00  0.00    -0.187 NA
HETATM   26  N   UNL     1      30.794  44.562  55.991  1.00  0.00    -0.289 N 
HETATM   27  H   UNL     1      31.690  44.130  56.189  1.00  0.00     0.188 HD
HETATM   28  C   UNL     1      29.811  44.123  55.151  1.00  0.00     0.123 A 
ENDBRANCH  19  23
ENDBRANCH   2  17
TORSDOF 4
ENDMDL
MODEL 6
REMARK VINA RESULT:      -9.0      5.200      6.497
REMARK  4 active torsions:
REMARK  status: ('A' for Active; 'I' for Inactive)
REMARK    1  A    between atoms: C_6  and  C_7 
REMARK    2  A    between atoms: C_7  and  C_8 
REMARK       I    between atoms: C_8  and  N_9 
REMARK    3  A    between atoms: N_9  and  C_10 
REMARK    4  A    between atoms: C_12  and  C_13 
ROOT
HETATM    1  C   UNL     1      28.711  41.312  52.397  1.00  0.00     0.226 C 
HETATM    2  N   UNL     1      28.725  41.282  51.010  1.00  0.00    -0.327 N 
HETATM    3  O   UNL     1      27.910  40.735  53.127  1.00  0.00    -0.273 OA
HETATM    4  H   UNL     1      29.400  41.884  50.559  1.00  0.00     0.169 HD
ENDROOT
BRANCH   1   5
HETATM    5  C   UNL     1      29.856  42.135  52.977  1.00  0.00     0.144 C 
BRANCH   5   6
HETATM    6  C   UNL     1      29.373  43.345  53.707  1.00  0.00    -0.021 A 
HETATM    7  C   UNL     1      29.860  43.869  54.950  1.00  0.00    -0.001 A 
HETATM    8  C   UNL     1      29.105  45.003  55.248  1.00  0.00     0.043 A 
HETATM    9  C   UNL     1      30.874  43.490  55.853  1.00  0.00     0.015 A 
HETATM   10  C   UNL     1      29.316  45.779  56.395  1.00  0.00     0.037 A 
HETATM   11  N   UNL     1      28.189  45.161  54.235  1.00  0.00    -0.365 N 
HETATM   12  C   UNL     1      30.328  45.387  57.284  1.00  0.00    -0.060 A 
HETATM   13  C   UNL     1      30.615  46.214  58.504  1.00  0.00     0.048 C 
HETATM   14  C   UNL     1      31.103  44.259  57.002  1.00  0.00     0.007 A 
HETATM   15  C   UNL     1      28.337  44.168  53.307  1.00  0.00     0.097 A 
HETATM   16  H   UNL     1      27.506  45.904  54.190  1.00  0.00     0.165 HD
ENDBRANCH   5   6
ENDBRANCH   1   5
BRANCH   2  17
HETATM   17  C   UNL     1      27.895  40.537  50.148  1.00  0.00     0.035 A 
HETATM   18  C   UNL     1      26.663  41.113  49.794  1.00  0.00     0.042 A 
HETATM   19  C   UNL     1      25.779  40.466  48.917  1.00  0.00    -0.021 A 
HETATM   20  C   UNL     1      26.141  39.216  48.402  1.00  0.00     0.012 A 
HETATM   21  C   UNL     1      27.360  38.634  48.753  1.00  0.00     0.003 A 
HETATM   22  C   UNL     1      28.235  39.293  49.621  1.00  0.00     0.029 A 
BRANCH  19  23
HETATM   23  C   UNL     1      24.509  41.070  48.542  1.00  0.00     0.010 A 
HETATM   24  C   UNL     1      23.679  41.986  49.234  1.00  0.00     0.152 A 
HETATM   25  N   UNL     1      22.570  42.295  48.558  1.00  0.00    -0.187 NA
HETATM   26  N   UNL     1      22.679  41.576  47.432  1.00  0.00    -0.289 N 
HETATM   27  H   UNL     1      21.934  41.642  46.746  1.00  0.00     0.188 HD
HETATM   28  C   UNL     1      23.818  40.826  47.373  1.00  0.00     0.123 A 
ENDBRANCH  19  23
ENDBRANCH   2  17
TORSDOF 4
ENDMDL
MODEL 7
REMARK VINA RESULT:      -8.8      5.086      6.420
REMARK  4 active torsions:
REMARK  status: ('A' for Active; 'I' for Inactive)
REMARK    1  A    between atoms: C_6  and  C_7 
REMARK    2  A    between atoms: C_7  and  C_8 
REMARK       I    between atoms: C_8  and  N_9 
REMARK    3  A    between atoms: N_9  and  C_10 
REMARK    4  A    between atoms: C_12  and  C_13 
ROOT
HETATM    1  C   UNL     1      27.093  43.856  52.018  1.00  0.00     0.226 C 
HETATM    2  N   UNL     1      26.770  42.511  52.113  1.00  0.00    -0.327 N 
HETATM    3  O   UNL     1      27.793  44.375  51.152  1.00  0.00    -0.273 OA
HETATM    4  H   UNL     1      26.255  42.234  52.937  1.00  0.00     0.169 HD
ENDROOT
BRANCH   1   5
HETATM    5  C   UNL     1      26.444  44.694  53.114  1.00  0.00     0.144 C 
BRANCH   5   6
HETATM    6  C   UNL     1      27.447  45.254  54.069  1.00  0.00    -0.021 A 
HETATM    7  C   UNL     1      28.558  44.574  54.669  1.00  0.00    -0.001 A 
HETATM    8  C   UNL     1      29.210  45.489  55.494  1.00  0.00     0.043 A 
HETATM    9  C   UNL     1      29.077  43.265  54.588  1.00  0.00     0.015 A 
HETATM   10  C   UNL     1      30.355  45.167  56.236  1.00  0.00     0.037 A 
HETATM   11  N   UNL     1      28.522  46.676  55.411  1.00  0.00    -0.365 N 
HETATM   12  C   UNL     1      30.856  43.860  56.145  1.00  0.00    -0.060 A 
HETATM   13  C   UNL     1      32.105  43.484  56.890  1.00  0.00     0.048 C 
HETATM   14  C   UNL     1      30.225  42.928  55.318  1.00  0.00     0.007 A 
HETATM   15  C   UNL     1      27.458  46.545  54.562  1.00  0.00     0.097 A 
HETATM   16  H   UNL     1      28.770  47.520  55.909  1.00  0.00     0.165 HD
ENDBRANCH   5   6
ENDBRANCH   1   5
BRANCH   2  17
HETATM   17  C   UNL     1      27.095  41.472  51.217  1.00  0.00     0.035 A 
HETATM   18  C   UNL     1      26.194  41.232  50.166  1.00  0.00     0.042 A 
HETATM   19  C   UNL     1      26.441  40.241  49.203  1.00  0.00    -0.021 A 
HETATM   20  C   UNL     1      27.607  39.477  49.313  1.00  0.00     0.012 A 
HETATM   21  C   UNL     1      28.505  39.703  50.358  1.00  0.00     0.003 A 
HETATM   22  C   UNL     1      28.251  40.699  51.304  1.00  0.00     0.029 A 
BRANCH  19  23
HETATM   23  C   UNL     1      25.512  40.004  48.108  1.00  0.00     0.010 A 
HETATM   24  C   UNL     1      25.505  39.013  47.097  1.00  0.00     0.152 A 
HETATM   25  N   UNL     1      24.480  39.141  46.250  1.00  0.00    -0.187 NA
HETATM   26  N   UNL     1      23.827  40.218  46.710  1.00  0.00    -0.289 N 
HETATM   27  H   UNL     1      22.995  40.522  46.215  1.00  0.00     0.188 HD
HETATM   28  C   UNL     1      24.402  40.772  47.817  1.00  0.00     0.123 A 
ENDBRANCH  19  23
ENDBRANCH   2  17
TORSDOF 4
ENDMDL
MODEL 8
REMARK VINA RESULT:      -8.7      4.617      6.137
REMARK  4 active torsions:
REMARK  status: ('A' for Active; 'I' for Inactive)
REMARK    1  A    between atoms: C_6  and  C_7 
REMARK    2  A    between atoms: C_7  and  C_8 
REMARK       I    between atoms: C_8  and  N_9 
REMARK    3  A    between atoms: N_9  and  C_10 
REMARK    4  A    between atoms: C_12  and  C_13 
ROOT
HETATM    1  C   UNL     1      29.008  41.722  53.036  1.00  0.00     0.226 C 
HETATM    2  N   UNL     1      28.882  41.830  51.659  1.00  0.00    -0.327 N 
HETATM    3  O   UNL     1      28.210  41.181  53.797  1.00  0.00    -0.273 OA
HETATM    4  H   UNL     1      29.585  42.383  51.190  1.00  0.00     0.169 HD
ENDROOT
BRANCH   1   5
HETATM    5  C   UNL     1      30.304  42.333  53.556  1.00  0.00     0.144 C 
BRANCH   5   6
HETATM    6  C   UNL     1      30.061  43.452  54.514  1.00  0.00    -0.021 A 
HETATM    7  C   UNL     1      29.043  44.461  54.440  1.00  0.00    -0.001 A 
HETATM    8  C   UNL     1      29.205  45.297  55.544  1.00  0.00     0.043 A 
HETATM    9  C   UNL     1      27.995  44.744  53.541  1.00  0.00     0.015 A 
HETATM   10  C   UNL     1      28.371  46.394  55.798  1.00  0.00     0.037 A 
HETATM   11  N   UNL     1      30.281  44.826  56.258  1.00  0.00    -0.365 N 
HETATM   12  C   UNL     1      27.334  46.662  54.892  1.00  0.00    -0.060 A 
HETATM   13  C   UNL     1      26.392  47.803  55.148  1.00  0.00     0.048 C 
HETATM   14  C   UNL     1      27.147  45.833  53.783  1.00  0.00     0.007 A 
HETATM   15  C   UNL     1      30.806  43.722  55.646  1.00  0.00     0.097 A 
HETATM   16  H   UNL     1      30.630  45.242  57.111  1.00  0.00     0.165 HD
ENDBRANCH   5   6
ENDBRANCH   1   5
BRANCH   2  17
HETATM   17  C   UNL     1      27.879  41.285  50.832  1.00  0.00     0.035 A 
HETATM   18  C   UNL     1      26.682  42.011  50.719  1.00  0.00     0.042 A 
HETATM   19  C   UNL     1      25.634  41.569  49.895  1.00  0.00    -0.021 A 
HETATM   20  C   UNL     1      25.796  40.373  49.190  1.00  0.00     0.012 A 
HETATM   21  C   UNL     1      26.979  39.641  49.301  1.00  0.00     0.003 A 
HETATM   22  C   UNL     1      28.018  40.097  50.117  1.00  0.00     0.029 A 
BRANCH  19  23
HETATM   23  C   UNL     1      24.400  42.331  49.770  1.00  0.00     0.010 A 
HETATM   24  C   UNL     1      23.711  43.138  50.708  1.00  0.00     0.152 A 
HETATM   25  N   UNL     1      22.586  43.664  50.214  1.00  0.00    -0.187 NA
HETATM   26  N   UNL     1      22.545  43.192  48.960  1.00  0.00    -0.289 N 
HETATM   27  H   UNL     1      21.760  43.455  48.373  1.00  0.00     0.188 HD
HETATM   28  C   UNL     1      23.604  42.389  48.645  1.00  0.00     0.123 A 
ENDBRANCH  19  23
ENDBRANCH   2  17
TORSDOF 4
ENDMDL
MODEL 9
REMARK VINA RESULT:      -8.7      3.859      9.194
REMARK  4 active torsions:
REMARK  status: ('A' for Active; 'I' for Inactive)
REMARK    1  A    between atoms: C_6  and  C_7 
REMARK    2  A    between atoms: C_7  and  C_8 
REMARK       I    between atoms: C_8  and  N_9 
REMARK    3  A    between atoms: N_9  and  C_10 
REMARK    4  A    between atoms: C_12  and  C_13 
ROOT
HETATM    1  C   UNL     1      26.254  44.819  52.195  1.00  0.00     0.226 C 
HETATM    2  N   UNL     1      26.727  43.963  53.178  1.00  0.00    -0.327 N 
HETATM    3  O   UNL     1      26.930  45.582  51.511  1.00  0.00    -0.273 OA
HETATM    4  H   UNL     1      26.027  43.465  53.709  1.00  0.00     0.169 HD
ENDROOT
BRANCH   1   5
HETATM    5  C   UNL     1      24.747  44.706  51.994  1.00  0.00     0.144 C 
BRANCH   5   6
HETATM    6  C   UNL     1      24.390  44.229  50.625  1.00  0.00    -0.021 A 
HETATM    7  C   UNL     1      24.750  42.984  50.011  1.00  0.00    -0.001 A 
HETATM    8  C   UNL     1      24.203  42.979  48.728  1.00  0.00     0.043 A 
HETATM    9  C   UNL     1      25.487  41.855  50.423  1.00  0.00     0.015 A 
HETATM   10  C   UNL     1      24.349  41.903  47.841  1.00  0.00     0.037 A 
HETATM   11  N   UNL     1      23.546  44.174  48.560  1.00  0.00    -0.365 N 
HETATM   12  C   UNL     1      25.087  40.789  48.268  1.00  0.00    -0.060 A 
HETATM   13  C   UNL     1      25.233  39.598  47.364  1.00  0.00     0.048 C 
HETATM   14  C   UNL     1      25.637  40.768  49.551  1.00  0.00     0.007 A 
HETATM   15  C   UNL     1      23.656  44.935  49.691  1.00  0.00     0.097 A 
HETATM   16  H   UNL     1      23.055  44.446  47.720  1.00  0.00     0.165 HD
ENDBRANCH   5   6
ENDBRANCH   1   5
BRANCH   2  17
HETATM   17  C   UNL     1      28.065  43.720  53.549  1.00  0.00     0.035 A 
HETATM   18  C   UNL     1      28.506  44.292  54.754  1.00  0.00     0.042 A 
HETATM   19  C   UNL     1      29.811  44.083  55.228  1.00  0.00    -0.021 A 
HETATM   20  C   UNL     1      30.682  43.298  54.466  1.00  0.00     0.012 A 
HETATM   21  C   UNL     1      30.255  42.731  53.264  1.00  0.00     0.003 A 
HETATM   22  C   UNL     1      28.950  42.939  52.809  1.00  0.00     0.029 A 
BRANCH  19  23
HETATM   23  C   UNL     1      30.260  44.666  56.484  1.00  0.00     0.010 A 
HETATM   24  C   UNL     1      29.924  45.892  57.108  1.00  0.00     0.152 A 
HETATM   25  N   UNL     1      30.571  46.081  58.262  1.00  0.00    -0.187 NA
HETATM   26  N   UNL     1      31.329  44.982  58.381  1.00  0.00    -0.289 N 
HETATM   27  H   UNL     1      31.928  44.897  59.195  1.00  0.00     0.188 HD
HETATM   28  C   UNL     1      31.182  44.105  57.345  1.00  0.00     0.123 A 
ENDBRANCH  19  23
ENDBRANCH   2  17
TORSDOF 4
ENDMDL
MODEL 10
REMARK VINA RESULT:      -8.7      2.547      9.144
REMARK  4 active torsions:
REMARK  status: ('A' for Active; 'I' for Inactive)
REMARK    1  A    between atoms: C_6  and  C_7 
REMARK    2  A    between atoms: C_7  and  C_8 
REMARK       I    between atoms: C_8  and  N_9 
REMARK    3  A    between atoms: N_9  and  C_10 
REMARK    4  A    between atoms: C_12  and  C_13 
ROOT
HETATM    1  C   UNL     1      26.276  47.493  50.000  1.00  0.00     0.226 C 
HETATM    2  N   UNL     1      25.977  47.537  51.353  1.00  0.00    -0.327 N 
HETATM    3  O   UNL     1      27.005  46.675  49.445  1.00  0.00    -0.273 OA
HETATM    4  H   UNL     1      25.428  48.328  51.662  1.00  0.00     0.169 HD
ENDROOT
BRANCH   1   5
HETATM    5  C   UNL     1      25.560  48.578  49.205  1.00  0.00     0.144 C 
BRANCH   5   6
HETATM    6  C   UNL     1      24.086  48.347  49.127  1.00  0.00    -0.021 A 
HETATM    7  C   UNL     1      23.053  49.330  48.979  1.00  0.00    -0.001 A 
HETATM    8  C   UNL     1      21.833  48.653  48.962  1.00  0.00     0.043 A 
HETATM    9  C   UNL     1      23.035  50.734  48.855  1.00  0.00     0.015 A 
HETATM   10  C   UNL     1      20.601  49.306  48.820  1.00  0.00     0.037 A 
HETATM   11  N   UNL     1      22.108  47.314  49.103  1.00  0.00    -0.365 N 
HETATM   12  C   UNL     1      20.602  50.703  48.700  1.00  0.00    -0.060 A 
HETATM   13  C   UNL     1      19.307  51.438  48.505  1.00  0.00     0.048 C 
HETATM   14  C   UNL     1      21.812  51.402  48.706  1.00  0.00     0.007 A 
HETATM   15  C   UNL     1      23.457  47.119  49.208  1.00  0.00     0.097 A 
HETATM   16  H   UNL     1      21.409  46.584  49.126  1.00  0.00     0.165 HD
ENDBRANCH   5   6
ENDBRANCH   1   5
BRANCH   2  17
HETATM   17  C   UNL     1      26.364  46.631  52.361  1.00  0.00     0.035 A 
HETATM   18  C   UNL     1      26.504  45.284  51.987  1.00  0.00     0.042 A 
HETATM   19  C   UNL     1      26.916  44.308  52.908  1.00  0.00    -0.021 A 
HETATM   20  C   UNL     1      27.174  44.699  54.226  1.00  0.00     0.012 A 
HETATM   21  C   UNL     1      27.031  46.033  54.609  1.00  0.00     0.003 A 
HETATM   22  C   UNL     1      26.630  46.996  53.679  1.00  0.00     0.029 A 
BRANCH  19  23
HETATM   23  C   UNL     1      27.073  42.916  52.514  1.00  0.00     0.010 A 
HETATM   24  C   UNL     1      26.636  42.226  51.357  1.00  0.00     0.152 A 
HETATM   25  N   UNL     1      26.963  40.931  51.370  1.00  0.00    -0.187 NA
HETATM   26  N   UNL     1      27.605  40.781  52.537  1.00  0.00    -0.289 N 
HETATM   27  H   UNL     1      27.952  39.859  52.780  1.00  0.00     0.188 HD
HETATM   28  C   UNL     1      27.697  41.936  53.259  1.00  0.00     0.123 A 
ENDBRANCH  19  23
ENDBRANCH   2  17
TORSDOF 4
ENDMDL
