MODEL 1
REMARK VINA RESULT:     -10.0      0.000      0.000
REMARK  2 active torsions:
REMARK  status: ('A' for Active; 'I' for Inactive)
REMARK    1  A    between atoms: O_2  and  C_3 
REMARK    2  A    between atoms: C_5  and  N_6 
REMARK       I    between atoms: N_6  and  C_7 
REMARK       I    between atoms: C_7  and  N_8 
ROOT
HETATM    1  N   UNL     1      24.302  47.295  50.609  1.00  0.00    -0.307 N 
HETATM    2  C   UNL     1      24.694  45.995  50.393  1.00  0.00     0.323 C 
HETATM    3  N   UNL     1      25.090  45.311  51.538  1.00  0.00    -0.328 N 
HETATM    4  C   UNL     1      25.396  45.933  52.839  1.00  0.00     0.185 C 
HETATM    5  C   UNL     1      26.656  45.339  53.370  1.00  0.00     0.035 A 
HETATM    6  C   UNL     1      27.351  44.264  52.851  1.00  0.00    -0.020 A 
HETATM    7  C   UNL     1      26.872  43.558  51.628  1.00  0.00     0.061 C 
HETATM    8  C   UNL     1      25.374  43.865  51.424  1.00  0.00     0.132 C 
HETATM    9  N   UNL     1      27.327  45.780  54.477  1.00  0.00    -0.357 N 
HETATM   10  H   UNL     1      27.056  46.557  55.065  1.00  0.00     0.166 HD
HETATM   11  C   UNL     1      28.452  45.009  54.680  1.00  0.00     0.043 A 
HETATM   12  C   UNL     1      28.493  44.048  53.666  1.00  0.00    -0.001 A 
HETATM   13  C   UNL     1      29.432  45.096  55.677  1.00  0.00     0.030 A 
HETATM   14  C   UNL     1      30.483  44.175  55.633  1.00  0.00     0.002 A 
HETATM   15  C   UNL     1      30.551  43.208  54.633  1.00  0.00     0.001 A 
HETATM   16  C   UNL     1      29.563  43.133  53.644  1.00  0.00     0.014 A 
HETATM   17  O   UNL     1      24.689  45.451  49.292  1.00  0.00    -0.247 OA
HETATM   18  H   UNL     1      24.018  47.530  51.548  1.00  0.00     0.170 HD
ENDROOT
BRANCH   1  19
HETATM   19  C   UNL     1      24.006  48.296  49.651  1.00  0.00     0.060 A 
HETATM   20  C   UNL     1      22.701  48.633  49.269  1.00  0.00     0.068 A 
HETATM   21  C   UNL     1      22.471  49.626  48.311  1.00  0.00     0.070 A 
HETATM   22  C   UNL     1      23.553  50.272  47.711  1.00  0.00     0.038 A 
HETATM   23  C   UNL     1      24.859  49.943  48.068  1.00  0.00     0.029 A 
HETATM   24  C   UNL     1      25.082  48.962  49.034  1.00  0.00     0.061 A 
HETATM   25 CL   UNL     1      26.722  48.579  49.446  1.00  0.00    -0.082 Cl
BRANCH  21  26
HETATM   26  O   UNL     1      21.245  50.047  47.871  1.00  0.00    -0.356 OA
HETATM   27  C   UNL     1      20.706  51.210  48.490  1.00  0.00     0.210 C 
ENDBRANCH  21  26
ENDBRANCH   1  19
TORSDOF 2
ENDMDL
MODEL 2
REMARK VINA RESULT:      -8.8      2.938      8.573
REMARK  2 active torsions:
REMARK  status: ('A' for Active; 'I' for Inactive)
REMARK    1  A    between atoms: O_2  and  C_3 
REMARK    2  A    between atoms: C_5  and  N_6 
REMARK       I    between atoms: N_6  and  C_7 
REMARK       I    between atoms: C_7  and  N_8 
ROOT
HETATM    1  N   UNL     1      28.285  44.621  52.833  1.00  0.00    -0.307 N 
HETATM    2  C   UNL     1      26.961  44.348  52.585  1.00  0.00     0.323 C 
HETATM    3  N   UNL     1      26.495  44.802  51.355  1.00  0.00    -0.328 N 
HETATM    4  C   UNL     1      27.192  45.766  50.484  1.00  0.00     0.185 C 
HETATM    5  C   UNL     1      26.206  46.774  49.999  1.00  0.00     0.035 A 
HETATM    6  C   UNL     1      24.836  46.743  50.167  1.00  0.00    -0.020 A 
HETATM    7  C   UNL     1      24.178  45.626  50.904  1.00  0.00     0.061 C 
HETATM    8  C   UNL     1      25.131  44.415  50.938  1.00  0.00     0.132 C 
HETATM    9  N   UNL     1      26.520  47.904  49.296  1.00  0.00    -0.357 N 
HETATM   10  H   UNL     1      27.449  48.195  49.024  1.00  0.00     0.166 HD
HETATM   11  C   UNL     1      25.371  48.612  49.012  1.00  0.00     0.043 A 
HETATM   12  C   UNL     1      24.295  47.903  49.553  1.00  0.00    -0.001 A 
HETATM   13  C   UNL     1      25.208  49.822  48.325  1.00  0.00     0.030 A 
HETATM   14  C   UNL     1      23.909  50.320  48.190  1.00  0.00     0.002 A 
HETATM   15  C   UNL     1      22.818  49.636  48.722  1.00  0.00     0.001 A 
HETATM   16  C   UNL     1      22.996  48.428  49.405  1.00  0.00     0.014 A 
HETATM   17  O   UNL     1      26.229  43.740  53.362  1.00  0.00    -0.247 OA
HETATM   18  H   UNL     1      28.866  44.803  52.028  1.00  0.00     0.170 HD
ENDROOT
BRANCH   1  19
HETATM   19  C   UNL     1      29.010  44.445  54.038  1.00  0.00     0.060 A 
HETATM   20  C   UNL     1      28.984  45.368  55.091  1.00  0.00     0.068 A 
HETATM   21  C   UNL     1      29.727  45.145  56.256  1.00  0.00     0.070 A 
HETATM   22  C   UNL     1      30.523  44.002  56.359  1.00  0.00     0.038 A 
HETATM   23  C   UNL     1      30.572  43.079  55.317  1.00  0.00     0.029 A 
HETATM   24  C   UNL     1      29.818  43.299  54.165  1.00  0.00     0.061 A 
HETATM   25 CL   UNL     1      29.911  42.128  52.891  1.00  0.00    -0.082 Cl
BRANCH  21  26
HETATM   26  O   UNL     1      29.769  45.965  57.350  1.00  0.00    -0.356 OA
HETATM   27  C   UNL     1      30.564  45.530  58.448  1.00  0.00     0.210 C 
ENDBRANCH  21  26
ENDBRANCH   1  19
TORSDOF 2
ENDMDL
MODEL 3
REMARK VINA RESULT:      -8.4      5.132      8.775
REMARK  2 active torsions:
REMARK  status: ('A' for Active; 'I' for Inactive)
REMARK    1  A    between atoms: O_2  and  C_3 
REMARK    2  A    between atoms: C_5  and  N_6 
REMARK       I    between atoms: N_6  and  C_7 
REMARK       I    between atoms: C_7  and  N_8 
ROOT
HETATM    1  N   UNL     1      27.492  42.976  52.804  1.00  0.00    -0.307 N 
HETATM    2  C   UNL     1      27.474  43.237  51.454  1.00  0.00     0.323 C 
HETATM    3  N   UNL     1      26.733  42.333  50.699  1.00  0.00    -0.328 N 
HETATM    4  C   UNL     1      26.253  41.022  51.171  1.00  0.00     0.185 C 
HETATM    5  C   UNL     1      26.527  40.003  50.117  1.00  0.00     0.035 A 
HETATM    6  C   UNL     1      26.987  40.236  48.836  1.00  0.00    -0.020 A 
HETATM    7  C   UNL     1      27.274  41.622  48.364  1.00  0.00     0.061 C 
HETATM    8  C   UNL     1      26.527  42.625  49.265  1.00  0.00     0.132 C 
HETATM    9  N   UNL     1      26.359  38.654  50.266  1.00  0.00    -0.357 N 
HETATM   10  H   UNL     1      26.034  38.185  51.100  1.00  0.00     0.166 HD
HETATM   11  C   UNL     1      26.709  38.008  49.100  1.00  0.00     0.043 A 
HETATM   12  C   UNL     1      27.113  38.982  48.183  1.00  0.00    -0.001 A 
HETATM   13  C   UNL     1      26.705  36.641  48.794  1.00  0.00     0.030 A 
HETATM   14  C   UNL     1      27.126  36.262  47.516  1.00  0.00     0.002 A 
HETATM   15  C   UNL     1      27.535  37.212  46.583  1.00  0.00     0.001 A 
HETATM   16  C   UNL     1      27.534  38.574  46.902  1.00  0.00     0.014 A 
HETATM   17  O   UNL     1      28.043  44.193  50.933  1.00  0.00    -0.247 OA
HETATM   18  H   UNL     1      26.743  42.403  53.163  1.00  0.00     0.170 HD
ENDROOT
BRANCH   1  19
HETATM   19  C   UNL     1      28.274  43.595  53.810  1.00  0.00     0.060 A 
HETATM   20  C   UNL     1      29.445  43.029  54.330  1.00  0.00     0.068 A 
HETATM   21  C   UNL     1      30.173  43.684  55.329  1.00  0.00     0.070 A 
HETATM   22  C   UNL     1      29.715  44.904  55.832  1.00  0.00     0.038 A 
HETATM   23  C   UNL     1      28.546  45.477  55.337  1.00  0.00     0.029 A 
HETATM   24  C   UNL     1      27.832  44.827  54.331  1.00  0.00     0.061 A 
HETATM   25 CL   UNL     1      26.381  45.572  53.745  1.00  0.00    -0.082 Cl
BRANCH  21  26
HETATM   26  O   UNL     1      31.333  43.236  55.901  1.00  0.00    -0.356 OA
HETATM   27  C   UNL     1      31.529  43.542  57.278  1.00  0.00     0.210 C 
ENDBRANCH  21  26
ENDBRANCH   1  19
TORSDOF 2
ENDMDL
MODEL 4
REMARK VINA RESULT:      -8.2      2.350      8.609
REMARK  2 active torsions:
REMARK  status: ('A' for Active; 'I' for Inactive)
REMARK    1  A    between atoms: O_2  and  C_3 
REMARK    2  A    between atoms: C_5  and  N_6 
REMARK       I    between atoms: N_6  and  C_7 
REMARK       I    between atoms: C_7  and  N_8 
ROOT
HETATM    1  N   UNL     1      26.291  45.580  51.303  1.00  0.00    -0.307 N 
HETATM    2  C   UNL     1      25.198  45.091  50.628  1.00  0.00     0.323 C 
HETATM    3  N   UNL     1      24.726  45.918  49.613  1.00  0.00    -0.328 N 
HETATM    4  C   UNL     1      25.096  47.332  49.426  1.00  0.00     0.185 C 
HETATM    5  C   UNL     1      23.860  48.120  49.152  1.00  0.00     0.035 A 
HETATM    6  C   UNL     1      22.591  47.623  48.926  1.00  0.00    -0.020 A 
HETATM    7  C   UNL     1      22.328  46.155  48.944  1.00  0.00     0.061 C 
HETATM    8  C   UNL     1      23.657  45.402  48.732  1.00  0.00     0.132 C 
HETATM    9  N   UNL     1      23.798  49.484  49.079  1.00  0.00    -0.357 N 
HETATM   10  H   UNL     1      24.573  50.121  49.203  1.00  0.00     0.166 HD
HETATM   11  C   UNL     1      22.504  49.880  48.816  1.00  0.00     0.043 A 
HETATM   12  C   UNL     1      21.722  48.725  48.719  1.00  0.00    -0.001 A 
HETATM   13  C   UNL     1      21.971  51.166  48.664  1.00  0.00     0.030 A 
HETATM   14  C   UNL     1      20.601  51.273  48.407  1.00  0.00     0.002 A 
HETATM   15  C   UNL     1      19.797  50.139  48.307  1.00  0.00     0.001 A 
HETATM   16  C   UNL     1      20.344  48.861  48.460  1.00  0.00     0.014 A 
HETATM   17  O   UNL     1      24.671  44.007  50.868  1.00  0.00    -0.247 OA
HETATM   18  H   UNL     1      26.841  46.278  50.826  1.00  0.00     0.170 HD
ENDROOT
BRANCH   1  19
HETATM   19  C   UNL     1      26.901  45.071  52.477  1.00  0.00     0.060 A 
HETATM   20  C   UNL     1      27.623  43.872  52.509  1.00  0.00     0.068 A 
HETATM   21  C   UNL     1      28.198  43.415  53.701  1.00  0.00     0.070 A 
HETATM   22  C   UNL     1      28.027  44.149  54.876  1.00  0.00     0.038 A 
HETATM   23  C   UNL     1      27.300  45.338  54.868  1.00  0.00     0.029 A 
HETATM   24  C   UNL     1      26.743  45.796  53.674  1.00  0.00     0.061 A 
HETATM   25 CL   UNL     1      25.843  47.277  53.707  1.00  0.00    -0.082 Cl
BRANCH  21  26
HETATM   26  O   UNL     1      28.933  42.271  53.850  1.00  0.00    -0.356 OA
HETATM   27  C   UNL     1      28.535  41.147  53.072  1.00  0.00     0.210 C 
ENDBRANCH  21  26
ENDBRANCH   1  19
TORSDOF 2
ENDMDL
MODEL 5
REMARK VINA RESULT:      -8.1      5.108      8.079
REMARK  2 active torsions:
REMARK  status: ('A' for Active; 'I' for Inactive)
REMARK    1  A    between atoms: O_2  and  C_3 
REMARK    2  A    between atoms: C_5  and  N_6 
REMARK       I    between atoms: N_6  and  C_7 
REMARK       I    between atoms: C_7  and  N_8 
ROOT
HETATM    1  N   UNL     1      27.183  43.209  52.713  1.00  0.00    -0.307 N 
HETATM    2  C   UNL     1      27.178  43.427  51.356  1.00  0.00     0.323 C 
HETATM    3  N   UNL     1      26.491  42.469  50.617  1.00  0.00    -0.328 N 
HETATM    4  C   UNL     1      26.062  41.152  51.121  1.00  0.00     0.185 C 
HETATM    5  C   UNL     1      26.400  40.115  50.104  1.00  0.00     0.035 A 
HETATM    6  C   UNL     1      26.871  40.330  48.824  1.00  0.00    -0.020 A 
HETATM    7  C   UNL     1      27.105  41.712  48.314  1.00  0.00     0.061 C 
HETATM    8  C   UNL     1      26.298  42.708  49.171  1.00  0.00     0.132 C 
HETATM    9  N   UNL     1      26.288  38.765  50.292  1.00  0.00    -0.357 N 
HETATM   10  H   UNL     1      25.970  38.308  51.135  1.00  0.00     0.166 HD
HETATM   11  C   UNL     1      26.689  38.100  49.152  1.00  0.00     0.043 A 
HETATM   12  C   UNL     1      27.065  39.064  48.213  1.00  0.00    -0.001 A 
HETATM   13  C   UNL     1      26.750  36.726  48.889  1.00  0.00     0.030 A 
HETATM   14  C   UNL     1      27.210  36.327  47.631  1.00  0.00     0.002 A 
HETATM   15  C   UNL     1      27.594  37.266  46.676  1.00  0.00     0.001 A 
HETATM   16  C   UNL     1      27.526  38.636  46.952  1.00  0.00     0.014 A 
HETATM   17  O   UNL     1      27.713  44.391  50.814  1.00  0.00    -0.247 OA
HETATM   18  H   UNL     1      26.454  42.613  53.077  1.00  0.00     0.170 HD
ENDROOT
BRANCH   1  19
HETATM   19  C   UNL     1      27.919  43.893  53.712  1.00  0.00     0.060 A 
HETATM   20  C   UNL     1      27.447  45.038  54.365  1.00  0.00     0.068 A 
HETATM   21  C   UNL     1      28.223  45.676  55.340  1.00  0.00     0.070 A 
HETATM   22  C   UNL     1      29.492  45.181  55.646  1.00  0.00     0.038 A 
HETATM   23  C   UNL     1      29.984  44.050  54.999  1.00  0.00     0.029 A 
HETATM   24  C   UNL     1      29.201  43.410  54.039  1.00  0.00     0.061 A 
HETATM   25 CL   UNL     1      29.852  42.008  53.255  1.00  0.00    -0.082 Cl
BRANCH  21  26
HETATM   26  O   UNL     1      27.863  46.789  56.050  1.00  0.00    -0.356 OA
HETATM   27  C   UNL     1      27.085  47.764  55.363  1.00  0.00     0.210 C 
ENDBRANCH  21  26
ENDBRANCH   1  19
TORSDOF 2
ENDMDL
MODEL 6
REMARK VINA RESULT:      -8.0      3.491     10.619
REMARK  2 active torsions:
REMARK  status: ('A' for Active; 'I' for Inactive)
REMARK    1  A    between atoms: O_2  and  C_3 
REMARK    2  A    between atoms: C_5  and  N_6 
REMARK       I    between atoms: N_6  and  C_7 
REMARK       I    between atoms: C_7  and  N_8 
ROOT
HETATM    1  N   UNL     1      22.539  48.748  49.354  1.00  0.00    -0.307 N 
HETATM    2  C   UNL     1      21.837  49.888  49.667  1.00  0.00     0.323 C 
HETATM    3  N   UNL     1      20.522  49.902  49.214  1.00  0.00    -0.328 N 
HETATM    4  C   UNL     1      19.954  48.976  48.217  1.00  0.00     0.185 C 
HETATM    5  C   UNL     1      19.150  49.760  47.237  1.00  0.00     0.035 A 
HETATM    6  C   UNL     1      18.821  51.099  47.315  1.00  0.00    -0.020 A 
HETATM    7  C   UNL     1      19.277  51.936  48.462  1.00  0.00     0.061 C 
HETATM    8  C   UNL     1      19.648  51.015  49.641  1.00  0.00     0.132 C 
HETATM    9  N   UNL     1      18.604  49.257  46.089  1.00  0.00    -0.357 N 
HETATM   10  H   UNL     1      18.680  48.303  45.764  1.00  0.00     0.166 HD
HETATM   11  C   UNL     1      17.930  50.255  45.416  1.00  0.00     0.043 A 
HETATM   12  C   UNL     1      18.055  51.427  46.166  1.00  0.00    -0.001 A 
HETATM   13  C   UNL     1      17.230  50.206  44.204  1.00  0.00     0.030 A 
HETATM   14  C   UNL     1      16.642  51.390  43.747  1.00  0.00     0.002 A 
HETATM   15  C   UNL     1      16.753  52.573  44.473  1.00  0.00     0.001 A 
HETATM   16  C   UNL     1      17.455  52.607  45.683  1.00  0.00     0.014 A 
HETATM   17  O   UNL     1      22.304  50.826  50.308  1.00  0.00    -0.247 OA
HETATM   18  H   UNL     1      21.993  47.926  49.143  1.00  0.00     0.170 HD
ENDROOT
BRANCH   1  19
HETATM   19  C   UNL     1      23.923  48.492  49.520  1.00  0.00     0.060 A 
HETATM   20  C   UNL     1      24.427  47.545  50.420  1.00  0.00     0.068 A 
HETATM   21  C   UNL     1      25.805  47.341  50.546  1.00  0.00     0.070 A 
HETATM   22  C   UNL     1      26.689  48.107  49.785  1.00  0.00     0.038 A 
HETATM   23  C   UNL     1      26.209  49.063  48.893  1.00  0.00     0.029 A 
HETATM   24  C   UNL     1      24.833  49.252  48.761  1.00  0.00     0.061 A 
HETATM   25 CL   UNL     1      24.277  50.454  47.643  1.00  0.00    -0.082 Cl
BRANCH  21  26
HETATM   26  O   UNL     1      26.410  46.439  51.379  1.00  0.00    -0.356 OA
HETATM   27  C   UNL     1      25.561  45.711  52.260  1.00  0.00     0.210 C 
ENDBRANCH  21  26
ENDBRANCH   1  19
TORSDOF 2
ENDMDL
MODEL 7
REMARK VINA RESULT:      -7.9      5.474      7.611
REMARK  2 active torsions:
REMARK  status: ('A' for Active; 'I' for Inactive)
REMARK    1  A    between atoms: O_2  and  C_3 
REMARK    2  A    between atoms: C_5  and  N_6 
REMARK       I    between atoms: N_6  and  C_7 
REMARK       I    between atoms: C_7  and  N_8 
ROOT
HETATM    1  N   UNL     1      27.194  40.529  49.823  1.00  0.00    -0.307 N 
HETATM    2  C   UNL     1      28.006  40.420  50.927  1.00  0.00     0.323 C 
HETATM    3  N   UNL     1      27.573  41.136  52.038  1.00  0.00    -0.328 N 
HETATM    4  C   UNL     1      26.539  42.187  52.024  1.00  0.00     0.185 C 
HETATM    5  C   UNL     1      27.022  43.347  52.826  1.00  0.00     0.035 A 
HETATM    6  C   UNL     1      28.158  43.399  53.610  1.00  0.00    -0.020 A 
HETATM    7  C   UNL     1      29.065  42.221  53.727  1.00  0.00     0.061 C 
HETATM    8  C   UNL     1      28.296  40.950  53.314  1.00  0.00     0.132 C 
HETATM    9  N   UNL     1      26.396  44.560  52.908  1.00  0.00    -0.357 N 
HETATM   10  H   UNL     1      25.540  44.819  52.439  1.00  0.00     0.166 HD
HETATM   11  C   UNL     1      27.115  45.402  53.730  1.00  0.00     0.043 A 
HETATM   12  C   UNL     1      28.233  44.695  54.183  1.00  0.00    -0.001 A 
HETATM   13  C   UNL     1      26.862  46.729  54.099  1.00  0.00     0.030 A 
HETATM   14  C   UNL     1      27.779  47.351  54.952  1.00  0.00     0.002 A 
HETATM   15  C   UNL     1      28.903  46.671  55.416  1.00  0.00     0.001 A 
HETATM   16  C   UNL     1      29.142  45.345  55.041  1.00  0.00     0.014 A 
HETATM   17  O   UNL     1      29.028  39.739  50.962  1.00  0.00    -0.247 OA
HETATM   18  H   UNL     1      26.240  40.811  49.991  1.00  0.00     0.170 HD
ENDROOT
BRANCH   1  19
HETATM   19  C   UNL     1      27.434  40.068  48.504  1.00  0.00     0.060 A 
HETATM   20  C   UNL     1      27.828  40.910  47.456  1.00  0.00     0.068 A 
HETATM   21  C   UNL     1      28.044  40.399  46.172  1.00  0.00     0.070 A 
HETATM   22  C   UNL     1      27.839  39.040  45.926  1.00  0.00     0.038 A 
HETATM   23  C   UNL     1      27.435  38.188  46.952  1.00  0.00     0.029 A 
HETATM   24  C   UNL     1      27.236  38.701  48.233  1.00  0.00     0.061 A 
HETATM   25 CL   UNL     1      26.730  37.609  49.481  1.00  0.00    -0.082 Cl
BRANCH  21  26
HETATM   26  O   UNL     1      28.441  41.119  45.078  1.00  0.00    -0.356 OA
HETATM   27  C   UNL     1      28.800  40.377  43.918  1.00  0.00     0.210 C 
ENDBRANCH  21  26
ENDBRANCH   1  19
TORSDOF 2
ENDMDL
MODEL 8
REMARK VINA RESULT:      -7.9      2.537      8.786
REMARK  2 active torsions:
REMARK  status: ('A' for Active; 'I' for Inactive)
REMARK    1  A    between atoms: O_2  and  C_3 
REMARK    2  A    between atoms: C_5  and  N_6 
REMARK       I    between atoms: N_6  and  C_7 
REMARK       I    between atoms: C_7  and  N_8 
ROOT
HETATM    1  N   UNL     1      25.322  45.955  50.147  1.00  0.00    -0.307 N 
HETATM    2  C   UNL     1      24.200  45.544  49.466  1.00  0.00     0.323 C 
HETATM    3  N   UNL     1      23.500  46.566  48.833  1.00  0.00    -0.328 N 
HETATM    4  C   UNL     1      23.685  48.008  49.083  1.00  0.00     0.185 C 
HETATM    5  C   UNL     1      22.346  48.649  49.212  1.00  0.00     0.035 A 
HETATM    6  C   UNL     1      21.118  48.064  48.969  1.00  0.00    -0.020 A 
HETATM    7  C   UNL     1      21.018  46.642  48.532  1.00  0.00     0.061 C 
HETATM    8  C   UNL     1      22.374  46.198  47.948  1.00  0.00     0.132 C 
HETATM    9  N   UNL     1      22.129  49.943  49.597  1.00  0.00    -0.357 N 
HETATM   10  H   UNL     1      22.841  50.617  49.842  1.00  0.00     0.166 HD
HETATM   11  C   UNL     1      20.775  50.204  49.614  1.00  0.00     0.043 A 
HETATM   12  C   UNL     1      20.115  49.035  49.226  1.00  0.00    -0.001 A 
HETATM   13  C   UNL     1      20.091  51.380  49.949  1.00  0.00     0.030 A 
HETATM   14  C   UNL     1      18.695  51.358  49.885  1.00  0.00     0.002 A 
HETATM   15  C   UNL     1      18.011  50.206  49.503  1.00  0.00     0.001 A 
HETATM   16  C   UNL     1      18.707  49.039  49.171  1.00  0.00     0.014 A 
HETATM   17  O   UNL     1      23.833  44.375  49.391  1.00  0.00    -0.247 OA
HETATM   18  H   UNL     1      25.718  46.840  49.871  1.00  0.00     0.170 HD
ENDROOT
BRANCH   1  19
HETATM   19  C   UNL     1      26.147  45.202  51.019  1.00  0.00     0.060 A 
HETATM   20  C   UNL     1      26.779  44.011  50.641  1.00  0.00     0.068 A 
HETATM   21  C   UNL     1      27.578  43.306  51.548  1.00  0.00     0.070 A 
HETATM   22  C   UNL     1      27.725  43.781  52.853  1.00  0.00     0.038 A 
HETATM   23  C   UNL     1      27.094  44.957  53.252  1.00  0.00     0.029 A 
HETATM   24  C   UNL     1      26.312  45.663  52.339  1.00  0.00     0.061 A 
HETATM   25 CL   UNL     1      25.541  47.119  52.877  1.00  0.00    -0.082 Cl
BRANCH  21  26
HETATM   26  O   UNL     1      28.252  42.144  51.289  1.00  0.00    -0.356 OA
HETATM   27  C   UNL     1      28.740  41.421  52.415  1.00  0.00     0.210 C 
ENDBRANCH  21  26
ENDBRANCH   1  19
TORSDOF 2
ENDMDL
MODEL 9
REMARK VINA RESULT:      -7.9      2.491      8.811
REMARK  2 active torsions:
REMARK  status: ('A' for Active; 'I' for Inactive)
REMARK    1  A    between atoms: O_2  and  C_3 
REMARK    2  A    between atoms: C_5  and  N_6 
REMARK       I    between atoms: N_6  and  C_7 
REMARK       I    between atoms: C_7  and  N_8 
ROOT
HETATM    1  N   UNL     1      25.042  46.658  50.403  1.00  0.00    -0.307 N 
HETATM    2  C   UNL     1      23.921  46.120  49.816  1.00  0.00     0.323 C 
HETATM    3  N   UNL     1      23.288  46.956  48.901  1.00  0.00    -0.328 N 
HETATM    4  C   UNL     1      23.536  48.401  48.754  1.00  0.00     0.185 C 
HETATM    5  C   UNL     1      22.226  49.105  48.649  1.00  0.00     0.035 A 
HETATM    6  C   UNL     1      20.978  48.524  48.527  1.00  0.00    -0.020 A 
HETATM    7  C   UNL     1      20.822  47.042  48.492  1.00  0.00     0.061 C 
HETATM    8  C   UNL     1      22.171  46.402  48.106  1.00  0.00     0.132 C 
HETATM    9  N   UNL     1      22.060  50.462  48.657  1.00  0.00    -0.357 N 
HETATM   10  H   UNL     1      22.797  51.149  48.736  1.00  0.00     0.166 HD
HETATM   11  C   UNL     1      20.721  50.771  48.548  1.00  0.00     0.043 A 
HETATM   12  C   UNL     1      20.016  49.566  48.468  1.00  0.00    -0.001 A 
HETATM   13  C   UNL     1      20.086  52.019  48.520  1.00  0.00     0.030 A 
HETATM   14  C   UNL     1      18.692  52.034  48.410  1.00  0.00     0.002 A 
HETATM   15  C   UNL     1      17.964  50.849  48.331  1.00  0.00     0.001 A 
HETATM   16  C   UNL     1      18.613  49.609  48.359  1.00  0.00     0.014 A 
HETATM   17  O   UNL     1      23.500  44.990  50.049  1.00  0.00    -0.247 OA
HETATM   18  H   UNL     1      25.488  47.418  49.910  1.00  0.00     0.170 HD
ENDROOT
BRANCH   1  19
HETATM   19  C   UNL     1      25.805  46.143  51.479  1.00  0.00     0.060 A 
HETATM   20  C   UNL     1      25.800  46.704  52.762  1.00  0.00     0.068 A 
HETATM   21  C   UNL     1      26.581  46.156  53.785  1.00  0.00     0.070 A 
HETATM   22  C   UNL     1      27.395  45.053  53.518  1.00  0.00     0.038 A 
HETATM   23  C   UNL     1      27.424  44.488  52.245  1.00  0.00     0.029 A 
HETATM   24  C   UNL     1      26.632  45.030  51.233  1.00  0.00     0.061 A 
HETATM   25 CL   UNL     1      26.700  44.300  49.662  1.00  0.00    -0.082 Cl
BRANCH  21  26
HETATM   26  O   UNL     1      26.647  46.608  55.075  1.00  0.00    -0.356 OA
HETATM   27  C   UNL     1      26.475  48.007  55.273  1.00  0.00     0.210 C 
ENDBRANCH  21  26
ENDBRANCH   1  19
TORSDOF 2
ENDMDL
MODEL 10
REMARK VINA RESULT:      -7.7      2.509      8.464
REMARK  2 active torsions:
REMARK  status: ('A' for Active; 'I' for Inactive)
REMARK    1  A    between atoms: O_2  and  C_3 
REMARK    2  A    between atoms: C_5  and  N_6 
REMARK       I    between atoms: N_6  and  C_7 
REMARK       I    between atoms: C_7  and  N_8 
ROOT
HETATM    1  N   UNL     1      26.646  45.322  51.455  1.00  0.00    -0.307 N 
HETATM    2  C   UNL     1      25.480  44.876  50.879  1.00  0.00     0.323 C 
HETATM    3  N   UNL     1      25.017  45.660  49.827  1.00  0.00    -0.328 N 
HETATM    4  C   UNL     1      25.487  47.020  49.506  1.00  0.00     0.185 C 
HETATM    5  C   UNL     1      24.304  47.885  49.234  1.00  0.00     0.035 A 
HETATM    6  C   UNL     1      22.988  47.480  49.115  1.00  0.00    -0.020 A 
HETATM    7  C   UNL     1      22.610  46.045  49.266  1.00  0.00     0.061 C 
HETATM    8  C   UNL     1      23.860  45.170  49.047  1.00  0.00     0.132 C 
HETATM    9  N   UNL     1      24.346  49.240  49.054  1.00  0.00    -0.357 N 
HETATM   10  H   UNL     1      25.175  49.817  49.086  1.00  0.00     0.166 HD
HETATM   11  C   UNL     1      23.074  49.721  48.827  1.00  0.00     0.043 A 
HETATM   12  C   UNL     1      22.199  48.632  48.864  1.00  0.00    -0.001 A 
HETATM   13  C   UNL     1      22.637  51.032  48.598  1.00  0.00     0.030 A 
HETATM   14  C   UNL     1      21.267  51.234  48.405  1.00  0.00     0.002 A 
HETATM   15  C   UNL     1      20.372  50.167  48.440  1.00  0.00     0.001 A 
HETATM   16  C   UNL     1      20.823  48.863  48.668  1.00  0.00     0.014 A 
HETATM   17  O   UNL     1      24.884  43.862  51.234  1.00  0.00    -0.247 OA
HETATM   18  H   UNL     1      27.221  45.933  50.895  1.00  0.00     0.170 HD
ENDROOT
BRANCH   1  19
HETATM   19  C   UNL     1      27.281  44.855  52.633  1.00  0.00     0.060 A 
HETATM   20  C   UNL     1      27.322  45.589  53.825  1.00  0.00     0.068 A 
HETATM   21  C   UNL     1      27.971  45.079  54.956  1.00  0.00     0.070 A 
HETATM   22  C   UNL     1      28.605  43.837  54.887  1.00  0.00     0.038 A 
HETATM   23  C   UNL     1      28.586  43.098  53.707  1.00  0.00     0.029 A 
HETATM   24  C   UNL     1      27.926  43.604  52.588  1.00  0.00     0.061 A 
HETATM   25 CL   UNL     1      27.929  42.655  51.138  1.00  0.00    -0.082 Cl
BRANCH  21  26
HETATM   26  O   UNL     1      28.065  45.697  56.173  1.00  0.00    -0.356 OA
HETATM   27  C   UNL     1      29.375  45.887  56.697  1.00  0.00     0.210 C 
ENDBRANCH  21  26
ENDBRANCH   1  19
TORSDOF 2
ENDMDL
