MODEL 1
REMARK VINA RESULT:      -8.3      0.000      0.000
REMARK  7 active torsions:
REMARK  status: ('A' for Active; 'I' for Inactive)
REMARK    1  A    between atoms: C_2  and  N_3 
REMARK    2  A    between atoms: C_2  and  C_17 
REMARK       I    between atoms: N_3  and  C_4 
REMARK    3  A    between atoms: C_4  and  C_5 
REMARK    4  A    between atoms: C_6  and  N_7 
REMARK    5  A    between atoms: C_17  and  O_18 
REMARK    6  A    between atoms: C_17  and  C_19 
REMARK    7  A    between atoms: C_22  and  O_23 
ROOT
HETATM    1  N   UNL     1      27.057  44.019  52.119  1.00  0.00    -0.350 N 
HETATM    2  C   UNL     1      26.281  44.547  53.112  1.00  0.00     0.255 C 
HETATM    3  O   UNL     1      25.130  44.136  53.268  1.00  0.00    -0.268 OA
HETATM    4  H   UNL     1      28.024  44.322  52.021  1.00  0.00     0.163 HD
ENDROOT
BRANCH   1   5
HETATM    5  C   UNL     1      26.605  42.921  51.260  1.00  0.00     0.114 C 
HETATM    6  C   UNL     1      27.690  41.847  51.160  1.00  0.00     0.035 C 
BRANCH   5   7
HETATM    7  C   UNL     1      26.084  43.408  49.876  1.00  0.00     0.173 C 
BRANCH   7   8
HETATM    8  O   UNL     1      27.038  43.070  48.857  1.00  0.00    -0.389 OA
HETATM    9  H   UNL     1      27.652  43.824  48.808  1.00  0.00     0.210 HD
ENDBRANCH   7   8
BRANCH   7  10
HETATM   10  C   UNL     1      25.762  44.892  49.800  1.00  0.00    -0.028 A 
HETATM   11  C   UNL     1      24.432  45.328  49.861  1.00  0.00     0.012 A 
HETATM   12  C   UNL     1      24.128  46.691  49.794  1.00  0.00     0.037 A 
HETATM   13  C   UNL     1      25.140  47.644  49.661  1.00  0.00     0.068 A 
HETATM   14  C   UNL     1      26.467  47.222  49.609  1.00  0.00     0.037 A 
HETATM   15  C   UNL     1      26.773  45.859  49.680  1.00  0.00     0.012 A 
BRANCH  13  16
HETATM   16  O   UNL     1      24.706  48.940  49.601  1.00  0.00    -0.356 OA
HETATM   17  C   UNL     1      25.151  49.715  48.495  1.00  0.00     0.210 C 
ENDBRANCH  13  16
ENDBRANCH   7  10
ENDBRANCH   5   7
ENDBRANCH   1   5
BRANCH   2  18
HETATM   18  C   UNL     1      26.784  45.654  54.002  1.00  0.00     0.079 A 
HETATM   19  C   UNL     1      27.928  45.793  54.804  1.00  0.00     0.165 A 
HETATM   20  N   UNL     1      28.163  46.935  55.546  1.00  0.00    -0.241 NA
HETATM   21  C   UNL     1      27.278  47.947  55.520  1.00  0.00     0.119 A 
HETATM   22  C   UNL     1      26.130  47.907  54.773  1.00  0.00     0.020 A 
HETATM   23  C   UNL     1      25.893  46.762  54.019  1.00  0.00     0.022 A 
BRANCH  19  24
HETATM   24  N   UNL     1      28.965  44.812  54.978  1.00  0.00    -0.226 N 
HETATM   25  N   UNL     1      29.092  43.670  54.259  1.00  0.00    -0.179 NA
HETATM   26  C   UNL     1      30.176  43.063  54.748  1.00  0.00     0.141 A 
HETATM   27  C   UNL     1      30.782  43.788  55.776  1.00  0.00     0.040 A 
HETATM   28  C   UNL     1      29.995  44.904  55.907  1.00  0.00     0.122 A 
ENDBRANCH  19  24
ENDBRANCH   2  18
TORSDOF 7
ENDMDL
MODEL 2
REMARK VINA RESULT:      -8.2      1.607      3.316
REMARK  7 active torsions:
REMARK  status: ('A' for Active; 'I' for Inactive)
REMARK    1  A    between atoms: C_2  and  N_3 
REMARK    2  A    between atoms: C_2  and  C_17 
REMARK       I    between atoms: N_3  and  C_4 
REMARK    3  A    between atoms: C_4  and  C_5 
REMARK    4  A    between atoms: C_6  and  N_7 
REMARK    5  A    between atoms: C_17  and  O_18 
REMARK    6  A    between atoms: C_17  and  C_19 
REMARK    7  A    between atoms: C_22  and  O_23 
ROOT
HETATM    1  N   UNL     1      27.302  43.929  52.464  1.00  0.00    -0.350 N 
HETATM    2  C   UNL     1      27.904  43.179  53.434  1.00  0.00     0.255 C 
HETATM    3  O   UNL     1      27.649  41.976  53.519  1.00  0.00    -0.268 OA
HETATM    4  H   UNL     1      27.550  44.912  52.362  1.00  0.00     0.163 HD
ENDROOT
BRANCH   1   5
HETATM    5  C   UNL     1      26.408  43.352  51.457  1.00  0.00     0.114 C 
HETATM    6  C   UNL     1      26.948  43.622  50.051  1.00  0.00     0.035 C 
BRANCH   5   7
HETATM    7  C   UNL     1      24.924  43.784  51.645  1.00  0.00     0.173 C 
BRANCH   7   8
HETATM    8  O   UNL     1      24.059  42.672  51.365  1.00  0.00    -0.389 OA
HETATM    9  H   UNL     1      23.156  43.035  51.357  1.00  0.00     0.210 HD
ENDBRANCH   7   8
BRANCH   7  10
HETATM   10  C   UNL     1      24.496  44.983  50.814  1.00  0.00    -0.028 A 
HETATM   11  C   UNL     1      24.981  46.261  51.121  1.00  0.00     0.012 A 
HETATM   12  C   UNL     1      24.594  47.368  50.360  1.00  0.00     0.037 A 
HETATM   13  C   UNL     1      23.717  47.225  49.283  1.00  0.00     0.068 A 
HETATM   14  C   UNL     1      23.236  45.957  48.963  1.00  0.00     0.037 A 
HETATM   15  C   UNL     1      23.625  44.847  49.721  1.00  0.00     0.012 A 
BRANCH  13  16
HETATM   16  O   UNL     1      23.415  48.387  48.627  1.00  0.00    -0.356 OA
HETATM   17  C   UNL     1      24.396  49.416  48.661  1.00  0.00     0.210 C 
ENDBRANCH  13  16
ENDBRANCH   7  10
ENDBRANCH   5   7
ENDBRANCH   1   5
BRANCH   2  18
HETATM   18  C   UNL     1      28.845  43.794  54.438  1.00  0.00     0.079 A 
HETATM   19  C   UNL     1      28.863  45.033  55.098  1.00  0.00     0.165 A 
HETATM   20  N   UNL     1      29.864  45.367  55.992  1.00  0.00    -0.241 NA
HETATM   21  C   UNL     1      30.859  44.499  56.241  1.00  0.00     0.119 A 
HETATM   22  C   UNL     1      30.934  43.268  55.644  1.00  0.00     0.020 A 
HETATM   23  C   UNL     1      29.925  42.925  54.749  1.00  0.00     0.022 A 
BRANCH  19  24
HETATM   24  N   UNL     1      27.905  46.092  54.939  1.00  0.00    -0.226 N 
HETATM   25  N   UNL     1      26.593  45.925  54.640  1.00  0.00    -0.179 NA
HETATM   26  C   UNL     1      26.081  47.156  54.586  1.00  0.00     0.141 A 
HETATM   27  C   UNL     1      27.029  48.145  54.857  1.00  0.00     0.040 A 
HETATM   28  C   UNL     1      28.187  47.446  55.082  1.00  0.00     0.122 A 
ENDBRANCH  19  24
ENDBRANCH   2  18
TORSDOF 7
ENDMDL
MODEL 3
REMARK VINA RESULT:      -8.0      3.143      5.958
REMARK  7 active torsions:
REMARK  status: ('A' for Active; 'I' for Inactive)
REMARK    1  A    between atoms: C_2  and  N_3 
REMARK    2  A    between atoms: C_2  and  C_17 
REMARK       I    between atoms: N_3  and  C_4 
REMARK    3  A    between atoms: C_4  and  C_5 
REMARK    4  A    between atoms: C_6  and  N_7 
REMARK    5  A    between atoms: C_17  and  O_18 
REMARK    6  A    between atoms: C_17  and  C_19 
REMARK    7  A    between atoms: C_22  and  O_23 
ROOT
HETATM    1  N   UNL     1      28.131  43.323  52.914  1.00  0.00    -0.350 N 
HETATM    2  C   UNL     1      29.401  43.420  53.410  1.00  0.00     0.255 C 
HETATM    3  O   UNL     1      30.342  42.948  52.770  1.00  0.00    -0.268 OA
HETATM    4  H   UNL     1      27.360  43.757  53.418  1.00  0.00     0.163 HD
ENDROOT
BRANCH   1   5
HETATM    5  C   UNL     1      27.836  42.738  51.604  1.00  0.00     0.114 C 
HETATM    6  C   UNL     1      27.170  43.776  50.698  1.00  0.00     0.035 C 
BRANCH   5   7
HETATM    7  C   UNL     1      27.044  41.401  51.701  1.00  0.00     0.173 C 
BRANCH   7   8
HETATM    8  O   UNL     1      27.331  40.761  52.955  1.00  0.00    -0.389 OA
HETATM    9  H   UNL     1      26.473  40.659  53.402  1.00  0.00     0.210 HD
ENDBRANCH   7   8
BRANCH   7  10
HETATM   10  C   UNL     1      27.293  40.425  50.563  1.00  0.00    -0.028 A 
HETATM   11  C   UNL     1      28.533  39.785  50.442  1.00  0.00     0.012 A 
HETATM   12  C   UNL     1      28.769  38.884  49.399  1.00  0.00     0.037 A 
HETATM   13  C   UNL     1      27.777  38.606  48.457  1.00  0.00     0.068 A 
HETATM   14  C   UNL     1      26.536  39.229  48.573  1.00  0.00     0.037 A 
HETATM   15  C   UNL     1      26.297  40.128  49.618  1.00  0.00     0.012 A 
BRANCH  13  16
HETATM   16  O   UNL     1      28.139  37.712  47.486  1.00  0.00    -0.356 OA
HETATM   17  C   UNL     1      27.492  37.837  46.226  1.00  0.00     0.210 C 
ENDBRANCH  13  16
ENDBRANCH   7  10
ENDBRANCH   5   7
ENDBRANCH   1   5
BRANCH   2  18
HETATM   18  C   UNL     1      29.679  44.057  54.747  1.00  0.00     0.079 A 
HETATM   19  C   UNL     1      29.071  45.108  55.452  1.00  0.00     0.165 A 
HETATM   20  N   UNL     1      29.529  45.515  56.691  1.00  0.00    -0.241 NA
HETATM   21  C   UNL     1      30.590  44.906  57.248  1.00  0.00     0.119 A 
HETATM   22  C   UNL     1      31.254  43.874  56.640  1.00  0.00     0.020 A 
HETATM   23  C   UNL     1      30.793  43.457  55.395  1.00  0.00     0.022 A 
BRANCH  19  24
HETATM   24  N   UNL     1      27.950  45.890  55.006  1.00  0.00    -0.226 N 
HETATM   25  N   UNL     1      26.765  45.390  54.578  1.00  0.00    -0.179 NA
HETATM   26  C   UNL     1      26.024  46.454  54.263  1.00  0.00     0.141 A 
HETATM   27  C   UNL     1      26.692  47.660  54.484  1.00  0.00     0.040 A 
HETATM   28  C   UNL     1      27.920  47.280  54.961  1.00  0.00     0.122 A 
ENDBRANCH  19  24
ENDBRANCH   2  18
TORSDOF 7
ENDMDL
MODEL 4
REMARK VINA RESULT:      -7.9      2.822      6.487
REMARK  7 active torsions:
REMARK  status: ('A' for Active; 'I' for Inactive)
REMARK    1  A    between atoms: C_2  and  N_3 
REMARK    2  A    between atoms: C_2  and  C_17 
REMARK       I    between atoms: N_3  and  C_4 
REMARK    3  A    between atoms: C_4  and  C_5 
REMARK    4  A    between atoms: C_6  and  N_7 
REMARK    5  A    between atoms: C_17  and  O_18 
REMARK    6  A    between atoms: C_17  and  C_19 
REMARK    7  A    between atoms: C_22  and  O_23 
ROOT
HETATM    1  N   UNL     1      26.755  41.893  51.312  1.00  0.00    -0.350 N 
HETATM    2  C   UNL     1      26.489  42.680  50.226  1.00  0.00     0.255 C 
HETATM    3  O   UNL     1      27.410  43.018  49.480  1.00  0.00    -0.268 OA
HETATM    4  H   UNL     1      25.987  41.573  51.900  1.00  0.00     0.163 HD
ENDROOT
BRANCH   1   5
HETATM    5  C   UNL     1      28.091  41.365  51.599  1.00  0.00     0.114 C 
HETATM    6  C   UNL     1      28.345  40.096  50.783  1.00  0.00     0.035 C 
BRANCH   5   7
HETATM    7  C   UNL     1      28.358  41.186  53.123  1.00  0.00     0.173 C 
BRANCH   7   8
HETATM    8  O   UNL     1      27.244  40.515  53.731  1.00  0.00    -0.389 OA
HETATM    9  H   UNL     1      26.575  41.204  53.892  1.00  0.00     0.210 HD
ENDBRANCH   7   8
BRANCH   7  10
HETATM   10  C   UNL     1      28.650  42.473  53.877  1.00  0.00    -0.028 A 
HETATM   11  C   UNL     1      29.933  42.718  54.382  1.00  0.00     0.012 A 
HETATM   12  C   UNL     1      30.211  43.901  55.074  1.00  0.00     0.037 A 
HETATM   13  C   UNL     1      29.216  44.859  55.280  1.00  0.00     0.068 A 
HETATM   14  C   UNL     1      27.938  44.630  54.774  1.00  0.00     0.037 A 
HETATM   15  C   UNL     1      27.660  43.449  54.077  1.00  0.00     0.012 A 
BRANCH  13  16
HETATM   16  O   UNL     1      29.618  45.965  55.977  1.00  0.00    -0.356 OA
HETATM   17  C   UNL     1      29.077  46.133  57.281  1.00  0.00     0.210 C 
ENDBRANCH  13  16
ENDBRANCH   7  10
ENDBRANCH   5   7
ENDBRANCH   1   5
BRANCH   2  18
HETATM   18  C   UNL     1      25.099  43.183  49.937  1.00  0.00     0.079 A 
HETATM   19  C   UNL     1      24.479  44.432  50.103  1.00  0.00     0.165 A 
HETATM   20  N   UNL     1      23.158  44.642  49.755  1.00  0.00    -0.241 NA
HETATM   21  C   UNL     1      22.427  43.631  49.253  1.00  0.00     0.119 A 
HETATM   22  C   UNL     1      22.938  42.375  49.058  1.00  0.00     0.020 A 
HETATM   23  C   UNL     1      24.270  42.162  49.400  1.00  0.00     0.022 A 
BRANCH  19  24
HETATM   24  N   UNL     1      25.089  45.615  50.646  1.00  0.00    -0.226 N 
HETATM   25  N   UNL     1      25.646  46.615  49.919  1.00  0.00    -0.179 NA
HETATM   26  C   UNL     1      26.088  47.500  50.814  1.00  0.00     0.141 A 
HETATM   27  C   UNL     1      25.826  47.113  52.130  1.00  0.00     0.040 A 
HETATM   28  C   UNL     1      25.185  45.907  52.002  1.00  0.00     0.122 A 
ENDBRANCH  19  24
ENDBRANCH   2  18
TORSDOF 7
ENDMDL
MODEL 5
REMARK VINA RESULT:      -7.8      1.414      2.034
REMARK  7 active torsions:
REMARK  status: ('A' for Active; 'I' for Inactive)
REMARK    1  A    between atoms: C_2  and  N_3 
REMARK    2  A    between atoms: C_2  and  C_17 
REMARK       I    between atoms: N_3  and  C_4 
REMARK    3  A    between atoms: C_4  and  C_5 
REMARK    4  A    between atoms: C_6  and  N_7 
REMARK    5  A    between atoms: C_17  and  O_18 
REMARK    6  A    between atoms: C_17  and  C_19 
REMARK    7  A    between atoms: C_22  and  O_23 
ROOT
HETATM    1  N   UNL     1      27.816  43.158  52.949  1.00  0.00    -0.350 N 
HETATM    2  C   UNL     1      27.244  43.694  54.068  1.00  0.00     0.255 C 
HETATM    3  O   UNL     1      26.476  43.009  54.747  1.00  0.00    -0.268 OA
HETATM    4  H   UNL     1      28.489  43.706  52.416  1.00  0.00     0.163 HD
ENDROOT
BRANCH   1   5
HETATM    5  C   UNL     1      27.613  41.764  52.547  1.00  0.00     0.114 C 
HETATM    6  C   UNL     1      28.944  41.010  52.557  1.00  0.00     0.035 C 
BRANCH   5   7
HETATM    7  C   UNL     1      26.834  41.627  51.205  1.00  0.00     0.173 C 
BRANCH   7   8
HETATM    8  O   UNL     1      27.732  41.207  50.167  1.00  0.00    -0.389 OA
HETATM    9  H   UNL     1      27.776  40.236  50.232  1.00  0.00     0.210 HD
ENDBRANCH   7   8
BRANCH   7  10
HETATM   10  C   UNL     1      26.096  42.880  50.763  1.00  0.00    -0.028 A 
HETATM   11  C   UNL     1      24.796  43.130  51.220  1.00  0.00     0.012 A 
HETATM   12  C   UNL     1      24.111  44.282  50.819  1.00  0.00     0.037 A 
HETATM   13  C   UNL     1      24.707  45.204  49.956  1.00  0.00     0.068 A 
HETATM   14  C   UNL     1      26.004  44.970  49.503  1.00  0.00     0.037 A 
HETATM   15  C   UNL     1      26.691  43.820  49.906  1.00  0.00     0.012 A 
BRANCH  13  16
HETATM   16  O   UNL     1      23.927  46.282  49.639  1.00  0.00    -0.356 OA
HETATM   17  C   UNL     1      24.443  47.566  49.968  1.00  0.00     0.210 C 
ENDBRANCH  13  16
ENDBRANCH   7  10
ENDBRANCH   5   7
ENDBRANCH   1   5
BRANCH   2  18
HETATM   18  C   UNL     1      27.496  45.122  54.477  1.00  0.00     0.079 A 
HETATM   19  C   UNL     1      28.484  45.731  55.268  1.00  0.00     0.165 A 
HETATM   20  N   UNL     1      28.493  47.094  55.501  1.00  0.00    -0.241 NA
HETATM   21  C   UNL     1      27.533  47.872  54.971  1.00  0.00     0.119 A 
HETATM   22  C   UNL     1      26.524  47.373  54.189  1.00  0.00     0.020 A 
HETATM   23  C   UNL     1      26.515  46.003  53.947  1.00  0.00     0.022 A 
BRANCH  19  24
HETATM   24  N   UNL     1      29.567  45.062  55.935  1.00  0.00    -0.226 N 
HETATM   25  N   UNL     1      30.027  45.359  57.176  1.00  0.00    -0.179 NA
HETATM   26  C   UNL     1      31.028  44.504  57.396  1.00  0.00     0.141 A 
HETATM   27  C   UNL     1      31.238  43.632  56.326  1.00  0.00     0.040 A 
HETATM   28  C   UNL     1      30.293  44.003  55.403  1.00  0.00     0.122 A 
ENDBRANCH  19  24
ENDBRANCH   2  18
TORSDOF 7
ENDMDL
MODEL 6
REMARK VINA RESULT:      -7.8      0.919      3.103
REMARK  7 active torsions:
REMARK  status: ('A' for Active; 'I' for Inactive)
REMARK    1  A    between atoms: C_2  and  N_3 
REMARK    2  A    between atoms: C_2  and  C_17 
REMARK       I    between atoms: N_3  and  C_4 
REMARK    3  A    between atoms: C_4  and  C_5 
REMARK    4  A    between atoms: C_6  and  N_7 
REMARK    5  A    between atoms: C_17  and  O_18 
REMARK    6  A    between atoms: C_17  and  C_19 
REMARK    7  A    between atoms: C_22  and  O_23 
ROOT
HETATM    1  N   UNL     1      26.960  43.153  51.814  1.00  0.00    -0.350 N 
HETATM    2  C   UNL     1      26.803  43.613  53.091  1.00  0.00     0.255 C 
HETATM    3  O   UNL     1      25.668  43.794  53.537  1.00  0.00    -0.268 OA
HETATM    4  H   UNL     1      27.895  42.956  51.462  1.00  0.00     0.163 HD
ENDROOT
BRANCH   1   5
HETATM    5  C   UNL     1      25.827  42.791  50.958  1.00  0.00     0.114 C 
HETATM    6  C   UNL     1      25.725  41.269  50.831  1.00  0.00     0.035 C 
BRANCH   5   7
HETATM    7  C   UNL     1      25.844  43.527  49.586  1.00  0.00     0.173 C 
BRANCH   7   8
HETATM    8  O   UNL     1      27.167  43.483  49.031  1.00  0.00    -0.389 OA
HETATM    9  H   UNL     1      27.570  44.345  49.237  1.00  0.00     0.210 HD
ENDBRANCH   7   8
BRANCH   7  10
HETATM   10  C   UNL     1      25.357  44.967  49.627  1.00  0.00    -0.028 A 
HETATM   11  C   UNL     1      26.224  45.993  50.023  1.00  0.00     0.012 A 
HETATM   12  C   UNL     1      25.785  47.320  50.060  1.00  0.00     0.037 A 
HETATM   13  C   UNL     1      24.475  47.649  49.708  1.00  0.00     0.068 A 
HETATM   14  C   UNL     1      23.606  46.638  49.303  1.00  0.00     0.037 A 
HETATM   15  C   UNL     1      24.045  45.310  49.261  1.00  0.00     0.012 A 
BRANCH  13  16
HETATM   16  O   UNL     1      24.173  48.981  49.794  1.00  0.00    -0.356 OA
HETATM   17  C   UNL     1      24.418  49.771  48.637  1.00  0.00     0.210 C 
ENDBRANCH  13  16
ENDBRANCH   7  10
ENDBRANCH   5   7
ENDBRANCH   1   5
BRANCH   2  18
HETATM   18  C   UNL     1      27.987  43.948  53.961  1.00  0.00     0.079 A 
HETATM   19  C   UNL     1      28.324  45.077  54.725  1.00  0.00     0.165 A 
HETATM   20  N   UNL     1      29.500  45.141  55.449  1.00  0.00    -0.241 NA
HETATM   21  C   UNL     1      30.360  44.108  55.426  1.00  0.00     0.119 A 
HETATM   22  C   UNL     1      30.125  42.965  54.708  1.00  0.00     0.020 A 
HETATM   23  C   UNL     1      28.940  42.894  53.983  1.00  0.00     0.022 A 
BRANCH  19  24
HETATM   24  N   UNL     1      27.547  46.280  54.848  1.00  0.00    -0.226 N 
HETATM   25  N   UNL     1      27.508  47.079  55.943  1.00  0.00    -0.179 NA
HETATM   26  C   UNL     1      26.669  48.069  55.629  1.00  0.00     0.141 A 
HETATM   27  C   UNL     1      26.154  47.949  54.336  1.00  0.00     0.040 A 
HETATM   28  C   UNL     1      26.729  46.801  53.853  1.00  0.00     0.122 A 
ENDBRANCH  19  24
ENDBRANCH   2  18
TORSDOF 7
ENDMDL
MODEL 7
REMARK VINA RESULT:      -7.8      2.835      4.535
REMARK  7 active torsions:
REMARK  status: ('A' for Active; 'I' for Inactive)
REMARK    1  A    between atoms: C_2  and  N_3 
REMARK    2  A    between atoms: C_2  and  C_17 
REMARK       I    between atoms: N_3  and  C_4 
REMARK    3  A    between atoms: C_4  and  C_5 
REMARK    4  A    between atoms: C_6  and  N_7 
REMARK    5  A    between atoms: C_17  and  O_18 
REMARK    6  A    between atoms: C_17  and  C_19 
REMARK    7  A    between atoms: C_22  and  O_23 
ROOT
HETATM    1  N   UNL     1      28.002  43.761  52.534  1.00  0.00    -0.350 N 
HETATM    2  C   UNL     1      28.903  43.182  53.382  1.00  0.00     0.255 C 
HETATM    3  O   UNL     1      29.287  42.030  53.168  1.00  0.00    -0.268 OA
HETATM    4  H   UNL     1      27.723  44.730  52.682  1.00  0.00     0.163 HD
ENDROOT
BRANCH   1   5
HETATM    5  C   UNL     1      27.515  43.097  51.323  1.00  0.00     0.114 C 
HETATM    6  C   UNL     1      27.141  44.136  50.263  1.00  0.00     0.035 C 
BRANCH   5   7
HETATM    7  C   UNL     1      26.381  42.069  51.609  1.00  0.00     0.173 C 
BRANCH   7   8
HETATM    8  O   UNL     1      26.938  40.748  51.695  1.00  0.00    -0.389 OA
HETATM    9  H   UNL     1      27.324  40.567  50.819  1.00  0.00     0.210 HD
ENDBRANCH   7   8
BRANCH   7  10
HETATM   10  C   UNL     1      25.241  42.076  50.604  1.00  0.00    -0.028 A 
HETATM   11  C   UNL     1      25.290  41.245  49.478  1.00  0.00     0.012 A 
HETATM   12  C   UNL     1      24.243  41.244  48.550  1.00  0.00     0.037 A 
HETATM   13  C   UNL     1      23.133  42.072  48.724  1.00  0.00     0.068 A 
HETATM   14  C   UNL     1      23.069  42.896  49.846  1.00  0.00     0.037 A 
HETATM   15  C   UNL     1      24.113  42.896  50.777  1.00  0.00     0.012 A 
BRANCH  13  16
HETATM   16  O   UNL     1      22.185  41.979  47.741  1.00  0.00    -0.356 OA
HETATM   17  C   UNL     1      22.651  41.993  46.398  1.00  0.00     0.210 C 
ENDBRANCH  13  16
ENDBRANCH   7  10
ENDBRANCH   5   7
ENDBRANCH   1   5
BRANCH   2  18
HETATM   18  C   UNL     1      29.412  43.901  54.604  1.00  0.00     0.079 A 
HETATM   19  C   UNL     1      28.985  45.054  55.284  1.00  0.00     0.165 A 
HETATM   20  N   UNL     1      29.642  45.522  56.407  1.00  0.00    -0.241 NA
HETATM   21  C   UNL     1      30.726  44.876  56.869  1.00  0.00     0.119 A 
HETATM   22  C   UNL     1      31.224  43.746  56.275  1.00  0.00     0.020 A 
HETATM   23  C   UNL     1      30.562  43.267  55.149  1.00  0.00     0.022 A 
BRANCH  19  24
HETATM   24  N   UNL     1      27.870  45.886  54.923  1.00  0.00    -0.226 N 
HETATM   25  N   UNL     1      26.654  45.438  54.526  1.00  0.00    -0.179 NA
HETATM   26  C   UNL     1      25.931  46.535  54.292  1.00  0.00     0.141 A 
HETATM   27  C   UNL     1      26.643  47.712  54.536  1.00  0.00     0.040 A 
HETATM   28  C   UNL     1      27.879  47.276  54.941  1.00  0.00     0.122 A 
ENDBRANCH  19  24
ENDBRANCH   2  18
TORSDOF 7
ENDMDL
MODEL 8
REMARK VINA RESULT:      -7.6      2.772      7.303
REMARK  7 active torsions:
REMARK  status: ('A' for Active; 'I' for Inactive)
REMARK    1  A    between atoms: C_2  and  N_3 
REMARK    2  A    between atoms: C_2  and  C_17 
REMARK       I    between atoms: N_3  and  C_4 
REMARK    3  A    between atoms: C_4  and  C_5 
REMARK    4  A    between atoms: C_6  and  N_7 
REMARK    5  A    between atoms: C_17  and  O_18 
REMARK    6  A    between atoms: C_17  and  C_19 
REMARK    7  A    between atoms: C_22  and  O_23 
ROOT
HETATM    1  N   UNL     1      26.081  43.617  52.053  1.00  0.00    -0.350 N 
HETATM    2  C   UNL     1      25.913  42.752  51.008  1.00  0.00     0.255 C 
HETATM    3  O   UNL     1      26.576  41.714  50.966  1.00  0.00    -0.268 OA
HETATM    4  H   UNL     1      25.498  44.450  52.114  1.00  0.00     0.163 HD
ENDROOT
BRANCH   1   5
HETATM    5  C   UNL     1      26.973  43.334  53.180  1.00  0.00     0.114 C 
HETATM    6  C   UNL     1      26.306  43.737  54.497  1.00  0.00     0.035 C 
BRANCH   5   7
HETATM    7  C   UNL     1      28.396  43.939  52.994  1.00  0.00     0.173 C 
BRANCH   7   8
HETATM    8  O   UNL     1      29.143  43.138  52.066  1.00  0.00    -0.389 OA
HETATM    9  H   UNL     1      28.508  42.866  51.380  1.00  0.00     0.210 HD
ENDBRANCH   7   8
BRANCH   7  10
HETATM   10  C   UNL     1      29.192  44.107  54.278  1.00  0.00    -0.028 A 
HETATM   11  C   UNL     1      29.035  45.259  55.059  1.00  0.00     0.012 A 
HETATM   12  C   UNL     1      29.762  45.420  56.242  1.00  0.00     0.037 A 
HETATM   13  C   UNL     1      30.660  44.440  56.668  1.00  0.00     0.068 A 
HETATM   14  C   UNL     1      30.818  43.285  55.904  1.00  0.00     0.037 A 
HETATM   15  C   UNL     1      30.089  43.121  54.722  1.00  0.00     0.012 A 
BRANCH  13  16
HETATM   16  O   UNL     1      31.311  44.724  57.838  1.00  0.00    -0.356 OA
HETATM   17  C   UNL     1      30.875  45.874  58.552  1.00  0.00     0.210 C 
ENDBRANCH  13  16
ENDBRANCH   7  10
ENDBRANCH   5   7
ENDBRANCH   1   5
BRANCH   2  18
HETATM   18  C   UNL     1      24.964  43.054  49.878  1.00  0.00     0.079 A 
HETATM   19  C   UNL     1      24.638  44.236  49.192  1.00  0.00     0.165 A 
HETATM   20  N   UNL     1      23.709  44.251  48.169  1.00  0.00    -0.241 NA
HETATM   21  C   UNL     1      23.084  43.115  47.813  1.00  0.00     0.119 A 
HETATM   22  C   UNL     1      23.329  41.913  48.422  1.00  0.00     0.020 A 
HETATM   23  C   UNL     1      24.268  41.892  49.449  1.00  0.00     0.022 A 
BRANCH  19  24
HETATM   24  N   UNL     1      25.179  45.542  49.450  1.00  0.00    -0.226 N 
HETATM   25  N   UNL     1      26.498  45.856  49.461  1.00  0.00    -0.179 NA
HETATM   26  C   UNL     1      26.550  47.160  49.741  1.00  0.00     0.141 A 
HETATM   27  C   UNL     1      25.284  47.726  49.907  1.00  0.00     0.040 A 
HETATM   28  C   UNL     1      24.421  46.677  49.714  1.00  0.00     0.122 A 
ENDBRANCH  19  24
ENDBRANCH   2  18
TORSDOF 7
ENDMDL
MODEL 9
REMARK VINA RESULT:      -7.5      1.459      2.144
REMARK  7 active torsions:
REMARK  status: ('A' for Active; 'I' for Inactive)
REMARK    1  A    between atoms: C_2  and  N_3 
REMARK    2  A    between atoms: C_2  and  C_17 
REMARK       I    between atoms: N_3  and  C_4 
REMARK    3  A    between atoms: C_4  and  C_5 
REMARK    4  A    between atoms: C_6  and  N_7 
REMARK    5  A    between atoms: C_17  and  O_18 
REMARK    6  A    between atoms: C_17  and  C_19 
REMARK    7  A    between atoms: C_22  and  O_23 
ROOT
HETATM    1  N   UNL     1      26.161  44.197  51.879  1.00  0.00    -0.350 N 
HETATM    2  C   UNL     1      26.049  45.194  52.807  1.00  0.00     0.255 C 
HETATM    3  O   UNL     1      25.057  45.925  52.799  1.00  0.00    -0.268 OA
HETATM    4  H   UNL     1      26.956  43.561  51.917  1.00  0.00     0.163 HD
ENDROOT
BRANCH   1   5
HETATM    5  C   UNL     1      25.109  43.904  50.902  1.00  0.00     0.114 C 
HETATM    6  C   UNL     1      24.889  42.393  50.799  1.00  0.00     0.035 C 
BRANCH   5   7
HETATM    7  C   UNL     1      25.352  44.591  49.526  1.00  0.00     0.173 C 
BRANCH   7   8
HETATM    8  O   UNL     1      26.746  44.517  49.190  1.00  0.00    -0.389 OA
HETATM    9  H   UNL     1      26.942  43.570  49.079  1.00  0.00     0.210 HD
ENDBRANCH   7   8
BRANCH   7  10
HETATM   10  C   UNL     1      24.883  46.034  49.439  1.00  0.00    -0.028 A 
HETATM   11  C   UNL     1      25.803  47.082  49.567  1.00  0.00     0.012 A 
HETATM   12  C   UNL     1      25.380  48.413  49.485  1.00  0.00     0.037 A 
HETATM   13  C   UNL     1      24.034  48.724  49.279  1.00  0.00     0.068 A 
HETATM   14  C   UNL     1      23.112  47.689  49.142  1.00  0.00     0.037 A 
HETATM   15  C   UNL     1      23.534  46.357  49.219  1.00  0.00     0.012 A 
BRANCH  13  16
HETATM   16  O   UNL     1      23.754  50.062  49.226  1.00  0.00    -0.356 OA
HETATM   17  C   UNL     1      23.728  50.661  47.937  1.00  0.00     0.210 C 
ENDBRANCH  13  16
ENDBRANCH   7  10
ENDBRANCH   5   7
ENDBRANCH   1   5
BRANCH   2  18
HETATM   18  C   UNL     1      27.133  45.452  53.822  1.00  0.00     0.079 A 
HETATM   19  C   UNL     1      28.236  44.700  54.257  1.00  0.00     0.165 A 
HETATM   20  N   UNL     1      29.100  45.169  55.228  1.00  0.00    -0.241 NA
HETATM   21  C   UNL     1      28.890  46.373  55.789  1.00  0.00     0.119 A 
HETATM   22  C   UNL     1      27.842  47.181  55.436  1.00  0.00     0.020 A 
HETATM   23  C   UNL     1      26.973  46.715  54.454  1.00  0.00     0.022 A 
BRANCH  19  24
HETATM   24  N   UNL     1      28.602  43.388  53.796  1.00  0.00    -0.226 N 
HETATM   25  N   UNL     1      27.865  42.263  53.965  1.00  0.00    -0.179 NA
HETATM   26  C   UNL     1      28.571  41.287  53.391  1.00  0.00     0.141 A 
HETATM   27  C   UNL     1      29.766  41.745  52.832  1.00  0.00     0.040 A 
HETATM   28  C   UNL     1      29.767  43.090  53.098  1.00  0.00     0.122 A 
ENDBRANCH  19  24
ENDBRANCH   2  18
TORSDOF 7
ENDMDL
MODEL 10
REMARK VINA RESULT:      -7.5      3.421      7.902
REMARK  7 active torsions:
REMARK  status: ('A' for Active; 'I' for Inactive)
REMARK    1  A    between atoms: C_2  and  N_3 
REMARK    2  A    between atoms: C_2  and  C_17 
REMARK       I    between atoms: N_3  and  C_4 
REMARK    3  A    between atoms: C_4  and  C_5 
REMARK    4  A    between atoms: C_6  and  N_7 
REMARK    5  A    between atoms: C_17  and  O_18 
REMARK    6  A    between atoms: C_17  and  C_19 
REMARK    7  A    between atoms: C_22  and  O_23 
ROOT
HETATM    1  N   UNL     1      24.854  45.249  50.394  1.00  0.00    -0.350 N 
HETATM    2  C   UNL     1      24.416  46.391  49.785  1.00  0.00     0.255 C 
HETATM    3  O   UNL     1      25.070  47.429  49.896  1.00  0.00    -0.268 OA
HETATM    4  H   UNL     1      24.340  44.379  50.261  1.00  0.00     0.163 HD
ENDROOT
BRANCH   1   5
HETATM    5  C   UNL     1      26.120  45.179  51.128  1.00  0.00     0.114 C 
HETATM    6  C   UNL     1      27.258  44.785  50.184  1.00  0.00     0.035 C 
BRANCH   5   7
HETATM    7  C   UNL     1      26.034  44.288  52.402  1.00  0.00     0.173 C 
BRANCH   7   8
HETATM    8  O   UNL     1      24.773  44.501  53.055  1.00  0.00    -0.389 OA
HETATM    9  H   UNL     1      24.363  45.258  52.599  1.00  0.00     0.210 HD
ENDBRANCH   7   8
BRANCH   7  10
HETATM   10  C   UNL     1      27.164  44.487  53.399  1.00  0.00    -0.028 A 
HETATM   11  C   UNL     1      28.125  43.485  53.583  1.00  0.00     0.012 A 
HETATM   12  C   UNL     1      29.169  43.662  54.497  1.00  0.00     0.037 A 
HETATM   13  C   UNL     1      29.273  44.835  55.246  1.00  0.00     0.068 A 
HETATM   14  C   UNL     1      28.328  45.843  55.064  1.00  0.00     0.037 A 
HETATM   15  C   UNL     1      27.285  45.669  54.148  1.00  0.00     0.012 A 
BRANCH  13  16
HETATM   16  O   UNL     1      30.336  44.877  56.107  1.00  0.00    -0.356 OA
HETATM   17  C   UNL     1      31.067  43.670  56.282  1.00  0.00     0.210 C 
ENDBRANCH  13  16
ENDBRANCH   7  10
ENDBRANCH   5   7
ENDBRANCH   1   5
BRANCH   2  18
HETATM   18  C   UNL     1      23.124  46.426  49.008  1.00  0.00     0.079 A 
HETATM   19  C   UNL     1      22.398  47.466  48.407  1.00  0.00     0.165 A 
HETATM   20  N   UNL     1      21.209  47.233  47.740  1.00  0.00    -0.241 NA
HETATM   21  C   UNL     1      20.715  45.985  47.665  1.00  0.00     0.119 A 
HETATM   22  C   UNL     1      21.346  44.904  48.222  1.00  0.00     0.020 A 
HETATM   23  C   UNL     1      22.546  45.133  48.888  1.00  0.00     0.022 A 
BRANCH  19  24
HETATM   24  N   UNL     1      22.753  48.859  48.408  1.00  0.00    -0.226 N 
HETATM   25  N   UNL     1      23.565  49.462  47.505  1.00  0.00    -0.179 NA
HETATM   26  C   UNL     1      23.622  50.741  47.879  1.00  0.00     0.141 A 
HETATM   27  C   UNL     1      22.852  51.006  49.013  1.00  0.00     0.040 A 
HETATM   28  C   UNL     1      22.302  49.792  49.335  1.00  0.00     0.122 A 
ENDBRANCH  19  24
ENDBRANCH   2  18
TORSDOF 7
ENDMDL
