MODEL 1
REMARK VINA RESULT:      -8.9      0.000      0.000
REMARK  4 active torsions:
REMARK  status: ('A' for Active; 'I' for Inactive)
REMARK    1  A    between atoms: C_3  and  N_4 
REMARK       I    between atoms: N_4  and  C_5 
REMARK    2  A    between atoms: C_5  and  C_6 
REMARK    3  A    between atoms: C_7  and  C_8 
REMARK    4  A    between atoms: C_16  and  C_17 
ROOT
HETATM    1  C   UNL     1      30.000  42.738  53.230  1.00  0.00     0.003 A 
HETATM    2  C   UNL     1      28.855  43.389  52.766  1.00  0.00     0.029 A 
HETATM    3  C   UNL     1      28.259  44.390  53.530  1.00  0.00     0.035 A 
HETATM    4  C   UNL     1      28.824  44.725  54.773  1.00  0.00     0.042 A 
HETATM    5  C   UNL     1      29.974  44.078  55.256  1.00  0.00    -0.021 A 
HETATM    6  C   UNL     1      30.557  43.081  54.463  1.00  0.00     0.012 A 
ENDROOT
BRANCH   3   7
HETATM    7  N   UNL     1      27.124  45.120  53.121  1.00  0.00    -0.327 N 
HETATM    8  C   UNL     1      26.107  44.698  52.291  1.00  0.00     0.227 C 
HETATM    9  O   UNL     1      25.956  43.584  51.811  1.00  0.00    -0.273 OA
HETATM   10  H   UNL     1      27.063  46.069  53.464  1.00  0.00     0.169 HD
BRANCH   8  11
HETATM   11  C   UNL     1      25.127  45.780  51.966  1.00  0.00     0.089 A 
HETATM   12  C   UNL     1      25.422  46.758  50.838  1.00  0.00     0.057 A 
HETATM   13  C   UNL     1      25.472  47.203  52.284  1.00  0.00     0.027 A 
BRANCH  12  14
HETATM   14  C   UNL     1      24.253  47.236  50.000  1.00  0.00     0.057 A 
HETATM   15  O   UNL     1      23.749  48.503  50.028  1.00  0.00    -0.327 OA
HETATM   16  C   UNL     1      22.726  48.544  49.137  1.00  0.00     0.142 A 
HETATM   17  C   UNL     1      22.560  47.317  48.538  1.00  0.00     0.027 A 
HETATM   18  C   UNL     1      23.548  46.469  49.098  1.00  0.00     0.035 A 
ENDBRANCH  12  14
ENDBRANCH   8  11
ENDBRANCH   3   7
BRANCH   5  19
HETATM   19  C   UNL     1      30.540  44.452  56.547  1.00  0.00     0.010 A 
HETATM   20  C   UNL     1      31.521  43.816  57.349  1.00  0.00     0.152 A 
HETATM   21  N   UNL     1      31.785  44.480  58.478  1.00  0.00    -0.187 NA
HETATM   22  N   UNL     1      30.973  45.544  58.410  1.00  0.00    -0.289 N 
HETATM   23  H   UNL     1      30.991  46.214  59.174  1.00  0.00     0.188 HD
HETATM   24  C   UNL     1      30.211  45.576  57.277  1.00  0.00     0.123 A 
ENDBRANCH   5  19
TORSDOF 4
ENDMDL
MODEL 2
REMARK VINA RESULT:      -8.8      3.053      8.431
REMARK  4 active torsions:
REMARK  status: ('A' for Active; 'I' for Inactive)
REMARK    1  A    between atoms: C_3  and  N_4 
REMARK       I    between atoms: N_4  and  C_5 
REMARK    2  A    between atoms: C_5  and  C_6 
REMARK    3  A    between atoms: C_7  and  C_8 
REMARK    4  A    between atoms: C_16  and  C_17 
ROOT
HETATM    1  C   UNL     1      23.881  45.633  50.194  1.00  0.00     0.003 A 
HETATM    2  C   UNL     1      24.571  45.050  51.258  1.00  0.00     0.029 A 
HETATM    3  C   UNL     1      25.791  45.580  51.677  1.00  0.00     0.035 A 
HETATM    4  C   UNL     1      26.312  46.700  51.008  1.00  0.00     0.042 A 
HETATM    5  C   UNL     1      25.631  47.296  49.933  1.00  0.00    -0.021 A 
HETATM    6  C   UNL     1      24.404  46.748  49.538  1.00  0.00     0.012 A 
ENDROOT
BRANCH   3   7
HETATM    7  N   UNL     1      26.535  45.075  52.764  1.00  0.00    -0.327 N 
HETATM    8  C   UNL     1      26.529  45.523  54.068  1.00  0.00     0.227 C 
HETATM    9  O   UNL     1      25.820  46.396  54.548  1.00  0.00    -0.273 OA
HETATM   10  H   UNL     1      27.157  44.307  52.553  1.00  0.00     0.169 HD
BRANCH   8  11
HETATM   11  C   UNL     1      27.540  44.837  54.929  1.00  0.00     0.089 A 
HETATM   12  C   UNL     1      28.962  45.373  55.005  1.00  0.00     0.057 A 
HETATM   13  C   UNL     1      28.659  44.077  54.284  1.00  0.00     0.027 A 
BRANCH  12  14
HETATM   14  C   UNL     1      29.677  45.280  56.340  1.00  0.00     0.057 A 
HETATM   15  O   UNL     1      30.681  44.401  56.618  1.00  0.00    -0.327 OA
HETATM   16  C   UNL     1      31.069  44.633  57.899  1.00  0.00     0.142 A 
HETATM   17  C   UNL     1      30.323  45.647  58.450  1.00  0.00     0.027 A 
HETATM   18  C   UNL     1      29.419  46.066  57.442  1.00  0.00     0.035 A 
ENDBRANCH  12  14
ENDBRANCH   8  11
ENDBRANCH   3   7
BRANCH   5  19
HETATM   19  C   UNL     1      26.196  48.462  49.261  1.00  0.00     0.010 A 
HETATM   20  C   UNL     1      25.586  49.450  48.448  1.00  0.00     0.152 A 
HETATM   21  N   UNL     1      26.446  50.377  48.017  1.00  0.00    -0.187 NA
HETATM   22  N   UNL     1      27.614  49.989  48.549  1.00  0.00    -0.289 N 
HETATM   23  H   UNL     1      28.439  50.549  48.358  1.00  0.00     0.188 HD
HETATM   24  C   UNL     1      27.518  48.854  49.301  1.00  0.00     0.123 A 
ENDBRANCH   5  19
TORSDOF 4
ENDMDL
MODEL 3
REMARK VINA RESULT:      -8.3      3.020      8.421
REMARK  4 active torsions:
REMARK  status: ('A' for Active; 'I' for Inactive)
REMARK    1  A    between atoms: C_3  and  N_4 
REMARK       I    between atoms: N_4  and  C_5 
REMARK    2  A    between atoms: C_5  and  C_6 
REMARK    3  A    between atoms: C_7  and  C_8 
REMARK    4  A    between atoms: C_16  and  C_17 
ROOT
HETATM    1  C   UNL     1      23.646  43.540  50.322  1.00  0.00     0.003 A 
HETATM    2  C   UNL     1      24.680  43.083  51.140  1.00  0.00     0.029 A 
HETATM    3  C   UNL     1      25.705  43.947  51.524  1.00  0.00     0.035 A 
HETATM    4  C   UNL     1      25.681  45.275  51.068  1.00  0.00     0.042 A 
HETATM    5  C   UNL     1      24.649  45.750  50.241  1.00  0.00    -0.021 A 
HETATM    6  C   UNL     1      23.628  44.863  49.877  1.00  0.00     0.012 A 
ENDROOT
BRANCH   3   7
HETATM    7  N   UNL     1      26.766  43.577  52.376  1.00  0.00    -0.327 N 
HETATM    8  C   UNL     1      26.817  43.679  53.750  1.00  0.00     0.227 C 
HETATM    9  O   UNL     1      25.921  44.040  54.500  1.00  0.00    -0.273 OA
HETATM   10  H   UNL     1      27.591  43.212  51.919  1.00  0.00     0.169 HD
BRANCH   8  11
HETATM   11  C   UNL     1      28.151  43.313  54.317  1.00  0.00     0.089 A 
HETATM   12  C   UNL     1      29.205  44.389  54.535  1.00  0.00     0.057 A 
HETATM   13  C   UNL     1      29.362  43.360  53.436  1.00  0.00     0.027 A 
BRANCH  12  14
HETATM   14  C   UNL     1      30.103  44.256  55.750  1.00  0.00     0.057 A 
HETATM   15  O   UNL     1      30.085  45.100  56.820  1.00  0.00    -0.327 OA
HETATM   16  C   UNL     1      31.015  44.647  57.699  1.00  0.00     0.142 A 
HETATM   17  C   UNL     1      31.636  43.524  57.206  1.00  0.00     0.027 A 
HETATM   18  C   UNL     1      31.048  43.270  55.943  1.00  0.00     0.035 A 
ENDBRANCH  12  14
ENDBRANCH   8  11
ENDBRANCH   3   7
BRANCH   5  19
HETATM   19  C   UNL     1      24.649  47.137  49.789  1.00  0.00     0.010 A 
HETATM   20  C   UNL     1      25.716  48.053  49.608  1.00  0.00     0.152 A 
HETATM   21  N   UNL     1      25.312  49.247  49.164  1.00  0.00    -0.187 NA
HETATM   22  N   UNL     1      23.983  49.106  49.060  1.00  0.00    -0.289 N 
HETATM   23  H   UNL     1      23.438  49.899  48.735  1.00  0.00     0.188 HD
HETATM   24  C   UNL     1      23.538  47.866  49.418  1.00  0.00     0.123 A 
ENDBRANCH   5  19
TORSDOF 4
ENDMDL
MODEL 4
REMARK VINA RESULT:      -8.1      4.962      7.884
REMARK  4 active torsions:
REMARK  status: ('A' for Active; 'I' for Inactive)
REMARK    1  A    between atoms: C_3  and  N_4 
REMARK       I    between atoms: N_4  and  C_5 
REMARK    2  A    between atoms: C_5  and  C_6 
REMARK    3  A    between atoms: C_7  and  C_8 
REMARK    4  A    between atoms: C_16  and  C_17 
ROOT
HETATM    1  C   UNL     1      26.762  48.955  48.918  1.00  0.00     0.003 A 
HETATM    2  C   UNL     1      25.649  49.668  48.468  1.00  0.00     0.029 A 
HETATM    3  C   UNL     1      24.367  49.290  48.864  1.00  0.00     0.035 A 
HETATM    4  C   UNL     1      24.216  48.180  49.712  1.00  0.00     0.042 A 
HETATM    5  C   UNL     1      25.325  47.450  50.172  1.00  0.00    -0.021 A 
HETATM    6  C   UNL     1      26.602  47.857  49.765  1.00  0.00     0.012 A 
ENDROOT
BRANCH   3   7
HETATM    7  N   UNL     1      23.194  49.975  48.485  1.00  0.00    -0.327 N 
HETATM    8  C   UNL     1      22.407  50.793  49.268  1.00  0.00     0.227 C 
HETATM    9  O   UNL     1      22.618  51.142  50.421  1.00  0.00    -0.273 OA
HETATM   10  H   UNL     1      22.888  49.831  47.532  1.00  0.00     0.169 HD
BRANCH   8  11
HETATM   11  C   UNL     1      21.164  51.251  48.575  1.00  0.00     0.089 A 
HETATM   12  C   UNL     1      19.853  50.512  48.800  1.00  0.00     0.057 A 
HETATM   13  C   UNL     1      20.583  50.411  47.478  1.00  0.00     0.027 A 
BRANCH  12  14
HETATM   14  C   UNL     1      18.580  51.336  48.834  1.00  0.00     0.057 A 
HETATM   15  O   UNL     1      17.650  51.362  47.837  1.00  0.00    -0.327 OA
HETATM   16  C   UNL     1      16.659  52.197  48.241  1.00  0.00     0.142 A 
HETATM   17  C   UNL     1      16.941  52.714  49.483  1.00  0.00     0.027 A 
HETATM   18  C   UNL     1      18.186  52.158  49.868  1.00  0.00     0.035 A 
ENDBRANCH  12  14
ENDBRANCH   8  11
ENDBRANCH   3   7
BRANCH   5  19
HETATM   19  C   UNL     1      25.137  46.306  51.057  1.00  0.00     0.010 A 
HETATM   20  C   UNL     1      24.408  45.103  50.875  1.00  0.00     0.152 A 
HETATM   21  N   UNL     1      24.482  44.282  51.926  1.00  0.00    -0.187 NA
HETATM   22  N   UNL     1      25.256  44.953  52.791  1.00  0.00    -0.289 N 
HETATM   23  H   UNL     1      25.462  44.524  53.688  1.00  0.00     0.188 HD
HETATM   24  C   UNL     1      25.675  46.164  52.319  1.00  0.00     0.123 A 
ENDBRANCH   5  19
TORSDOF 4
ENDMDL
MODEL 5
REMARK VINA RESULT:      -8.0      3.770      5.700
REMARK  4 active torsions:
REMARK  status: ('A' for Active; 'I' for Inactive)
REMARK    1  A    between atoms: C_3  and  N_4 
REMARK       I    between atoms: N_4  and  C_5 
REMARK    2  A    between atoms: C_5  and  C_6 
REMARK    3  A    between atoms: C_7  and  C_8 
REMARK    4  A    between atoms: C_16  and  C_17 
ROOT
HETATM    1  C   UNL     1      27.592  46.561  54.454  1.00  0.00     0.003 A 
HETATM    2  C   UNL     1      27.284  45.439  53.684  1.00  0.00     0.029 A 
HETATM    3  C   UNL     1      27.889  44.213  53.956  1.00  0.00     0.035 A 
HETATM    4  C   UNL     1      28.815  44.131  55.009  1.00  0.00     0.042 A 
HETATM    5  C   UNL     1      29.140  45.252  55.792  1.00  0.00    -0.021 A 
HETATM    6  C   UNL     1      28.511  46.469  55.501  1.00  0.00     0.012 A 
ENDROOT
BRANCH   3   7
HETATM    7  N   UNL     1      27.608  43.024  53.251  1.00  0.00    -0.327 N 
HETATM    8  C   UNL     1      28.501  42.207  52.590  1.00  0.00     0.227 C 
HETATM    9  O   UNL     1      29.718  42.317  52.553  1.00  0.00    -0.273 OA
HETATM   10  H   UNL     1      26.634  42.754  53.213  1.00  0.00     0.169 HD
BRANCH   8  11
HETATM   11  C   UNL     1      27.837  41.098  51.840  1.00  0.00     0.089 A 
HETATM   12  C   UNL     1      27.898  41.066  50.320  1.00  0.00     0.057 A 
HETATM   13  C   UNL     1      26.605  41.388  51.038  1.00  0.00     0.027 A 
BRANCH  12  14
HETATM   14  C   UNL     1      28.006  39.709  49.650  1.00  0.00     0.057 A 
HETATM   15  O   UNL     1      27.022  38.765  49.654  1.00  0.00    -0.327 OA
HETATM   16  C   UNL     1      27.487  37.705  48.945  1.00  0.00     0.142 A 
HETATM   17  C   UNL     1      28.759  37.951  48.489  1.00  0.00     0.027 A 
HETATM   18  C   UNL     1      29.098  39.249  48.946  1.00  0.00     0.035 A 
ENDBRANCH  12  14
ENDBRANCH   8  11
ENDBRANCH   3   7
BRANCH   5  19
HETATM   19  C   UNL     1      30.103  45.133  56.882  1.00  0.00     0.010 A 
HETATM   20  C   UNL     1      31.128  44.182  57.113  1.00  0.00     0.152 A 
HETATM   21  N   UNL     1      31.816  44.417  58.235  1.00  0.00    -0.187 NA
HETATM   22  N   UNL     1      31.235  45.518  58.731  1.00  0.00    -0.289 N 
HETATM   23  H   UNL     1      31.591  45.900  59.602  1.00  0.00     0.188 HD
HETATM   24  C   UNL     1      30.210  45.986  57.960  1.00  0.00     0.123 A 
ENDBRANCH   5  19
TORSDOF 4
ENDMDL
MODEL 6
REMARK VINA RESULT:      -8.0      3.467      9.212
REMARK  4 active torsions:
REMARK  status: ('A' for Active; 'I' for Inactive)
REMARK    1  A    between atoms: C_3  and  N_4 
REMARK       I    between atoms: N_4  and  C_5 
REMARK    2  A    between atoms: C_5  and  C_6 
REMARK    3  A    between atoms: C_7  and  C_8 
REMARK    4  A    between atoms: C_16  and  C_17 
ROOT
HETATM    1  C   UNL     1      26.557  49.824  48.273  1.00  0.00     0.003 A 
HETATM    2  C   UNL     1      27.010  48.815  49.123  1.00  0.00     0.029 A 
HETATM    3  C   UNL     1      26.099  47.981  49.770  1.00  0.00     0.035 A 
HETATM    4  C   UNL     1      24.725  48.180  49.559  1.00  0.00     0.042 A 
HETATM    5  C   UNL     1      24.251  49.195  48.709  1.00  0.00    -0.021 A 
HETATM    6  C   UNL     1      25.189  50.012  48.065  1.00  0.00     0.012 A 
ENDROOT
BRANCH   3   7
HETATM    7  N   UNL     1      26.473  46.916  50.616  1.00  0.00    -0.327 N 
HETATM    8  C   UNL     1      26.359  45.564  50.367  1.00  0.00     0.227 C 
HETATM    9  O   UNL     1      25.983  45.030  49.333  1.00  0.00    -0.273 OA
HETATM   10  H   UNL     1      26.849  47.179  51.516  1.00  0.00     0.169 HD
BRANCH   8  11
HETATM   11  C   UNL     1      26.734  44.718  51.540  1.00  0.00     0.089 A 
HETATM   12  C   UNL     1      28.035  43.928  51.522  1.00  0.00     0.057 A 
HETATM   13  C   UNL     1      26.698  43.225  51.411  1.00  0.00     0.027 A 
BRANCH  12  14
HETATM   14  C   UNL     1      28.791  43.789  52.830  1.00  0.00     0.057 A 
HETATM   15  O   UNL     1      28.542  44.529  53.948  1.00  0.00    -0.327 OA
HETATM   16  C   UNL     1      29.408  44.107  54.905  1.00  0.00     0.142 A 
HETATM   17  C   UNL     1      30.215  43.107  54.415  1.00  0.00     0.027 A 
HETATM   18  C   UNL     1      29.818  42.902  53.071  1.00  0.00     0.035 A 
ENDBRANCH  12  14
ENDBRANCH   8  11
ENDBRANCH   3   7
BRANCH   5  19
HETATM   19  C   UNL     1      22.818  49.373  48.505  1.00  0.00     0.010 A 
HETATM   20  C   UNL     1      21.712  48.642  49.007  1.00  0.00     0.152 A 
HETATM   21  N   UNL     1      20.536  49.125  48.596  1.00  0.00    -0.187 NA
HETATM   22  N   UNL     1      20.879  50.167  47.827  1.00  0.00    -0.289 N 
HETATM   23  H   UNL     1      20.139  50.708  47.390  1.00  0.00     0.188 HD
HETATM   24  C   UNL     1      22.228  50.360  47.742  1.00  0.00     0.123 A 
ENDBRANCH   5  19
TORSDOF 4
ENDMDL
MODEL 7
REMARK VINA RESULT:      -7.9      2.941      8.762
REMARK  4 active torsions:
REMARK  status: ('A' for Active; 'I' for Inactive)
REMARK    1  A    between atoms: C_3  and  N_4 
REMARK       I    between atoms: N_4  and  C_5 
REMARK    2  A    between atoms: C_5  and  C_6 
REMARK    3  A    between atoms: C_7  and  C_8 
REMARK    4  A    between atoms: C_16  and  C_17 
ROOT
HETATM    1  C   UNL     1      25.086  47.235  50.761  1.00  0.00     0.003 A 
HETATM    2  C   UNL     1      25.932  46.849  51.802  1.00  0.00     0.029 A 
HETATM    3  C   UNL     1      26.046  45.504  52.151  1.00  0.00     0.035 A 
HETATM    4  C   UNL     1      25.290  44.552  51.446  1.00  0.00     0.042 A 
HETATM    5  C   UNL     1      24.431  44.925  50.398  1.00  0.00    -0.021 A 
HETATM    6  C   UNL     1      24.343  46.282  50.063  1.00  0.00     0.012 A 
ENDROOT
BRANCH   3   7
HETATM    7  N   UNL     1      26.902  45.025  53.164  1.00  0.00    -0.327 N 
HETATM    8  C   UNL     1      27.947  44.134  53.030  1.00  0.00     0.227 C 
HETATM    9  O   UNL     1      28.378  43.647  51.995  1.00  0.00    -0.273 OA
HETATM   10  H   UNL     1      26.713  45.362  54.098  1.00  0.00     0.169 HD
BRANCH   8  11
HETATM   11  C   UNL     1      28.560  43.748  54.338  1.00  0.00     0.089 A 
HETATM   12  C   UNL     1      30.038  44.006  54.589  1.00  0.00     0.057 A 
HETATM   13  C   UNL     1      29.519  42.598  54.388  1.00  0.00     0.027 A 
BRANCH  12  14
HETATM   14  C   UNL     1      30.453  44.405  55.992  1.00  0.00     0.057 A 
HETATM   15  O   UNL     1      30.034  45.535  56.630  1.00  0.00    -0.327 OA
HETATM   16  C   UNL     1      30.607  45.532  57.861  1.00  0.00     0.142 A 
HETATM   17  C   UNL     1      31.393  44.416  58.023  1.00  0.00     0.027 A 
HETATM   18  C   UNL     1      31.296  43.686  56.812  1.00  0.00     0.035 A 
ENDBRANCH  12  14
ENDBRANCH   8  11
ENDBRANCH   3   7
BRANCH   5  19
HETATM   19  C   UNL     1      23.664  43.912  49.682  1.00  0.00     0.010 A 
HETATM   20  C   UNL     1      22.598  44.039  48.755  1.00  0.00     0.152 A 
HETATM   21  N   UNL     1      22.155  42.863  48.303  1.00  0.00    -0.187 NA
HETATM   22  N   UNL     1      22.931  41.973  48.938  1.00  0.00    -0.289 N 
HETATM   23  H   UNL     1      22.781  40.986  48.754  1.00  0.00     0.188 HD
HETATM   24  C   UNL     1      23.848  42.547  49.770  1.00  0.00     0.123 A 
ENDBRANCH   5  19
TORSDOF 4
ENDMDL
MODEL 8
REMARK VINA RESULT:      -7.8      4.698      9.909
REMARK  4 active torsions:
REMARK  status: ('A' for Active; 'I' for Inactive)
REMARK    1  A    between atoms: C_3  and  N_4 
REMARK       I    between atoms: N_4  and  C_5 
REMARK    2  A    between atoms: C_5  and  C_6 
REMARK    3  A    between atoms: C_7  and  C_8 
REMARK    4  A    between atoms: C_16  and  C_17 
ROOT
HETATM    1  C   UNL     1      23.893  50.758  48.033  1.00  0.00     0.003 A 
HETATM    2  C   UNL     1      24.394  49.503  48.384  1.00  0.00     0.029 A 
HETATM    3  C   UNL     1      23.597  48.601  49.086  1.00  0.00     0.035 A 
HETATM    4  C   UNL     1      22.291  48.978  49.439  1.00  0.00     0.042 A 
HETATM    5  C   UNL     1      21.772  50.239  49.097  1.00  0.00    -0.021 A 
HETATM    6  C   UNL     1      22.592  51.123  48.384  1.00  0.00     0.012 A 
ENDROOT
BRANCH   3   7
HETATM    7  N   UNL     1      24.012  47.302  49.448  1.00  0.00    -0.327 N 
HETATM    8  C   UNL     1      24.727  46.929  50.568  1.00  0.00     0.227 C 
HETATM    9  O   UNL     1      25.072  47.643  51.499  1.00  0.00    -0.273 OA
HETATM   10  H   UNL     1      23.772  46.565  48.800  1.00  0.00     0.169 HD
BRANCH   8  11
HETATM   11  C   UNL     1      25.106  45.484  50.567  1.00  0.00     0.089 A 
HETATM   12  C   UNL     1      26.451  45.052  49.999  1.00  0.00     0.057 A 
HETATM   13  C   UNL     1      25.163  44.740  49.267  1.00  0.00     0.027 A 
BRANCH  12  14
HETATM   14  C   UNL     1      27.163  43.899  50.681  1.00  0.00     0.057 A 
HETATM   15  O   UNL     1      27.966  44.027  51.776  1.00  0.00    -0.327 OA
HETATM   16  C   UNL     1      28.404  42.782  52.095  1.00  0.00     0.142 A 
HETATM   17  C   UNL     1      27.897  41.854  51.216  1.00  0.00     0.027 A 
HETATM   18  C   UNL     1      27.095  42.577  50.299  1.00  0.00     0.035 A 
ENDBRANCH  12  14
ENDBRANCH   8  11
ENDBRANCH   3   7
BRANCH   5  19
HETATM   19  C   UNL     1      20.410  50.600  49.473  1.00  0.00     0.010 A 
HETATM   20  C   UNL     1      19.447  49.904  50.247  1.00  0.00     0.152 A 
HETATM   21  N   UNL     1      18.299  50.575  50.379  1.00  0.00    -0.187 NA
HETATM   22  N   UNL     1      18.516  51.703  49.689  1.00  0.00    -0.289 N 
HETATM   23  H   UNL     1      17.770  52.390  49.641  1.00  0.00     0.188 HD
HETATM   24  C   UNL     1      19.761  51.768  49.131  1.00  0.00     0.123 A 
ENDBRANCH   5  19
TORSDOF 4
ENDMDL
MODEL 9
REMARK VINA RESULT:      -7.8      3.276      5.759
REMARK  4 active torsions:
REMARK  status: ('A' for Active; 'I' for Inactive)
REMARK    1  A    between atoms: C_3  and  N_4 
REMARK       I    between atoms: N_4  and  C_5 
REMARK    2  A    between atoms: C_5  and  C_6 
REMARK    3  A    between atoms: C_7  and  C_8 
REMARK    4  A    between atoms: C_16  and  C_17 
ROOT
HETATM    1  C   UNL     1      25.063  44.540  49.542  1.00  0.00     0.003 A 
HETATM    2  C   UNL     1      24.283  45.664  49.265  1.00  0.00     0.029 A 
HETATM    3  C   UNL     1      24.274  46.746  50.145  1.00  0.00     0.035 A 
HETATM    4  C   UNL     1      25.053  46.680  51.312  1.00  0.00     0.042 A 
HETATM    5  C   UNL     1      25.841  45.554  51.607  1.00  0.00    -0.021 A 
HETATM    6  C   UNL     1      25.838  44.485  50.702  1.00  0.00     0.012 A 
ENDROOT
BRANCH   3   7
HETATM    7  N   UNL     1      23.544  47.932  49.924  1.00  0.00    -0.327 N 
HETATM    8  C   UNL     1      23.944  49.047  49.216  1.00  0.00     0.227 C 
HETATM    9  O   UNL     1      24.979  49.189  48.581  1.00  0.00    -0.273 OA
HETATM   10  H   UNL     1      22.629  47.973  50.351  1.00  0.00     0.169 HD
BRANCH   8  11
HETATM   11  C   UNL     1      22.965  50.174  49.295  1.00  0.00     0.089 A 
HETATM   12  C   UNL     1      21.773  50.211  48.351  1.00  0.00     0.057 A 
HETATM   13  C   UNL     1      22.920  51.186  48.191  1.00  0.00     0.027 A 
BRANCH  12  14
HETATM   14  C   UNL     1      20.464  50.755  48.893  1.00  0.00     0.057 A 
HETATM   15  O   UNL     1      19.675  50.109  49.798  1.00  0.00    -0.327 OA
HETATM   16  C   UNL     1      18.610  50.914  50.043  1.00  0.00     0.142 A 
HETATM   17  C   UNL     1      18.701  52.069  49.304  1.00  0.00     0.027 A 
HETATM   18  C   UNL     1      19.901  51.966  48.557  1.00  0.00     0.035 A 
ENDBRANCH  12  14
ENDBRANCH   8  11
ENDBRANCH   3   7
BRANCH   5  19
HETATM   19  C   UNL     1      26.644  45.518  52.825  1.00  0.00     0.010 A 
HETATM   20  C   UNL     1      26.725  46.428  53.909  1.00  0.00     0.152 A 
HETATM   21  N   UNL     1      27.581  46.037  54.857  1.00  0.00    -0.187 NA
HETATM   22  N   UNL     1      28.057  44.875  54.387  1.00  0.00    -0.289 N 
HETATM   23  H   UNL     1      28.742  44.374  54.945  1.00  0.00     0.188 HD
HETATM   24  C   UNL     1      27.528  44.520  53.180  1.00  0.00     0.123 A 
ENDBRANCH   5  19
TORSDOF 4
ENDMDL
MODEL 10
REMARK VINA RESULT:      -7.5      4.465      6.613
REMARK  4 active torsions:
REMARK  status: ('A' for Active; 'I' for Inactive)
REMARK    1  A    between atoms: C_3  and  N_4 
REMARK       I    between atoms: N_4  and  C_5 
REMARK    2  A    between atoms: C_5  and  C_6 
REMARK    3  A    between atoms: C_7  and  C_8 
REMARK    4  A    between atoms: C_16  and  C_17 
ROOT
HETATM    1  C   UNL     1      30.095  43.362  54.657  1.00  0.00     0.003 A 
HETATM    2  C   UNL     1      29.669  42.533  53.618  1.00  0.00     0.029 A 
HETATM    3  C   UNL     1      28.529  42.858  52.883  1.00  0.00     0.035 A 
HETATM    4  C   UNL     1      27.817  44.024  53.213  1.00  0.00     0.042 A 
HETATM    5  C   UNL     1      28.230  44.867  54.259  1.00  0.00    -0.021 A 
HETATM    6  C   UNL     1      29.383  44.521  54.974  1.00  0.00     0.012 A 
ENDROOT
BRANCH   3   7
HETATM    7  N   UNL     1      28.050  42.097  51.797  1.00  0.00    -0.327 N 
HETATM    8  C   UNL     1      28.365  40.791  51.481  1.00  0.00     0.227 C 
HETATM    9  O   UNL     1      29.061  40.020  52.126  1.00  0.00    -0.273 OA
HETATM   10  H   UNL     1      27.418  42.573  51.169  1.00  0.00     0.169 HD
BRANCH   8  11
HETATM   11  C   UNL     1      27.774  40.342  50.184  1.00  0.00     0.089 A 
HETATM   12  C   UNL     1      28.609  40.387  48.913  1.00  0.00     0.057 A 
HETATM   13  C   UNL     1      27.468  41.358  49.126  1.00  0.00     0.027 A 
BRANCH  12  14
HETATM   14  C   UNL     1      28.404  39.278  47.898  1.00  0.00     0.057 A 
HETATM   15  O   UNL     1      28.920  38.022  48.012  1.00  0.00    -0.327 OA
HETATM   16  C   UNL     1      28.508  37.323  46.924  1.00  0.00     0.142 A 
HETATM   17  C   UNL     1      27.736  38.115  46.108  1.00  0.00     0.027 A 
HETATM   18  C   UNL     1      27.669  39.383  46.737  1.00  0.00     0.035 A 
ENDBRANCH  12  14
ENDBRANCH   8  11
ENDBRANCH   3   7
BRANCH   5  19
HETATM   19  C   UNL     1      27.472  46.073  54.573  1.00  0.00     0.010 A 
HETATM   20  C   UNL     1      26.159  46.464  54.209  1.00  0.00     0.152 A 
HETATM   21  N   UNL     1      25.811  47.655  54.705  1.00  0.00    -0.187 NA
HETATM   22  N   UNL     1      26.899  48.037  55.389  1.00  0.00    -0.289 N 
HETATM   23  H   UNL     1      26.878  48.933  55.866  1.00  0.00     0.188 HD
HETATM   24  C   UNL     1      27.917  47.128  55.343  1.00  0.00     0.123 A 
ENDBRANCH   5  19
TORSDOF 4
ENDMDL
