MODEL 1
REMARK VINA RESULT:     -10.1      0.000      0.000
REMARK  5 active torsions:
REMARK  status: ('A' for Active; 'I' for Inactive)
REMARK    1  A    between atoms: C_12  and  C_13 
REMARK    2  A    between atoms: C_13  and  N_14 
REMARK    3  A    between atoms: N_14  and  C_15 
REMARK    4  A    between atoms: C_17  and  O_18 
REMARK    5  A    between atoms: C_19  and  O_20 
ROOT
HETATM    1  C   UNL     1      31.743  43.755  57.318  1.00  0.00     0.048 C 
HETATM    2  C   UNL     1      30.695  44.135  56.314  1.00  0.00    -0.059 A 
HETATM    3  C   UNL     1      29.896  45.264  56.503  1.00  0.00     0.037 A 
HETATM    4  C   UNL     1      28.910  45.584  55.568  1.00  0.00     0.046 A 
HETATM    5  C   UNL     1      28.694  44.786  54.432  1.00  0.00    -0.003 A 
HETATM    6  C   UNL     1      29.498  43.648  54.231  1.00  0.00    -0.049 A 
HETATM    7  C   UNL     1      29.330  42.747  53.039  1.00  0.00     0.049 C 
HETATM    8  C   UNL     1      30.487  43.335  55.183  1.00  0.00     0.014 A 
HETATM    9  N   UNL     1      28.124  46.725  55.771  1.00  0.00    -0.322 N 
HETATM   10  C   UNL     1      27.138  47.136  54.919  1.00  0.00     0.253 A 
HETATM   11  O   UNL     1      26.500  48.162  55.136  1.00  0.00    -0.268 OA
HETATM   12  C   UNL     1      26.878  46.287  53.725  1.00  0.00     0.024 A 
HETATM   13  C   UNL     1      27.618  45.183  53.514  1.00  0.00     0.028 A 
HETATM   14  H   UNL     1      28.281  47.312  56.579  1.00  0.00     0.169 HD
ENDROOT
BRANCH  12  15
HETATM   15  C   UNL     1      25.733  46.692  52.843  1.00  0.00     0.136 C 
BRANCH  15  16
HETATM   16  N   UNL     1      26.103  46.446  51.450  1.00  0.00    -0.288 NA
HETATM   17  H   UNL     1      27.042  46.056  51.383  1.00  0.00     0.128 HD
BRANCH  16  18
HETATM   18  C   UNL     1      25.928  47.468  50.503  1.00  0.00     0.011 A 
HETATM   19  C   UNL     1      27.076  48.122  50.022  1.00  0.00     0.062 A 
HETATM   20  C   UNL     1      26.971  49.096  49.032  1.00  0.00     0.100 A 
HETATM   21  C   UNL     1      25.733  49.415  48.490  1.00  0.00     0.098 A 
HETATM   22  C   UNL     1      24.592  48.760  48.915  1.00  0.00     0.041 A 
HETATM   23  C   UNL     1      24.694  47.776  49.907  1.00  0.00     0.026 A 
BRANCH  20  24
HETATM   24  O   UNL     1      28.066  49.763  48.553  1.00  0.00    -0.358 OA
HETATM   25  H   UNL     1      28.860  49.277  48.837  1.00  0.00     0.218 HD
ENDBRANCH  20  24
BRANCH  21  26
HETATM   26  O   UNL     1      25.635  50.371  47.521  1.00  0.00    -0.358 OA
HETATM   27  H   UNL     1      26.439  50.915  47.635  1.00  0.00     0.218 HD
ENDBRANCH  21  26
ENDBRANCH  16  18
ENDBRANCH  15  16
ENDBRANCH  12  15
TORSDOF 5
ENDMDL
MODEL 2
REMARK VINA RESULT:      -9.4      3.020      3.936
REMARK  5 active torsions:
REMARK  status: ('A' for Active; 'I' for Inactive)
REMARK    1  A    between atoms: C_12  and  C_13 
REMARK    2  A    between atoms: C_13  and  N_14 
REMARK    3  A    between atoms: N_14  and  C_15 
REMARK    4  A    between atoms: C_17  and  O_18 
REMARK    5  A    between atoms: C_19  and  O_20 
ROOT
HETATM    1  C   UNL     1      31.474  43.762  56.628  1.00  0.00     0.048 C 
HETATM    2  C   UNL     1      30.427  43.811  55.555  1.00  0.00    -0.059 A 
HETATM    3  C   UNL     1      30.383  42.841  54.551  1.00  0.00     0.037 A 
HETATM    4  C   UNL     1      29.416  42.922  53.548  1.00  0.00     0.046 A 
HETATM    5  C   UNL     1      28.479  43.969  53.518  1.00  0.00    -0.003 A 
HETATM    6  C   UNL     1      28.514  44.948  54.528  1.00  0.00    -0.049 A 
HETATM    7  C   UNL     1      27.544  46.097  54.566  1.00  0.00     0.049 C 
HETATM    8  C   UNL     1      29.496  44.858  55.532  1.00  0.00     0.014 A 
HETATM    9  N   UNL     1      29.382  41.935  52.556  1.00  0.00    -0.322 N 
HETATM   10  C   UNL     1      28.476  41.909  51.532  1.00  0.00     0.253 A 
HETATM   11  O   UNL     1      28.478  41.002  50.706  1.00  0.00    -0.268 OA
HETATM   12  C   UNL     1      27.495  43.026  51.471  1.00  0.00     0.024 A 
HETATM   13  C   UNL     1      27.513  43.988  52.412  1.00  0.00     0.028 A 
HETATM   14  H   UNL     1      30.044  41.171  52.576  1.00  0.00     0.169 HD
ENDROOT
BRANCH  12  15
HETATM   15  C   UNL     1      26.563  43.044  50.294  1.00  0.00     0.136 C 
BRANCH  15  16
HETATM   16  N   UNL     1      26.884  44.198  49.457  1.00  0.00    -0.288 NA
HETATM   17  H   UNL     1      27.875  44.431  49.517  1.00  0.00     0.128 HD
BRANCH  16  18
HETATM   18  C   UNL     1      26.102  45.360  49.560  1.00  0.00     0.011 A 
HETATM   19  C   UNL     1      24.718  45.241  49.343  1.00  0.00     0.062 A 
HETATM   20  C   UNL     1      23.881  46.344  49.497  1.00  0.00     0.100 A 
HETATM   21  C   UNL     1      24.402  47.570  49.892  1.00  0.00     0.098 A 
HETATM   22  C   UNL     1      25.753  47.706  50.152  1.00  0.00     0.041 A 
HETATM   23  C   UNL     1      26.597  46.597  50.002  1.00  0.00     0.026 A 
BRANCH  20  24
HETATM   24  O   UNL     1      22.532  46.267  49.278  1.00  0.00    -0.358 OA
HETATM   25  H   UNL     1      22.082  46.623  50.064  1.00  0.00     0.218 HD
ENDBRANCH  20  24
BRANCH  21  26
HETATM   26  O   UNL     1      23.578  48.648  50.042  1.00  0.00    -0.358 OA
HETATM   27  H   UNL     1      22.695  48.315  49.787  1.00  0.00     0.218 HD
ENDBRANCH  21  26
ENDBRANCH  16  18
ENDBRANCH  15  16
ENDBRANCH  12  15
TORSDOF 5
ENDMDL
MODEL 3
REMARK VINA RESULT:      -9.2      3.130      3.587
REMARK  5 active torsions:
REMARK  status: ('A' for Active; 'I' for Inactive)
REMARK    1  A    between atoms: C_12  and  C_13 
REMARK    2  A    between atoms: C_13  and  N_14 
REMARK    3  A    between atoms: N_14  and  C_15 
REMARK    4  A    between atoms: C_17  and  O_18 
REMARK    5  A    between atoms: C_19  and  O_20 
ROOT
HETATM    1  C   UNL     1      31.992  43.512  57.243  1.00  0.00     0.048 C 
HETATM    2  C   UNL     1      30.903  43.893  56.283  1.00  0.00    -0.059 A 
HETATM    3  C   UNL     1      30.129  45.036  56.493  1.00  0.00     0.037 A 
HETATM    4  C   UNL     1      29.106  45.357  55.600  1.00  0.00     0.046 A 
HETATM    5  C   UNL     1      28.826  44.546  54.488  1.00  0.00    -0.003 A 
HETATM    6  C   UNL     1      29.603  43.394  54.267  1.00  0.00    -0.049 A 
HETATM    7  C   UNL     1      29.367  42.478  53.097  1.00  0.00     0.049 C 
HETATM    8  C   UNL     1      30.631  43.079  55.175  1.00  0.00     0.014 A 
HETATM    9  N   UNL     1      28.346  46.512  55.823  1.00  0.00    -0.322 N 
HETATM   10  C   UNL     1      27.326  46.926  55.012  1.00  0.00     0.253 A 
HETATM   11  O   UNL     1      26.714  47.964  55.243  1.00  0.00    -0.268 OA
HETATM   12  C   UNL     1      27.000  46.063  53.844  1.00  0.00     0.024 A 
HETATM   13  C   UNL     1      27.713  44.945  53.615  1.00  0.00     0.028 A 
HETATM   14  H   UNL     1      28.549  47.109  56.614  1.00  0.00     0.169 HD
ENDROOT
BRANCH  12  15
HETATM   15  C   UNL     1      25.820  46.472  53.011  1.00  0.00     0.136 C 
BRANCH  15  16
HETATM   16  N   UNL     1      26.133  46.231  51.604  1.00  0.00    -0.288 NA
HETATM   17  H   UNL     1      25.842  47.016  51.023  1.00  0.00     0.128 HD
BRANCH  16  18
HETATM   18  C   UNL     1      25.748  45.016  51.013  1.00  0.00     0.011 A 
HETATM   19  C   UNL     1      26.624  44.429  50.084  1.00  0.00     0.062 A 
HETATM   20  C   UNL     1      26.328  43.192  49.516  1.00  0.00     0.100 A 
HETATM   21  C   UNL     1      25.174  42.511  49.882  1.00  0.00     0.098 A 
HETATM   22  C   UNL     1      24.314  43.045  50.824  1.00  0.00     0.041 A 
HETATM   23  C   UNL     1      24.611  44.286  51.400  1.00  0.00     0.026 A 
BRANCH  20  24
HETATM   24  O   UNL     1      27.151  42.601  48.596  1.00  0.00    -0.358 OA
HETATM   25  H   UNL     1      27.571  43.307  48.075  1.00  0.00     0.218 HD
ENDBRANCH  20  24
BRANCH  21  26
HETATM   26  O   UNL     1      24.888  41.299  49.323  1.00  0.00    -0.358 OA
HETATM   27  H   UNL     1      24.583  41.515  48.420  1.00  0.00     0.218 HD
ENDBRANCH  21  26
ENDBRANCH  16  18
ENDBRANCH  15  16
ENDBRANCH  12  15
TORSDOF 5
ENDMDL
MODEL 4
REMARK VINA RESULT:      -9.1      2.060      3.047
REMARK  5 active torsions:
REMARK  status: ('A' for Active; 'I' for Inactive)
REMARK    1  A    between atoms: C_12  and  C_13 
REMARK    2  A    between atoms: C_13  and  N_14 
REMARK    3  A    between atoms: N_14  and  C_15 
REMARK    4  A    between atoms: C_17  and  O_18 
REMARK    5  A    between atoms: C_19  and  O_20 
ROOT
HETATM    1  C   UNL     1      31.052  43.348  55.957  1.00  0.00     0.048 C 
HETATM    2  C   UNL     1      29.842  43.914  55.274  1.00  0.00    -0.059 A 
HETATM    3  C   UNL     1      29.149  43.174  54.313  1.00  0.00     0.037 A 
HETATM    4  C   UNL     1      28.042  43.731  53.672  1.00  0.00     0.046 A 
HETATM    5  C   UNL     1      27.605  45.033  53.967  1.00  0.00    -0.003 A 
HETATM    6  C   UNL     1      28.295  45.784  54.937  1.00  0.00    -0.049 A 
HETATM    7  C   UNL     1      27.887  47.183  55.310  1.00  0.00     0.049 C 
HETATM    8  C   UNL     1      29.412  45.213  55.574  1.00  0.00     0.014 A 
HETATM    9  N   UNL     1      27.355  42.970  52.718  1.00  0.00    -0.322 N 
HETATM   10  C   UNL     1      26.255  43.411  52.035  1.00  0.00     0.253 A 
HETATM   11  O   UNL     1      25.678  42.688  51.230  1.00  0.00    -0.268 OA
HETATM   12  C   UNL     1      25.796  44.799  52.316  1.00  0.00     0.024 A 
HETATM   13  C   UNL     1      26.446  45.548  53.226  1.00  0.00     0.028 A 
HETATM   14  H   UNL     1      27.654  42.028  52.508  1.00  0.00     0.169 HD
ENDROOT
BRANCH  12  15
HETATM   15  C   UNL     1      24.647  45.310  51.498  1.00  0.00     0.136 C 
BRANCH  15  16
HETATM   16  N   UNL     1      25.075  45.423  50.105  1.00  0.00    -0.288 NA
HETATM   17  H   UNL     1      25.628  44.615  49.824  1.00  0.00     0.128 HD
BRANCH  16  18
HETATM   18  C   UNL     1      25.687  46.610  49.670  1.00  0.00     0.011 A 
HETATM   19  C   UNL     1      24.874  47.744  49.496  1.00  0.00     0.062 A 
HETATM   20  C   UNL     1      25.433  48.966  49.132  1.00  0.00     0.100 A 
HETATM   21  C   UNL     1      26.806  49.085  48.961  1.00  0.00     0.098 A 
HETATM   22  C   UNL     1      27.635  47.997  49.164  1.00  0.00     0.041 A 
HETATM   23  C   UNL     1      27.076  46.768  49.535  1.00  0.00     0.026 A 
BRANCH  20  24
HETATM   24  O   UNL     1      24.668  50.085  48.939  1.00  0.00    -0.358 OA
HETATM   25  H   UNL     1      25.247  50.861  49.035  1.00  0.00     0.218 HD
ENDBRANCH  20  24
BRANCH  21  26
HETATM   26  O   UNL     1      27.350  50.285  48.603  1.00  0.00    -0.358 OA
HETATM   27  H   UNL     1      28.065  50.430  49.253  1.00  0.00     0.218 HD
ENDBRANCH  21  26
ENDBRANCH  16  18
ENDBRANCH  15  16
ENDBRANCH  12  15
TORSDOF 5
ENDMDL
MODEL 5
REMARK VINA RESULT:      -9.0      2.735      8.097
REMARK  5 active torsions:
REMARK  status: ('A' for Active; 'I' for Inactive)
REMARK    1  A    between atoms: C_12  and  C_13 
REMARK    2  A    between atoms: C_13  and  N_14 
REMARK    3  A    between atoms: N_14  and  C_15 
REMARK    4  A    between atoms: C_17  and  O_18 
REMARK    5  A    between atoms: C_19  and  O_20 
ROOT
HETATM    1  C   UNL     1      23.281  50.602  47.944  1.00  0.00     0.048 C 
HETATM    2  C   UNL     1      24.160  49.557  48.567  1.00  0.00    -0.059 A 
HETATM    3  C   UNL     1      23.609  48.431  49.183  1.00  0.00     0.037 A 
HETATM    4  C   UNL     1      24.444  47.485  49.778  1.00  0.00     0.046 A 
HETATM    5  C   UNL     1      25.841  47.641  49.780  1.00  0.00    -0.003 A 
HETATM    6  C   UNL     1      26.405  48.771  49.159  1.00  0.00    -0.049 A 
HETATM    7  C   UNL     1      27.889  49.007  49.116  1.00  0.00     0.049 C 
HETATM    8  C   UNL     1      25.551  49.720  48.564  1.00  0.00     0.014 A 
HETATM    9  N   UNL     1      23.874  46.358  50.383  1.00  0.00    -0.322 N 
HETATM   10  C   UNL     1      24.594  45.366  50.988  1.00  0.00     0.253 A 
HETATM   11  O   UNL     1      24.039  44.388  51.477  1.00  0.00    -0.268 OA
HETATM   12  C   UNL     1      26.073  45.531  51.023  1.00  0.00     0.024 A 
HETATM   13  C   UNL     1      26.642  46.609  50.452  1.00  0.00     0.028 A 
HETATM   14  H   UNL     1      22.871  46.231  50.375  1.00  0.00     0.169 HD
ENDROOT
BRANCH  12  15
HETATM   15  C   UNL     1      26.852  44.487  51.769  1.00  0.00     0.136 C 
BRANCH  15  16
HETATM   16  N   UNL     1      26.906  44.861  53.180  1.00  0.00    -0.288 NA
HETATM   17  H   UNL     1      26.597  45.822  53.318  1.00  0.00     0.128 HD
BRANCH  16  18
HETATM   18  C   UNL     1      28.080  44.615  53.911  1.00  0.00     0.011 A 
HETATM   19  C   UNL     1      28.367  45.459  54.998  1.00  0.00     0.062 A 
HETATM   20  C   UNL     1      29.480  45.223  55.802  1.00  0.00     0.100 A 
HETATM   21  C   UNL     1      30.307  44.135  55.553  1.00  0.00     0.098 A 
HETATM   22  C   UNL     1      30.026  43.264  54.516  1.00  0.00     0.041 A 
HETATM   23  C   UNL     1      28.905  43.496  53.709  1.00  0.00     0.026 A 
BRANCH  20  24
HETATM   24  O   UNL     1      29.797  46.035  56.857  1.00  0.00    -0.358 OA
HETATM   25  H   UNL     1      29.766  46.956  56.545  1.00  0.00     0.218 HD
ENDBRANCH  20  24
BRANCH  21  26
HETATM   26  O   UNL     1      31.397  43.908  56.342  1.00  0.00    -0.358 OA
HETATM   27  H   UNL     1      32.121  44.393  55.900  1.00  0.00     0.218 HD
ENDBRANCH  21  26
ENDBRANCH  16  18
ENDBRANCH  15  16
ENDBRANCH  12  15
TORSDOF 5
ENDMDL
MODEL 6
REMARK VINA RESULT:      -8.5      5.155      7.538
REMARK  5 active torsions:
REMARK  status: ('A' for Active; 'I' for Inactive)
REMARK    1  A    between atoms: C_12  and  C_13 
REMARK    2  A    between atoms: C_13  and  N_14 
REMARK    3  A    between atoms: N_14  and  C_15 
REMARK    4  A    between atoms: C_17  and  O_18 
REMARK    5  A    between atoms: C_19  and  O_20 
ROOT
HETATM    1  C   UNL     1      26.712  48.635  55.574  1.00  0.00     0.048 C 
HETATM    2  C   UNL     1      27.261  47.293  55.191  1.00  0.00    -0.059 A 
HETATM    3  C   UNL     1      26.613  46.495  54.245  1.00  0.00     0.037 A 
HETATM    4  C   UNL     1      27.129  45.239  53.923  1.00  0.00     0.046 A 
HETATM    5  C   UNL     1      28.293  44.748  54.538  1.00  0.00    -0.003 A 
HETATM    6  C   UNL     1      28.955  45.546  55.489  1.00  0.00    -0.049 A 
HETATM    7  C   UNL     1      30.207  45.092  56.188  1.00  0.00     0.049 C 
HETATM    8  C   UNL     1      28.423  46.810  55.808  1.00  0.00     0.014 A 
HETATM    9  N   UNL     1      26.470  44.458  52.966  1.00  0.00    -0.322 N 
HETATM   10  C   UNL     1      26.889  43.219  52.569  1.00  0.00     0.253 A 
HETATM   11  O   UNL     1      26.285  42.593  51.705  1.00  0.00    -0.268 OA
HETATM   12  C   UNL     1      28.105  42.673  53.231  1.00  0.00     0.024 A 
HETATM   13  C   UNL     1      28.750  43.404  54.157  1.00  0.00     0.028 A 
HETATM   14  H   UNL     1      25.639  44.809  52.509  1.00  0.00     0.169 HD
ENDROOT
BRANCH  12  15
HETATM   15  C   UNL     1      28.507  41.275  52.859  1.00  0.00     0.136 C 
BRANCH  15  16
HETATM   16  N   UNL     1      28.700  41.211  51.412  1.00  0.00    -0.288 NA
HETATM   17  H   UNL     1      28.247  41.996  50.946  1.00  0.00     0.128 HD
BRANCH  16  18
HETATM   18  C   UNL     1      28.422  40.013  50.735  1.00  0.00     0.011 A 
HETATM   19  C   UNL     1      29.305  38.934  50.915  1.00  0.00     0.062 A 
HETATM   20  C   UNL     1      29.045  37.700  50.324  1.00  0.00     0.100 A 
HETATM   21  C   UNL     1      27.894  37.514  49.569  1.00  0.00     0.098 A 
HETATM   22  C   UNL     1      26.986  38.544  49.408  1.00  0.00     0.041 A 
HETATM   23  C   UNL     1      27.243  39.785  50.005  1.00  0.00     0.026 A 
BRANCH  20  24
HETATM   24  O   UNL     1      29.892  36.635  50.466  1.00  0.00    -0.358 OA
HETATM   25  H   UNL     1      29.366  35.874  50.769  1.00  0.00     0.218 HD
ENDBRANCH  20  24
BRANCH  21  26
HETATM   26  O   UNL     1      27.643  36.303  48.990  1.00  0.00    -0.358 OA
HETATM   27  H   UNL     1      26.906  36.478  48.372  1.00  0.00     0.218 HD
ENDBRANCH  21  26
ENDBRANCH  16  18
ENDBRANCH  15  16
ENDBRANCH  12  15
TORSDOF 5
ENDMDL
MODEL 7
REMARK VINA RESULT:      -8.5      4.275      5.508
REMARK  5 active torsions:
REMARK  status: ('A' for Active; 'I' for Inactive)
REMARK    1  A    between atoms: C_12  and  C_13 
REMARK    2  A    between atoms: C_13  and  N_14 
REMARK    3  A    between atoms: N_14  and  C_15 
REMARK    4  A    between atoms: C_17  and  O_18 
REMARK    5  A    between atoms: C_19  and  O_20 
ROOT
HETATM    1  C   UNL     1      30.546  46.022  57.874  1.00  0.00     0.048 C 
HETATM    2  C   UNL     1      29.904  45.537  56.608  1.00  0.00    -0.059 A 
HETATM    3  C   UNL     1      28.771  46.168  56.090  1.00  0.00     0.037 A 
HETATM    4  C   UNL     1      28.176  45.684  54.925  1.00  0.00     0.046 A 
HETATM    5  C   UNL     1      28.688  44.560  54.256  1.00  0.00    -0.003 A 
HETATM    6  C   UNL     1      29.832  43.919  54.768  1.00  0.00    -0.049 A 
HETATM    7  C   UNL     1      30.441  42.714  54.106  1.00  0.00     0.049 C 
HETATM    8  C   UNL     1      30.422  44.416  55.945  1.00  0.00     0.014 A 
HETATM    9  N   UNL     1      27.045  46.336  54.417  1.00  0.00    -0.322 N 
HETATM   10  C   UNL     1      26.386  45.953  53.282  1.00  0.00     0.253 A 
HETATM   11  O   UNL     1      25.417  46.582  52.870  1.00  0.00    -0.268 OA
HETATM   12  C   UNL     1      26.901  44.748  52.576  1.00  0.00     0.024 A 
HETATM   13  C   UNL     1      27.982  44.103  53.051  1.00  0.00     0.028 A 
HETATM   14  H   UNL     1      26.677  47.153  54.885  1.00  0.00     0.169 HD
ENDROOT
BRANCH  12  15
HETATM   15  C   UNL     1      26.119  44.278  51.384  1.00  0.00     0.136 C 
BRANCH  15  16
HETATM   16  N   UNL     1      25.823  42.856  51.546  1.00  0.00    -0.288 NA
HETATM   17  H   UNL     1      26.025  42.545  52.496  1.00  0.00     0.128 HD
BRANCH  16  18
HETATM   18  C   UNL     1      26.331  41.938  50.613  1.00  0.00     0.011 A 
HETATM   19  C   UNL     1      26.129  40.569  50.860  1.00  0.00     0.062 A 
HETATM   20  C   UNL     1      26.549  39.614  49.937  1.00  0.00     0.100 A 
HETATM   21  C   UNL     1      27.150  40.006  48.748  1.00  0.00     0.098 A 
HETATM   22  C   UNL     1      27.325  41.347  48.459  1.00  0.00     0.041 A 
HETATM   23  C   UNL     1      26.899  42.310  49.383  1.00  0.00     0.026 A 
BRANCH  20  24
HETATM   24  O   UNL     1      26.383  38.273  50.154  1.00  0.00    -0.358 OA
HETATM   25  H   UNL     1      26.326  37.836  49.287  1.00  0.00     0.218 HD
ENDBRANCH  20  24
BRANCH  21  26
HETATM   26  O   UNL     1      27.561  39.067  47.846  1.00  0.00    -0.358 OA
HETATM   27  H   UNL     1      26.731  38.706  47.478  1.00  0.00     0.218 HD
ENDBRANCH  21  26
ENDBRANCH  16  18
ENDBRANCH  15  16
ENDBRANCH  12  15
TORSDOF 5
ENDMDL
MODEL 8
REMARK VINA RESULT:      -8.2      4.220      8.194
REMARK  5 active torsions:
REMARK  status: ('A' for Active; 'I' for Inactive)
REMARK    1  A    between atoms: C_12  and  C_13 
REMARK    2  A    between atoms: C_13  and  N_14 
REMARK    3  A    between atoms: N_14  and  C_15 
REMARK    4  A    between atoms: C_17  and  O_18 
REMARK    5  A    between atoms: C_19  and  O_20 
ROOT
HETATM    1  C   UNL     1      23.186  50.526  47.696  1.00  0.00     0.048 C 
HETATM    2  C   UNL     1      24.060  49.529  48.398  1.00  0.00    -0.059 A 
HETATM    3  C   UNL     1      23.511  48.409  49.026  1.00  0.00     0.037 A 
HETATM    4  C   UNL     1      24.342  47.509  49.694  1.00  0.00     0.046 A 
HETATM    5  C   UNL     1      25.731  47.706  49.759  1.00  0.00    -0.003 A 
HETATM    6  C   UNL     1      26.294  48.830  49.126  1.00  0.00    -0.049 A 
HETATM    7  C   UNL     1      27.772  49.109  49.149  1.00  0.00     0.049 C 
HETATM    8  C   UNL     1      25.446  49.733  48.458  1.00  0.00     0.014 A 
HETATM    9  N   UNL     1      23.773  46.387  50.310  1.00  0.00    -0.322 N 
HETATM   10  C   UNL     1      24.490  45.438  50.985  1.00  0.00     0.253 A 
HETATM   11  O   UNL     1      23.938  44.461  51.480  1.00  0.00    -0.268 OA
HETATM   12  C   UNL     1      25.960  45.648  51.086  1.00  0.00     0.024 A 
HETATM   13  C   UNL     1      26.526  46.722  50.506  1.00  0.00     0.028 A 
HETATM   14  H   UNL     1      22.776  46.230  50.258  1.00  0.00     0.169 HD
ENDROOT
BRANCH  12  15
HETATM   15  C   UNL     1      26.730  44.653  51.906  1.00  0.00     0.136 C 
BRANCH  15  16
HETATM   16  N   UNL     1      27.617  43.901  51.022  1.00  0.00    -0.288 NA
HETATM   17  H   UNL     1      27.814  44.423  50.169  1.00  0.00     0.128 HD
BRANCH  16  18
HETATM   18  C   UNL     1      27.312  42.565  50.718  1.00  0.00     0.011 A 
HETATM   19  C   UNL     1      28.268  41.584  51.032  1.00  0.00     0.062 A 
HETATM   20  C   UNL     1      27.995  40.235  50.817  1.00  0.00     0.100 A 
HETATM   21  C   UNL     1      26.762  39.841  50.311  1.00  0.00     0.098 A 
HETATM   22  C   UNL     1      25.787  40.781  50.031  1.00  0.00     0.041 A 
HETATM   23  C   UNL     1      26.057  42.138  50.252  1.00  0.00     0.026 A 
BRANCH  20  24
HETATM   24  O   UNL     1      28.910  39.256  51.096  1.00  0.00    -0.358 OA
HETATM   25  H   UNL     1      28.426  38.419  51.208  1.00  0.00     0.218 HD
ENDBRANCH  20  24
BRANCH  21  26
HETATM   26  O   UNL     1      26.499  38.519  50.101  1.00  0.00    -0.358 OA
HETATM   27  H   UNL     1      26.140  38.485  49.193  1.00  0.00     0.218 HD
ENDBRANCH  21  26
ENDBRANCH  16  18
ENDBRANCH  15  16
ENDBRANCH  12  15
TORSDOF 5
ENDMDL
MODEL 9
REMARK VINA RESULT:      -8.1      4.623      8.204
REMARK  5 active torsions:
REMARK  status: ('A' for Active; 'I' for Inactive)
REMARK    1  A    between atoms: C_12  and  C_13 
REMARK    2  A    between atoms: C_13  and  N_14 
REMARK    3  A    between atoms: N_14  and  C_15 
REMARK    4  A    between atoms: C_17  and  O_18 
REMARK    5  A    between atoms: C_19  and  O_20 
ROOT
HETATM    1  C   UNL     1      23.904  41.175  47.625  1.00  0.00     0.048 C 
HETATM    2  C   UNL     1      24.937  41.129  48.712  1.00  0.00    -0.059 A 
HETATM    3  C   UNL     1      24.910  42.045  49.767  1.00  0.00     0.037 A 
HETATM    4  C   UNL     1      25.895  41.999  50.753  1.00  0.00     0.046 A 
HETATM    5  C   UNL     1      26.930  41.050  50.709  1.00  0.00    -0.003 A 
HETATM    6  C   UNL     1      26.963  40.121  49.653  1.00  0.00    -0.049 A 
HETATM    7  C   UNL     1      28.036  39.073  49.538  1.00  0.00     0.049 C 
HETATM    8  C   UNL     1      25.965  40.179  48.662  1.00  0.00     0.014 A 
HETATM    9  N   UNL     1      25.846  42.920  51.807  1.00  0.00    -0.322 N 
HETATM   10  C   UNL     1      26.752  42.963  52.830  1.00  0.00     0.253 A 
HETATM   11  O   UNL     1      26.641  43.776  53.742  1.00  0.00    -0.268 OA
HETATM   12  C   UNL     1      27.870  41.982  52.783  1.00  0.00     0.024 A 
HETATM   13  C   UNL     1      27.940  41.092  51.776  1.00  0.00     0.028 A 
HETATM   14  H   UNL     1      25.098  43.598  51.854  1.00  0.00     0.169 HD
ENDROOT
BRANCH  12  15
HETATM   15  C   UNL     1      28.913  42.093  53.857  1.00  0.00     0.136 C 
BRANCH  15  16
HETATM   16  N   UNL     1      29.435  43.458  53.865  1.00  0.00    -0.288 NA
HETATM   17  H   UNL     1      30.205  43.561  53.206  1.00  0.00     0.128 HD
BRANCH  16  18
HETATM   18  C   UNL     1      29.756  44.063  55.091  1.00  0.00     0.011 A 
HETATM   19  C   UNL     1      30.803  43.506  55.846  1.00  0.00     0.062 A 
HETATM   20  C   UNL     1      31.212  44.101  57.036  1.00  0.00     0.100 A 
HETATM   21  C   UNL     1      30.605  45.269  57.480  1.00  0.00     0.098 A 
HETATM   22  C   UNL     1      29.599  45.862  56.739  1.00  0.00     0.041 A 
HETATM   23  C   UNL     1      29.190  45.268  55.538  1.00  0.00     0.026 A 
BRANCH  20  24
HETATM   24  O   UNL     1      32.217  43.576  57.802  1.00  0.00    -0.358 OA
HETATM   25  H   UNL     1      32.193  44.018  58.669  1.00  0.00     0.218 HD
ENDBRANCH  20  24
BRANCH  21  26
HETATM   26  O   UNL     1      31.008  45.849  58.648  1.00  0.00    -0.358 OA
HETATM   27  H   UNL     1      30.586  45.309  59.345  1.00  0.00     0.218 HD
ENDBRANCH  21  26
ENDBRANCH  16  18
ENDBRANCH  15  16
ENDBRANCH  12  15
TORSDOF 5
ENDMDL
MODEL 10
REMARK VINA RESULT:      -8.1      2.203      2.874
REMARK  5 active torsions:
REMARK  status: ('A' for Active; 'I' for Inactive)
REMARK    1  A    between atoms: C_12  and  C_13 
REMARK    2  A    between atoms: C_13  and  N_14 
REMARK    3  A    between atoms: N_14  and  C_15 
REMARK    4  A    between atoms: C_17  and  O_18 
REMARK    5  A    between atoms: C_19  and  O_20 
ROOT
HETATM    1  C   UNL     1      30.749  43.380  55.680  1.00  0.00     0.048 C 
HETATM    2  C   UNL     1      29.641  43.511  54.677  1.00  0.00    -0.059 A 
HETATM    3  C   UNL     1      28.850  44.661  54.628  1.00  0.00     0.037 A 
HETATM    4  C   UNL     1      27.808  44.749  53.703  1.00  0.00     0.046 A 
HETATM    5  C   UNL     1      27.527  43.697  52.816  1.00  0.00    -0.003 A 
HETATM    6  C   UNL     1      28.322  42.536  52.856  1.00  0.00    -0.049 A 
HETATM    7  C   UNL     1      28.086  41.370  51.936  1.00  0.00     0.049 C 
HETATM    8  C   UNL     1      29.368  42.457  53.794  1.00  0.00     0.014 A 
HETATM    9  N   UNL     1      27.032  45.914  53.664  1.00  0.00    -0.322 N 
HETATM   10  C   UNL     1      25.994  46.113  52.797  1.00  0.00     0.253 A 
HETATM   11  O   UNL     1      25.367  47.167  52.790  1.00  0.00    -0.268 OA
HETATM   12  C   UNL     1      25.666  44.996  51.868  1.00  0.00     0.024 A 
HETATM   13  C   UNL     1      26.396  43.866  51.894  1.00  0.00     0.028 A 
HETATM   14  H   UNL     1      27.235  46.681  54.290  1.00  0.00     0.169 HD
ENDROOT
BRANCH  12  15
HETATM   15  C   UNL     1      24.468  45.183  50.983  1.00  0.00     0.136 C 
BRANCH  15  16
HETATM   16  N   UNL     1      24.812  46.124  49.919  1.00  0.00    -0.288 NA
HETATM   17  H   UNL     1      25.667  46.632  50.140  1.00  0.00     0.128 HD
BRANCH  16  18
HETATM   18  C   UNL     1      23.830  47.007  49.440  1.00  0.00     0.011 A 
HETATM   19  C   UNL     1      23.935  48.363  49.794  1.00  0.00     0.062 A 
HETATM   20  C   UNL     1      23.031  49.297  49.294  1.00  0.00     0.100 A 
HETATM   21  C   UNL     1      22.028  48.902  48.418  1.00  0.00     0.098 A 
HETATM   22  C   UNL     1      21.924  47.582  48.020  1.00  0.00     0.041 A 
HETATM   23  C   UNL     1      22.836  46.641  48.518  1.00  0.00     0.026 A 
BRANCH  20  24
HETATM   24  O   UNL     1      23.096  50.622  49.631  1.00  0.00    -0.358 OA
HETATM   25  H   UNL     1      23.069  50.684  50.602  1.00  0.00     0.218 HD
ENDBRANCH  20  24
BRANCH  21  26
HETATM   26  O   UNL     1      21.143  49.820  47.931  1.00  0.00    -0.358 OA
HETATM   27  H   UNL     1      21.315  50.625  48.459  1.00  0.00     0.218 HD
ENDBRANCH  21  26
ENDBRANCH  16  18
ENDBRANCH  15  16
ENDBRANCH  12  15
TORSDOF 5
ENDMDL
