MODEL 1
REMARK VINA RESULT:     -11.1      0.000      0.000
REMARK  4 active torsions:
REMARK  status: ('A' for Active; 'I' for Inactive)
REMARK    1  A    between atoms: C_8  and  C_9 
REMARK    2  A    between atoms: C_12  and  N_13 
REMARK       I    between atoms: N_13  and  C_14 
REMARK    3  A    between atoms: C_14  and  C_15 
REMARK    4  A    between atoms: C_17  and  N_18 
ROOT
HETATM    1  C   UNL     1      18.314  51.822  49.308  1.00  0.00     0.010 A 
HETATM    2  C   UNL     1      18.719  50.800  50.173  1.00  0.00     0.017 A 
HETATM    3  C   UNL     1      20.029  50.306  50.140  1.00  0.00     0.030 A 
HETATM    4  C   UNL     1      20.963  50.819  49.241  1.00  0.00     0.035 A 
HETATM    5  C   UNL     1      20.543  51.786  48.321  1.00  0.00     0.030 A 
HETATM    6  C   UNL     1      19.233  52.284  48.357  1.00  0.00     0.017 A 
ENDROOT
BRANCH   4   7
HETATM    7  N   UNL     1      22.329  50.457  49.237  1.00  0.00    -0.323 N 
HETATM    8  C   UNL     1      22.916  49.502  48.425  1.00  0.00     0.256 C 
HETATM    9  O   UNL     1      22.397  48.892  47.498  1.00  0.00    -0.267 OA
HETATM   10  H   UNL     1      22.883  50.814  50.007  1.00  0.00     0.169 HD
BRANCH   8  11
HETATM   11  C   UNL     1      24.301  49.123  48.803  1.00  0.00     0.034 A 
HETATM   12  C   UNL     1      24.567  48.058  49.679  1.00  0.00     0.047 A 
HETATM   13  C   UNL     1      25.889  47.721  50.030  1.00  0.00     0.046 A 
HETATM   14  C   UNL     1      26.920  48.489  49.457  1.00  0.00     0.030 A 
HETATM   15  C   UNL     1      26.654  49.556  48.591  1.00  0.00     0.003 A 
HETATM   16  C   UNL     1      25.344  49.880  48.271  1.00  0.00     0.017 A 
BRANCH  13  17
HETATM   17  N   UNL     1      26.176  46.654  50.940  1.00  0.00    -0.252 N 
HETATM   18  C   UNL     1      25.980  46.716  52.305  1.00  0.00     0.231 C 
HETATM   19  O   UNL     1      25.435  47.588  52.969  1.00  0.00    -0.273 OA
HETATM   20  C   UNL     1      26.564  45.490  52.938  1.00  0.00     0.113 C 
HETATM   21  C   UNL     1      26.721  44.535  51.786  1.00  0.00     0.113 C 
HETATM   22  C   UNL     1      26.677  45.420  50.578  1.00  0.00     0.231 C 
HETATM   23  O   UNL     1      27.038  45.014  49.480  1.00  0.00    -0.273 OA
ENDBRANCH  13  17
ENDBRANCH   8  11
ENDBRANCH   4   7
BRANCH   1  24
HETATM   24  C   UNL     1      16.988  52.442  49.403  1.00  0.00     0.139 A 
HETATM   25  N   UNL     1      16.469  52.950  50.575  1.00  0.00    -0.338 N 
HETATM   26  C   UNL     1      15.263  53.542  50.311  1.00  0.00     0.063 A 
HETATM   27  H   UNL     1      16.929  52.939  51.472  1.00  0.00     0.167 HD
HETATM   28  C   UNL     1      15.083  53.346  48.948  1.00  0.00     0.086 A 
HETATM   29  C   UNL     1      14.353  54.221  51.119  1.00  0.00     0.032 A 
HETATM   30  C   UNL     1      13.923  53.843  48.335  1.00  0.00     0.040 A 
HETATM   31  N   UNL     1      16.152  52.672  48.406  1.00  0.00    -0.228 NA
HETATM   32  C   UNL     1      12.974  54.526  49.119  1.00  0.00    -0.060 A 
HETATM   33  C   UNL     1      11.738  55.097  48.487  1.00  0.00     0.048 C 
HETATM   34  C   UNL     1      13.203  54.714  50.490  1.00  0.00     0.009 A 
ENDBRANCH   1  24
TORSDOF 4
ENDMDL
MODEL 2
REMARK VINA RESULT:     -10.9      3.869      7.601
REMARK  4 active torsions:
REMARK  status: ('A' for Active; 'I' for Inactive)
REMARK    1  A    between atoms: C_8  and  C_9 
REMARK    2  A    between atoms: C_12  and  N_13 
REMARK       I    between atoms: N_13  and  C_14 
REMARK    3  A    between atoms: C_14  and  C_15 
REMARK    4  A    between atoms: C_17  and  N_18 
ROOT
HETATM    1  C   UNL     1      23.991  47.422  49.558  1.00  0.00     0.010 A 
HETATM    2  C   UNL     1      23.849  46.032  49.629  1.00  0.00     0.017 A 
HETATM    3  C   UNL     1      24.845  45.236  50.211  1.00  0.00     0.030 A 
HETATM    4  C   UNL     1      26.004  45.811  50.730  1.00  0.00     0.035 A 
HETATM    5  C   UNL     1      26.187  47.191  50.591  1.00  0.00     0.030 A 
HETATM    6  C   UNL     1      25.189  47.988  50.014  1.00  0.00     0.017 A 
ENDROOT
BRANCH   4   7
HETATM    7  N   UNL     1      26.989  45.085  51.439  1.00  0.00    -0.323 N 
HETATM    8  C   UNL     1      26.853  44.553  52.709  1.00  0.00     0.256 C 
HETATM    9  O   UNL     1      25.836  44.510  53.392  1.00  0.00    -0.267 OA
HETATM   10  H   UNL     1      27.922  45.104  51.042  1.00  0.00     0.169 HD
BRANCH   8  11
HETATM   11  C   UNL     1      28.115  44.077  53.328  1.00  0.00     0.034 A 
HETATM   12  C   UNL     1      28.562  44.559  54.569  1.00  0.00     0.047 A 
HETATM   13  C   UNL     1      29.767  44.098  55.134  1.00  0.00     0.046 A 
HETATM   14  C   UNL     1      30.487  43.132  54.407  1.00  0.00     0.030 A 
HETATM   15  C   UNL     1      30.046  42.657  53.167  1.00  0.00     0.003 A 
HETATM   16  C   UNL     1      28.864  43.136  52.622  1.00  0.00     0.017 A 
BRANCH  13  17
HETATM   17  N   UNL     1      30.250  44.597  56.386  1.00  0.00    -0.252 N 
HETATM   18  C   UNL     1      29.761  45.721  57.021  1.00  0.00     0.231 C 
HETATM   19  O   UNL     1      28.790  46.409  56.735  1.00  0.00    -0.273 OA
HETATM   20  C   UNL     1      30.630  46.032  58.201  1.00  0.00     0.113 C 
HETATM   21  C   UNL     1      31.389  44.754  58.431  1.00  0.00     0.113 C 
HETATM   22  C   UNL     1      31.259  44.020  57.131  1.00  0.00     0.231 C 
HETATM   23  O   UNL     1      31.973  43.061  56.868  1.00  0.00    -0.273 OA
ENDBRANCH  13  17
ENDBRANCH   8  11
ENDBRANCH   4   7
BRANCH   1  24
HETATM   24  C   UNL     1      22.914  48.289  49.067  1.00  0.00     0.139 A 
HETATM   25  N   UNL     1      21.925  47.860  48.208  1.00  0.00    -0.338 N 
HETATM   26  C   UNL     1      21.025  48.874  48.021  1.00  0.00     0.063 A 
HETATM   27  H   UNL     1      21.845  46.931  47.826  1.00  0.00     0.167 HD
HETATM   28  C   UNL     1      21.530  49.919  48.783  1.00  0.00     0.086 A 
HETATM   29  C   UNL     1      19.844  48.958  47.284  1.00  0.00     0.032 A 
HETATM   30  C   UNL     1      20.833  51.136  48.818  1.00  0.00     0.040 A 
HETATM   31  N   UNL     1      22.688  49.542  49.421  1.00  0.00    -0.228 NA
HETATM   32  C   UNL     1      19.642  51.264  48.080  1.00  0.00    -0.060 A 
HETATM   33  C   UNL     1      18.856  52.543  48.123  1.00  0.00     0.048 C 
HETATM   34  C   UNL     1      19.159  50.178  47.335  1.00  0.00     0.009 A 
ENDBRANCH   1  24
TORSDOF 4
ENDMDL
MODEL 3
REMARK VINA RESULT:     -10.8      4.370     12.351
REMARK  4 active torsions:
REMARK  status: ('A' for Active; 'I' for Inactive)
REMARK    1  A    between atoms: C_8  and  C_9 
REMARK    2  A    between atoms: C_12  and  N_13 
REMARK       I    between atoms: N_13  and  C_14 
REMARK    3  A    between atoms: C_14  and  C_15 
REMARK    4  A    between atoms: C_17  and  N_18 
ROOT
HETATM    1  C   UNL     1      26.988  45.856  53.423  1.00  0.00     0.010 A 
HETATM    2  C   UNL     1      26.657  45.089  52.300  1.00  0.00     0.017 A 
HETATM    3  C   UNL     1      25.695  45.534  51.383  1.00  0.00     0.030 A 
HETATM    4  C   UNL     1      25.042  46.751  51.569  1.00  0.00     0.035 A 
HETATM    5  C   UNL     1      25.312  47.484  52.729  1.00  0.00     0.030 A 
HETATM    6  C   UNL     1      26.277  47.042  53.644  1.00  0.00     0.017 A 
ENDROOT
BRANCH   4   7
HETATM    7  N   UNL     1      24.155  47.318  50.624  1.00  0.00    -0.323 N 
HETATM    8  C   UNL     1      24.502  48.169  49.590  1.00  0.00     0.256 C 
HETATM    9  O   UNL     1      25.631  48.489  49.236  1.00  0.00    -0.267 OA
HETATM   10  H   UNL     1      23.168  47.216  50.830  1.00  0.00     0.169 HD
BRANCH   8  11
HETATM   11  C   UNL     1      23.359  48.832  48.914  1.00  0.00     0.034 A 
HETATM   12  C   UNL     1      22.054  48.320  48.987  1.00  0.00     0.047 A 
HETATM   13  C   UNL     1      20.985  48.961  48.331  1.00  0.00     0.046 A 
HETATM   14  C   UNL     1      21.285  50.134  47.614  1.00  0.00     0.030 A 
HETATM   15  C   UNL     1      22.587  50.640  47.533  1.00  0.00     0.003 A 
HETATM   16  C   UNL     1      23.627  49.984  48.175  1.00  0.00     0.017 A 
BRANCH  13  17
HETATM   17  N   UNL     1      19.653  48.438  48.376  1.00  0.00    -0.252 N 
HETATM   18  C   UNL     1      18.802  48.556  49.456  1.00  0.00     0.231 C 
HETATM   19  O   UNL     1      18.945  49.201  50.486  1.00  0.00    -0.273 OA
HETATM   20  C   UNL     1      17.576  47.732  49.205  1.00  0.00     0.113 C 
HETATM   21  C   UNL     1      17.612  47.484  47.721  1.00  0.00     0.113 C 
HETATM   22  C   UNL     1      19.038  47.755  47.346  1.00  0.00     0.231 C 
HETATM   23  O   UNL     1      19.488  47.399  46.265  1.00  0.00    -0.273 OA
ENDBRANCH  13  17
ENDBRANCH   8  11
ENDBRANCH   4   7
BRANCH   1  24
HETATM   24  C   UNL     1      28.075  45.475  54.331  1.00  0.00     0.139 A 
HETATM   25  N   UNL     1      28.326  46.115  55.525  1.00  0.00    -0.338 N 
HETATM   26  C   UNL     1      29.338  45.463  56.178  1.00  0.00     0.063 A 
HETATM   27  H   UNL     1      27.810  46.902  55.887  1.00  0.00     0.167 HD
HETATM   28  C   UNL     1      29.684  44.431  55.318  1.00  0.00     0.086 A 
HETATM   29  C   UNL     1      29.948  45.674  57.414  1.00  0.00     0.032 A 
HETATM   30  C   UNL     1      30.709  43.547  55.689  1.00  0.00     0.040 A 
HETATM   31  N   UNL     1      28.898  44.450  54.190  1.00  0.00    -0.228 NA
HETATM   32  C   UNL     1      31.357  43.733  56.924  1.00  0.00    -0.060 A 
HETATM   33  C   UNL     1      32.436  42.785  57.365  1.00  0.00     0.048 C 
HETATM   34  C   UNL     1      30.965  44.780  57.771  1.00  0.00     0.009 A 
ENDBRANCH   1  24
TORSDOF 4
ENDMDL
MODEL 4
REMARK VINA RESULT:     -10.6      3.378     12.502
REMARK  4 active torsions:
REMARK  status: ('A' for Active; 'I' for Inactive)
REMARK    1  A    between atoms: C_8  and  C_9 
REMARK    2  A    between atoms: C_12  and  N_13 
REMARK       I    between atoms: N_13  and  C_14 
REMARK    3  A    between atoms: C_14  and  C_15 
REMARK    4  A    between atoms: C_17  and  N_18 
ROOT
HETATM    1  C   UNL     1      26.731  45.585  52.628  1.00  0.00     0.010 A 
HETATM    2  C   UNL     1      26.222  46.889  52.598  1.00  0.00     0.017 A 
HETATM    3  C   UNL     1      25.205  47.244  51.703  1.00  0.00     0.030 A 
HETATM    4  C   UNL     1      24.676  46.307  50.816  1.00  0.00     0.035 A 
HETATM    5  C   UNL     1      25.234  45.025  50.787  1.00  0.00     0.030 A 
HETATM    6  C   UNL     1      26.249  44.667  51.686  1.00  0.00     0.017 A 
ENDROOT
BRANCH   4   7
HETATM    7  N   UNL     1      23.569  46.562  49.975  1.00  0.00    -0.323 N 
HETATM    8  C   UNL     1      23.407  47.663  49.152  1.00  0.00     0.256 C 
HETATM    9  O   UNL     1      24.227  48.542  48.915  1.00  0.00    -0.267 OA
HETATM   10  H   UNL     1      22.761  45.966  50.117  1.00  0.00     0.169 HD
BRANCH   8  11
HETATM   11  C   UNL     1      22.045  47.825  48.583  1.00  0.00     0.034 A 
HETATM   12  C   UNL     1      21.232  48.923  48.904  1.00  0.00     0.047 A 
HETATM   13  C   UNL     1      19.940  49.052  48.357  1.00  0.00     0.046 A 
HETATM   14  C   UNL     1      19.514  48.043  47.474  1.00  0.00     0.030 A 
HETATM   15  C   UNL     1      20.321  46.943  47.161  1.00  0.00     0.003 A 
HETATM   16  C   UNL     1      21.584  46.829  47.723  1.00  0.00     0.017 A 
BRANCH  13  17
HETATM   17  N   UNL     1      19.089  50.154  48.693  1.00  0.00    -0.252 N 
HETATM   18  C   UNL     1      18.726  51.157  47.819  1.00  0.00     0.231 C 
HETATM   19  O   UNL     1      18.932  51.246  46.616  1.00  0.00    -0.273 OA
HETATM   20  C   UNL     1      17.987  52.220  48.574  1.00  0.00     0.113 C 
HETATM   21  C   UNL     1      17.590  51.536  49.854  1.00  0.00     0.113 C 
HETATM   22  C   UNL     1      18.510  50.355  49.930  1.00  0.00     0.231 C 
HETATM   23  O   UNL     1      18.647  49.724  50.970  1.00  0.00    -0.273 OA
ENDBRANCH  13  17
ENDBRANCH   8  11
ENDBRANCH   4   7
BRANCH   1  24
HETATM   24  C   UNL     1      27.706  45.155  53.635  1.00  0.00     0.139 A 
HETATM   25  N   UNL     1      28.477  44.019  53.509  1.00  0.00    -0.338 N 
HETATM   26  C   UNL     1      29.349  43.951  54.562  1.00  0.00     0.063 A 
HETATM   27  H   UNL     1      28.445  43.373  52.736  1.00  0.00     0.167 HD
HETATM   28  C   UNL     1      29.051  45.074  55.320  1.00  0.00     0.086 A 
HETATM   29  C   UNL     1      30.350  43.039  54.896  1.00  0.00     0.032 A 
HETATM   30  C   UNL     1      29.778  45.317  56.495  1.00  0.00     0.040 A 
HETATM   31  N   UNL     1      28.042  45.804  54.736  1.00  0.00    -0.228 NA
HETATM   32  C   UNL     1      30.790  44.415  56.873  1.00  0.00    -0.060 A 
HETATM   33  C   UNL     1      31.607  44.664  58.107  1.00  0.00     0.048 C 
HETATM   34  C   UNL     1      31.069  43.299  56.069  1.00  0.00     0.009 A 
ENDBRANCH   1  24
TORSDOF 4
ENDMDL
MODEL 5
REMARK VINA RESULT:     -10.3      3.141     12.303
REMARK  4 active torsions:
REMARK  status: ('A' for Active; 'I' for Inactive)
REMARK    1  A    between atoms: C_8  and  C_9 
REMARK    2  A    between atoms: C_12  and  N_13 
REMARK       I    between atoms: N_13  and  C_14 
REMARK    3  A    between atoms: C_14  and  C_15 
REMARK    4  A    between atoms: C_17  and  N_18 
ROOT
HETATM    1  C   UNL     1      26.121  45.385  51.466  1.00  0.00     0.010 A 
HETATM    2  C   UNL     1      25.789  46.744  51.419  1.00  0.00     0.017 A 
HETATM    3  C   UNL     1      24.726  47.199  50.628  1.00  0.00     0.030 A 
HETATM    4  C   UNL     1      23.974  46.308  49.863  1.00  0.00     0.035 A 
HETATM    5  C   UNL     1      24.350  44.961  49.844  1.00  0.00     0.030 A 
HETATM    6  C   UNL     1      25.410  44.504  50.639  1.00  0.00     0.017 A 
ENDROOT
BRANCH   4   7
HETATM    7  N   UNL     1      22.816  46.678  49.142  1.00  0.00    -0.323 N 
HETATM    8  C   UNL     1      22.682  47.792  48.332  1.00  0.00     0.256 C 
HETATM    9  O   UNL     1      23.559  48.582  48.001  1.00  0.00    -0.267 OA
HETATM   10  H   UNL     1      21.971  46.170  49.374  1.00  0.00     0.169 HD
BRANCH   8  11
HETATM   11  C   UNL     1      21.292  48.096  47.908  1.00  0.00     0.034 A 
HETATM   12  C   UNL     1      20.587  49.200  48.411  1.00  0.00     0.047 A 
HETATM   13  C   UNL     1      19.266  49.465  48.001  1.00  0.00     0.046 A 
HETATM   14  C   UNL     1      18.697  48.584  47.063  1.00  0.00     0.030 A 
HETATM   15  C   UNL     1      19.397  47.478  46.568  1.00  0.00     0.003 A 
HETATM   16  C   UNL     1      20.692  47.227  46.997  1.00  0.00     0.017 A 
BRANCH  13  17
HETATM   17  N   UNL     1      18.524  50.574  48.523  1.00  0.00    -0.252 N 
HETATM   18  C   UNL     1      18.117  50.693  49.836  1.00  0.00     0.231 C 
HETATM   19  O   UNL     1      18.396  49.991  50.799  1.00  0.00    -0.273 OA
HETATM   20  C   UNL     1      17.215  51.883  49.962  1.00  0.00     0.113 C 
HETATM   21  C   UNL     1      17.489  52.671  48.709  1.00  0.00     0.113 C 
HETATM   22  C   UNL     1      18.125  51.672  47.790  1.00  0.00     0.231 C 
HETATM   23  O   UNL     1      18.239  51.896  46.591  1.00  0.00    -0.273 OA
ENDBRANCH  13  17
ENDBRANCH   8  11
ENDBRANCH   4   7
BRANCH   1  24
HETATM   24  C   UNL     1      27.146  44.866  52.376  1.00  0.00     0.139 A 
HETATM   25  N   UNL     1      28.021  43.855  52.039  1.00  0.00    -0.338 N 
HETATM   26  C   UNL     1      28.909  43.671  53.065  1.00  0.00     0.063 A 
HETATM   27  H   UNL     1      28.040  43.369  51.156  1.00  0.00     0.167 HD
HETATM   28  C   UNL     1      28.514  44.594  54.023  1.00  0.00     0.086 A 
HETATM   29  C   UNL     1      29.996  42.814  53.223  1.00  0.00     0.032 A 
HETATM   30  C   UNL     1      29.229  44.676  55.227  1.00  0.00     0.040 A 
HETATM   31  N   UNL     1      27.432  45.321  53.584  1.00  0.00    -0.228 NA
HETATM   32  C   UNL     1      30.327  43.821  55.430  1.00  0.00    -0.060 A 
HETATM   33  C   UNL     1      31.133  43.906  56.694  1.00  0.00     0.048 C 
HETATM   34  C   UNL     1      30.702  42.913  54.428  1.00  0.00     0.009 A 
ENDBRANCH   1  24
TORSDOF 4
ENDMDL
MODEL 6
REMARK VINA RESULT:     -10.1      3.978     12.220
REMARK  4 active torsions:
REMARK  status: ('A' for Active; 'I' for Inactive)
REMARK    1  A    between atoms: C_8  and  C_9 
REMARK    2  A    between atoms: C_12  and  N_13 
REMARK       I    between atoms: N_13  and  C_14 
REMARK    3  A    between atoms: C_14  and  C_15 
REMARK    4  A    between atoms: C_17  and  N_18 
ROOT
HETATM    1  C   UNL     1      25.995  45.827  51.318  1.00  0.00     0.010 A 
HETATM    2  C   UNL     1      26.112  47.197  51.058  1.00  0.00     0.017 A 
HETATM    3  C   UNL     1      25.096  47.892  50.390  1.00  0.00     0.030 A 
HETATM    4  C   UNL     1      23.943  47.234  49.963  1.00  0.00     0.035 A 
HETATM    5  C   UNL     1      23.856  45.851  50.149  1.00  0.00     0.030 A 
HETATM    6  C   UNL     1      24.870  45.156  50.822  1.00  0.00     0.017 A 
ENDROOT
BRANCH   4   7
HETATM    7  N   UNL     1      22.829  47.894  49.395  1.00  0.00    -0.323 N 
HETATM    8  C   UNL     1      22.874  48.891  48.437  1.00  0.00     0.256 C 
HETATM    9  O   UNL     1      23.857  49.296  47.829  1.00  0.00    -0.267 OA
HETATM   10  H   UNL     1      21.940  47.731  49.853  1.00  0.00     0.169 HD
BRANCH   8  11
HETATM   11  C   UNL     1      21.589  49.600  48.210  1.00  0.00     0.034 A 
HETATM   12  C   UNL     1      20.485  48.965  47.619  1.00  0.00     0.047 A 
HETATM   13  C   UNL     1      19.278  49.660  47.406  1.00  0.00     0.046 A 
HETATM   14  C   UNL     1      19.230  51.004  47.821  1.00  0.00     0.030 A 
HETATM   15  C   UNL     1      20.333  51.639  48.402  1.00  0.00     0.003 A 
HETATM   16  C   UNL     1      21.517  50.940  48.589  1.00  0.00     0.017 A 
BRANCH  13  17
HETATM   17  N   UNL     1      18.151  49.034  46.782  1.00  0.00    -0.252 N 
HETATM   18  C   UNL     1      17.829  49.156  45.446  1.00  0.00     0.231 C 
HETATM   19  O   UNL     1      18.466  49.680  44.542  1.00  0.00    -0.273 OA
HETATM   20  C   UNL     1      16.494  48.520  45.205  1.00  0.00     0.113 C 
HETATM   21  C   UNL     1      16.287  47.656  46.420  1.00  0.00     0.113 C 
HETATM   22  C   UNL     1      17.242  48.221  47.428  1.00  0.00     0.231 C 
HETATM   23  O   UNL     1      17.155  47.933  48.615  1.00  0.00    -0.273 OA
ENDBRANCH  13  17
ENDBRANCH   8  11
ENDBRANCH   4   7
BRANCH   1  24
HETATM   24  C   UNL     1      26.984  45.101  52.121  1.00  0.00     0.139 A 
HETATM   25  N   UNL     1      27.750  44.065  51.629  1.00  0.00    -0.338 N 
HETATM   26  C   UNL     1      28.637  43.668  52.593  1.00  0.00     0.063 A 
HETATM   27  H   UNL     1      27.705  43.698  50.692  1.00  0.00     0.167 HD
HETATM   28  C   UNL     1      28.353  44.492  53.674  1.00  0.00     0.086 A 
HETATM   29  C   UNL     1      29.640  42.700  52.606  1.00  0.00     0.032 A 
HETATM   30  C   UNL     1      29.097  44.350  54.855  1.00  0.00     0.040 A 
HETATM   31  N   UNL     1      27.337  45.367  53.367  1.00  0.00    -0.228 NA
HETATM   32  C   UNL     1      30.112  43.377  54.911  1.00  0.00    -0.060 A 
HETATM   33  C   UNL     1      30.947  43.222  56.149  1.00  0.00     0.048 C 
HETATM   34  C   UNL     1      30.376  42.575  53.790  1.00  0.00     0.009 A 
ENDBRANCH   1  24
TORSDOF 4
ENDMDL
MODEL 7
REMARK VINA RESULT:      -9.9      4.750     12.443
REMARK  4 active torsions:
REMARK  status: ('A' for Active; 'I' for Inactive)
REMARK    1  A    between atoms: C_8  and  C_9 
REMARK    2  A    between atoms: C_12  and  N_13 
REMARK       I    between atoms: N_13  and  C_14 
REMARK    3  A    between atoms: C_14  and  C_15 
REMARK    4  A    between atoms: C_17  and  N_18 
ROOT
HETATM    1  C   UNL     1      26.277  45.000  52.844  1.00  0.00     0.010 A 
HETATM    2  C   UNL     1      25.436  43.904  52.620  1.00  0.00     0.017 A 
HETATM    3  C   UNL     1      24.388  43.978  51.692  1.00  0.00     0.030 A 
HETATM    4  C   UNL     1      24.156  45.148  50.971  1.00  0.00     0.035 A 
HETATM    5  C   UNL     1      24.943  46.271  51.248  1.00  0.00     0.030 A 
HETATM    6  C   UNL     1      25.994  46.196  52.172  1.00  0.00     0.017 A 
ENDROOT
BRANCH   4   7
HETATM    7  N   UNL     1      23.200  45.254  49.935  1.00  0.00    -0.323 N 
HETATM    8  C   UNL     1      23.352  44.797  48.637  1.00  0.00     0.256 C 
HETATM    9  O   UNL     1      24.272  44.125  48.188  1.00  0.00    -0.267 OA
HETATM   10  H   UNL     1      22.410  45.861  50.123  1.00  0.00     0.169 HD
BRANCH   8  11
HETATM   11  C   UNL     1      22.318  45.269  47.682  1.00  0.00     0.034 A 
HETATM   12  C   UNL     1      21.143  45.905  48.113  1.00  0.00     0.047 A 
HETATM   13  C   UNL     1      20.172  46.338  47.188  1.00  0.00     0.046 A 
HETATM   14  C   UNL     1      20.441  46.115  45.825  1.00  0.00     0.030 A 
HETATM   15  C   UNL     1      21.609  45.474  45.396  1.00  0.00     0.003 A 
HETATM   16  C   UNL     1      22.544  45.042  46.324  1.00  0.00     0.017 A 
BRANCH  13  17
HETATM   17  N   UNL     1      18.957  46.965  47.613  1.00  0.00    -0.252 N 
HETATM   18  C   UNL     1      17.817  46.286  47.992  1.00  0.00     0.231 C 
HETATM   19  O   UNL     1      17.653  45.085  48.161  1.00  0.00    -0.273 OA
HETATM   20  C   UNL     1      16.705  47.270  48.189  1.00  0.00     0.113 C 
HETATM   21  C   UNL     1      17.416  48.592  48.308  1.00  0.00     0.113 C 
HETATM   22  C   UNL     1      18.764  48.329  47.709  1.00  0.00     0.231 C 
HETATM   23  O   UNL     1      19.511  49.248  47.399  1.00  0.00    -0.273 OA
ENDBRANCH  13  17
ENDBRANCH   8  11
ENDBRANCH   4   7
BRANCH   1  24
HETATM   24  C   UNL     1      27.452  44.912  53.716  1.00  0.00     0.139 A 
HETATM   25  N   UNL     1      27.754  45.847  54.682  1.00  0.00    -0.338 N 
HETATM   26  C   UNL     1      28.852  45.429  55.384  1.00  0.00     0.063 A 
HETATM   27  H   UNL     1      27.217  46.678  54.880  1.00  0.00     0.167 HD
HETATM   28  C   UNL     1      29.197  44.226  54.784  1.00  0.00     0.086 A 
HETATM   29  C   UNL     1      29.541  45.976  56.465  1.00  0.00     0.032 A 
HETATM   30  C   UNL     1      30.303  43.512  55.271  1.00  0.00     0.040 A 
HETATM   31  N   UNL     1      28.327  43.921  53.764  1.00  0.00    -0.228 NA
HETATM   32  C   UNL     1      31.031  44.036  56.355  1.00  0.00    -0.060 A 
HETATM   33  C   UNL     1      32.199  43.281  56.921  1.00  0.00     0.048 C 
HETATM   34  C   UNL     1      30.638  45.248  56.942  1.00  0.00     0.009 A 
ENDBRANCH   1  24
TORSDOF 4
ENDMDL
MODEL 8
REMARK VINA RESULT:      -9.8      4.177     12.526
REMARK  4 active torsions:
REMARK  status: ('A' for Active; 'I' for Inactive)
REMARK    1  A    between atoms: C_8  and  C_9 
REMARK    2  A    between atoms: C_12  and  N_13 
REMARK       I    between atoms: N_13  and  C_14 
REMARK    3  A    between atoms: C_14  and  C_15 
REMARK    4  A    between atoms: C_17  and  N_18 
ROOT
HETATM    1  C   UNL     1      26.538  44.945  52.512  1.00  0.00     0.010 A 
HETATM    2  C   UNL     1      26.182  46.161  51.917  1.00  0.00     0.017 A 
HETATM    3  C   UNL     1      25.062  46.252  51.081  1.00  0.00     0.030 A 
HETATM    4  C   UNL     1      24.275  45.131  50.818  1.00  0.00     0.035 A 
HETATM    5  C   UNL     1      24.670  43.898  51.346  1.00  0.00     0.030 A 
HETATM    6  C   UNL     1      25.788  43.807  52.186  1.00  0.00     0.017 A 
ENDROOT
BRANCH   4   7
HETATM    7  N   UNL     1      23.065  45.177  50.087  1.00  0.00    -0.323 N 
HETATM    8  C   UNL     1      22.926  44.960  48.728  1.00  0.00     0.256 C 
HETATM    9  O   UNL     1      23.786  44.579  47.943  1.00  0.00    -0.267 OA
HETATM   10  H   UNL     1      22.267  45.562  50.579  1.00  0.00     0.169 HD
BRANCH   8  11
HETATM   11  C   UNL     1      21.603  45.330  48.166  1.00  0.00     0.034 A 
HETATM   12  C   UNL     1      21.022  46.587  48.399  1.00  0.00     0.047 A 
HETATM   13  C   UNL     1      19.761  46.914  47.862  1.00  0.00     0.046 A 
HETATM   14  C   UNL     1      19.124  45.933  47.079  1.00  0.00     0.030 A 
HETATM   15  C   UNL     1      19.699  44.677  46.854  1.00  0.00     0.003 A 
HETATM   16  C   UNL     1      20.934  44.371  47.405  1.00  0.00     0.017 A 
BRANCH  13  17
HETATM   17  N   UNL     1      19.144  48.182  48.110  1.00  0.00    -0.252 N 
HETATM   18  C   UNL     1      18.918  49.144  47.148  1.00  0.00     0.231 C 
HETATM   19  O   UNL     1      19.065  49.073  45.935  1.00  0.00    -0.273 OA
HETATM   20  C   UNL     1      18.430  50.395  47.812  1.00  0.00     0.113 C 
HETATM   21  C   UNL     1      17.992  49.927  49.173  1.00  0.00     0.113 C 
HETATM   22  C   UNL     1      18.686  48.609  49.340  1.00  0.00     0.231 C 
HETATM   23  O   UNL     1      18.768  48.070  50.436  1.00  0.00    -0.273 OA
ENDBRANCH  13  17
ENDBRANCH   8  11
ENDBRANCH   4   7
BRANCH   1  24
HETATM   24  C   UNL     1      27.630  44.847  53.486  1.00  0.00     0.139 A 
HETATM   25  N   UNL     1      27.826  45.757  54.502  1.00  0.00    -0.338 N 
HETATM   26  C   UNL     1      28.862  45.332  55.290  1.00  0.00     0.063 A 
HETATM   27  H   UNL     1      27.261  46.574  54.673  1.00  0.00     0.167 HD
HETATM   28  C   UNL     1      29.280  44.152  54.690  1.00  0.00     0.086 A 
HETATM   29  C   UNL     1      29.440  45.855  56.446  1.00  0.00     0.032 A 
HETATM   30  C   UNL     1      30.347  43.439  55.257  1.00  0.00     0.040 A 
HETATM   31  N   UNL     1      28.512  43.867  53.585  1.00  0.00    -0.228 NA
HETATM   32  C   UNL     1      30.964  43.939  56.418  1.00  0.00    -0.060 A 
HETATM   33  C   UNL     1      32.087  43.183  57.067  1.00  0.00     0.048 C 
HETATM   34  C   UNL     1      30.500  45.128  57.001  1.00  0.00     0.009 A 
ENDBRANCH   1  24
TORSDOF 4
ENDMDL
MODEL 9
REMARK VINA RESULT:      -9.6      5.525     12.454
REMARK  4 active torsions:
REMARK  status: ('A' for Active; 'I' for Inactive)
REMARK    1  A    between atoms: C_8  and  C_9 
REMARK    2  A    between atoms: C_12  and  N_13 
REMARK       I    between atoms: N_13  and  C_14 
REMARK    3  A    between atoms: C_14  and  C_15 
REMARK    4  A    between atoms: C_17  and  N_18 
ROOT
HETATM    1  C   UNL     1      26.851  44.838  52.505  1.00  0.00     0.010 A 
HETATM    2  C   UNL     1      27.262  44.965  51.173  1.00  0.00     0.017 A 
HETATM    3  C   UNL     1      26.342  45.272  50.163  1.00  0.00     0.030 A 
HETATM    4  C   UNL     1      24.992  45.456  50.459  1.00  0.00     0.035 A 
HETATM    5  C   UNL     1      24.563  45.254  51.775  1.00  0.00     0.030 A 
HETATM    6  C   UNL     1      25.483  44.951  52.787  1.00  0.00     0.017 A 
ENDROOT
BRANCH   4   7
HETATM    7  N   UNL     1      24.034  45.888  49.513  1.00  0.00    -0.323 N 
HETATM    8  C   UNL     1      23.550  47.177  49.375  1.00  0.00     0.256 C 
HETATM    9  O   UNL     1      23.940  48.185  49.952  1.00  0.00    -0.267 OA
HETATM   10  H   UNL     1      23.548  45.155  49.011  1.00  0.00     0.169 HD
BRANCH   8  11
HETATM   11  C   UNL     1      22.362  47.310  48.495  1.00  0.00     0.034 A 
HETATM   12  C   UNL     1      21.946  46.271  47.646  1.00  0.00     0.047 A 
HETATM   13  C   UNL     1      20.820  46.421  46.814  1.00  0.00     0.046 A 
HETATM   14  C   UNL     1      20.132  47.647  46.882  1.00  0.00     0.030 A 
HETATM   15  C   UNL     1      20.551  48.686  47.721  1.00  0.00     0.003 A 
HETATM   16  C   UNL     1      21.672  48.522  48.521  1.00  0.00     0.017 A 
BRANCH  13  17
HETATM   17  N   UNL     1      20.397  45.381  45.925  1.00  0.00    -0.252 N 
HETATM   18  C   UNL     1      19.527  44.366  46.266  1.00  0.00     0.231 C 
HETATM   19  O   UNL     1      18.872  44.221  47.290  1.00  0.00    -0.273 OA
HETATM   20  C   UNL     1      19.470  43.374  45.145  1.00  0.00     0.113 C 
HETATM   21  C   UNL     1      20.044  44.126  43.975  1.00  0.00     0.113 C 
HETATM   22  C   UNL     1      20.795  45.258  44.609  1.00  0.00     0.231 C 
HETATM   23  O   UNL     1      21.603  45.919  43.971  1.00  0.00    -0.273 OA
ENDBRANCH  13  17
ENDBRANCH   8  11
ENDBRANCH   4   7
BRANCH   1  24
HETATM   24  C   UNL     1      27.808  44.639  53.598  1.00  0.00     0.139 A 
HETATM   25  N   UNL     1      28.730  43.614  53.624  1.00  0.00    -0.338 N 
HETATM   26  C   UNL     1      29.534  43.763  54.722  1.00  0.00     0.063 A 
HETATM   27  H   UNL     1      28.834  42.904  52.916  1.00  0.00     0.167 HD
HETATM   28  C   UNL     1      29.039  44.897  55.351  1.00  0.00     0.086 A 
HETATM   29  C   UNL     1      30.623  43.032  55.195  1.00  0.00     0.032 A 
HETATM   30  C   UNL     1      29.650  45.343  56.533  1.00  0.00     0.040 A 
HETATM   31  N   UNL     1      27.982  45.424  54.647  1.00  0.00    -0.228 NA
HETATM   32  C   UNL     1      30.746  44.627  57.049  1.00  0.00    -0.060 A 
HETATM   33  C   UNL     1      31.441  45.096  58.294  1.00  0.00     0.048 C 
HETATM   34  C   UNL     1      31.223  43.494  56.372  1.00  0.00     0.009 A 
ENDBRANCH   1  24
TORSDOF 4
ENDMDL
MODEL 10
REMARK VINA RESULT:      -9.3      4.764     12.158
REMARK  4 active torsions:
REMARK  status: ('A' for Active; 'I' for Inactive)
REMARK    1  A    between atoms: C_8  and  C_9 
REMARK    2  A    between atoms: C_12  and  N_13 
REMARK       I    between atoms: N_13  and  C_14 
REMARK    3  A    between atoms: C_14  and  C_15 
REMARK    4  A    between atoms: C_17  and  N_18 
ROOT
HETATM    1  C   UNL     1      25.876  45.398  51.748  1.00  0.00     0.010 A 
HETATM    2  C   UNL     1      24.871  44.595  51.195  1.00  0.00     0.017 A 
HETATM    3  C   UNL     1      23.888  45.145  50.362  1.00  0.00     0.030 A 
HETATM    4  C   UNL     1      23.884  46.507  50.065  1.00  0.00     0.035 A 
HETATM    5  C   UNL     1      24.838  47.327  50.677  1.00  0.00     0.030 A 
HETATM    6  C   UNL     1      25.825  46.777  51.506  1.00  0.00     0.017 A 
ENDROOT
BRANCH   4   7
HETATM    7  N   UNL     1      23.000  47.105  49.138  1.00  0.00    -0.323 N 
HETATM    8  C   UNL     1      22.648  48.442  49.093  1.00  0.00     0.256 C 
HETATM    9  O   UNL     1      23.118  49.358  49.759  1.00  0.00    -0.267 OA
HETATM   10  H   UNL     1      22.460  46.464  48.567  1.00  0.00     0.169 HD
BRANCH   8  11
HETATM   11  C   UNL     1      21.505  48.760  48.202  1.00  0.00     0.034 A 
HETATM   12  C   UNL     1      20.743  47.756  47.583  1.00  0.00     0.047 A 
HETATM   13  C   UNL     1      19.667  48.082  46.735  1.00  0.00     0.046 A 
HETATM   14  C   UNL     1      19.388  49.448  46.548  1.00  0.00     0.030 A 
HETATM   15  C   UNL     1      20.153  50.450  47.158  1.00  0.00     0.003 A 
HETATM   16  C   UNL     1      21.217  50.107  47.978  1.00  0.00     0.017 A 
BRANCH  13  17
HETATM   17  N   UNL     1      18.896  47.070  46.077  1.00  0.00    -0.252 N 
HETATM   18  C   UNL     1      17.627  46.684  46.454  1.00  0.00     0.231 C 
HETATM   19  O   UNL     1      16.886  47.180  47.293  1.00  0.00    -0.273 OA
HETATM   20  C   UNL     1      17.222  45.484  45.654  1.00  0.00     0.113 C 
HETATM   21  C   UNL     1      18.187  45.485  44.499  1.00  0.00     0.113 C 
HETATM   22  C   UNL     1      19.313  46.352  44.973  1.00  0.00     0.231 C 
HETATM   23  O   UNL     1      20.393  46.363  44.396  1.00  0.00    -0.273 OA
ENDBRANCH  13  17
ENDBRANCH   8  11
ENDBRANCH   4   7
BRANCH   1  24
HETATM   24  C   UNL     1      26.985  44.832  52.521  1.00  0.00     0.139 A 
HETATM   25  N   UNL     1      27.858  43.890  52.020  1.00  0.00    -0.338 N 
HETATM   26  C   UNL     1      28.831  43.642  52.951  1.00  0.00     0.063 A 
HETATM   27  H   UNL     1      27.820  43.490  51.095  1.00  0.00     0.167 HD
HETATM   28  C   UNL     1      28.489  44.455  54.022  1.00  0.00     0.086 A 
HETATM   29  C   UNL     1      29.952  42.812  52.940  1.00  0.00     0.032 A 
HETATM   30  C   UNL     1      29.297  44.449  55.169  1.00  0.00     0.040 A 
HETATM   31  N   UNL     1      27.355  45.181  53.741  1.00  0.00    -0.228 NA
HETATM   32  C   UNL     1      30.432  43.617  55.202  1.00  0.00    -0.060 A 
HETATM   33  C   UNL     1      31.334  43.612  56.402  1.00  0.00     0.048 C 
HETATM   34  C   UNL     1      30.750  42.822  54.090  1.00  0.00     0.009 A 
ENDBRANCH   1  24
TORSDOF 4
ENDMDL
