MODEL 1
REMARK VINA RESULT:      -9.8      0.000      0.000
REMARK  7 active torsions:
REMARK  status: ('A' for Active; 'I' for Inactive)
REMARK    1  A    between atoms: C_2  and  C_3 
REMARK    2  A    between atoms: C_2  and  C_9 
REMARK    3  A    between atoms: C_9  and  C_10 
REMARK       I    between atoms: C_10  and  N_11 
REMARK    4  A    between atoms: N_11  and  N_12 
REMARK       I    between atoms: N_12  and  C_13 
REMARK    5  A    between atoms: C_13  and  C_14 
REMARK    6  A    between atoms: C_18  and  C_19 
REMARK    7  A    between atoms: C_22  and  O_23 
ROOT
HETATM    1  N   UNL     1      26.192  45.691  51.633  1.00  0.00    -0.262 N 
HETATM    2  C   UNL     1      26.349  46.049  50.312  1.00  0.00     0.288 C 
HETATM    3  O   UNL     1      27.130  45.461  49.566  1.00  0.00    -0.264 OA
HETATM    4  H   UNL     1      25.586  46.183  52.287  1.00  0.00     0.190 HD
ENDROOT
BRANCH   2   5
HETATM    5  C   UNL     1      25.529  47.146  49.878  1.00  0.00     0.121 A 
HETATM    6  N   UNL     1      26.058  48.333  49.461  1.00  0.00    -0.272 N 
HETATM    7  H   UNL     1      27.042  48.582  49.418  1.00  0.00     0.189 HD
HETATM    8  N   UNL     1      25.146  49.229  49.051  1.00  0.00    -0.174 NA
HETATM    9  C   UNL     1      23.964  48.619  49.235  1.00  0.00     0.089 A 
HETATM   10  C   UNL     1      24.163  47.310  49.754  1.00  0.00     0.071 A 
BRANCH   9  11
HETATM   11  C   UNL     1      22.693  49.263  48.901  1.00  0.00    -0.005 A 
HETATM   12  C   UNL     1      22.618  50.651  48.727  1.00  0.00     0.016 A 
HETATM   13  C   UNL     1      21.410  51.259  48.367  1.00  0.00     0.037 A 
HETATM   14  C   UNL     1      20.257  50.495  48.177  1.00  0.00     0.068 A 
HETATM   15  C   UNL     1      20.316  49.117  48.369  1.00  0.00     0.037 A 
HETATM   16  C   UNL     1      21.525  48.505  48.728  1.00  0.00     0.016 A 
BRANCH  14  17
HETATM   17  O   UNL     1      19.148  51.209  47.814  1.00  0.00    -0.356 OA
HETATM   18  C   UNL     1      18.932  52.443  48.486  1.00  0.00     0.210 C 
ENDBRANCH  14  17
ENDBRANCH   9  11
ENDBRANCH   2   5
BRANCH   1  19
HETATM   19  N   UNL     1      26.944  44.641  52.166  1.00  0.00    -0.267 N 
HETATM   20  C   UNL     1      27.162  44.654  53.526  1.00  0.00     0.236 C 
HETATM   21  O   UNL     1      26.601  45.463  54.269  1.00  0.00    -0.272 OA
HETATM   22  H   UNL     1      27.499  44.102  51.506  1.00  0.00     0.190 HD
BRANCH  20  23
HETATM   23  C   UNL     1      28.039  43.543  54.067  1.00  0.00     0.113 C 
BRANCH  23  24
HETATM   24  C   UNL     1      29.548  43.836  54.053  1.00  0.00     0.023 C 
HETATM   25  C   UNL     1      30.300  42.683  53.378  1.00  0.00     0.015 C 
BRANCH  24  26
HETATM   26  C   UNL     1      30.126  44.105  55.431  1.00  0.00    -0.054 A 
HETATM   27  C   UNL     1      29.791  45.255  56.163  1.00  0.00     0.007 A 
HETATM   28  C   UNL     1      30.341  45.481  57.426  1.00  0.00     0.001 A 
HETATM   29  C   UNL     1      31.228  44.559  57.977  1.00  0.00     0.000 A 
HETATM   30  C   UNL     1      31.566  43.411  57.266  1.00  0.00     0.001 A 
HETATM   31  C   UNL     1      31.019  43.184  56.002  1.00  0.00     0.007 A 
ENDBRANCH  24  26
ENDBRANCH  23  24
ENDBRANCH  20  23
ENDBRANCH   1  19
TORSDOF 7
ENDMDL
MODEL 2
REMARK VINA RESULT:      -9.4      2.276     11.140
REMARK  7 active torsions:
REMARK  status: ('A' for Active; 'I' for Inactive)
REMARK    1  A    between atoms: C_2  and  C_3 
REMARK    2  A    between atoms: C_2  and  C_9 
REMARK    3  A    between atoms: C_9  and  C_10 
REMARK       I    between atoms: C_10  and  N_11 
REMARK    4  A    between atoms: N_11  and  N_12 
REMARK       I    between atoms: N_12  and  C_13 
REMARK    5  A    between atoms: C_13  and  C_14 
REMARK    6  A    between atoms: C_18  and  C_19 
REMARK    7  A    between atoms: C_22  and  O_23 
ROOT
HETATM    1  N   UNL     1      24.375  46.024  50.394  1.00  0.00    -0.262 N 
HETATM    2  C   UNL     1      24.228  44.742  50.874  1.00  0.00     0.288 C 
HETATM    3  O   UNL     1      23.248  44.050  50.601  1.00  0.00    -0.264 OA
HETATM    4  H   UNL     1      25.152  46.635  50.633  1.00  0.00     0.190 HD
ENDROOT
BRANCH   2   5
HETATM    5  C   UNL     1      25.306  44.277  51.704  1.00  0.00     0.121 A 
HETATM    6  N   UNL     1      25.697  42.969  51.728  1.00  0.00    -0.272 N 
HETATM    7  H   UNL     1      25.291  42.200  51.203  1.00  0.00     0.189 HD
HETATM    8  N   UNL     1      26.747  42.722  52.527  1.00  0.00    -0.174 NA
HETATM    9  C   UNL     1      27.041  43.911  53.077  1.00  0.00     0.089 A 
HETATM   10  C   UNL     1      26.158  44.912  52.585  1.00  0.00     0.071 A 
BRANCH   9  11
HETATM   11  C   UNL     1      28.147  44.083  54.021  1.00  0.00    -0.005 A 
HETATM   12  C   UNL     1      29.148  43.110  54.133  1.00  0.00     0.016 A 
HETATM   13  C   UNL     1      30.227  43.296  55.006  1.00  0.00     0.037 A 
HETATM   14  C   UNL     1      30.324  44.452  55.783  1.00  0.00     0.068 A 
HETATM   15  C   UNL     1      29.321  45.415  55.694  1.00  0.00     0.037 A 
HETATM   16  C   UNL     1      28.241  45.232  54.819  1.00  0.00     0.016 A 
BRANCH  14  17
HETATM   17  O   UNL     1      31.431  44.516  56.583  1.00  0.00    -0.356 OA
HETATM   18  C   UNL     1      31.834  43.309  57.218  1.00  0.00     0.210 C 
ENDBRANCH  14  17
ENDBRANCH   9  11
ENDBRANCH   2   5
BRANCH   1  19
HETATM   19  N   UNL     1      23.384  46.582  49.581  1.00  0.00    -0.267 N 
HETATM   20  C   UNL     1      23.408  47.949  49.415  1.00  0.00     0.236 C 
HETATM   21  O   UNL     1      24.339  48.641  49.833  1.00  0.00    -0.272 OA
HETATM   22  H   UNL     1      22.572  46.000  49.395  1.00  0.00     0.190 HD
BRANCH  20  23
HETATM   23  C   UNL     1      22.281  48.535  48.588  1.00  0.00     0.113 C 
BRANCH  23  24
HETATM   24  C   UNL     1      20.890  48.469  49.238  1.00  0.00     0.023 C 
HETATM   25  C   UNL     1      20.049  47.376  48.566  1.00  0.00     0.015 C 
BRANCH  24  26
HETATM   26  C   UNL     1      20.146  49.792  49.217  1.00  0.00    -0.054 A 
HETATM   27  C   UNL     1      20.587  50.877  48.442  1.00  0.00     0.007 A 
HETATM   28  C   UNL     1      19.886  52.084  48.444  1.00  0.00     0.001 A 
HETATM   29  C   UNL     1      18.735  52.224  49.215  1.00  0.00     0.000 A 
HETATM   30  C   UNL     1      18.282  51.155  49.983  1.00  0.00     0.001 A 
HETATM   31  C   UNL     1      18.981  49.947  49.984  1.00  0.00     0.007 A 
ENDBRANCH  24  26
ENDBRANCH  23  24
ENDBRANCH  20  23
ENDBRANCH   1  19
TORSDOF 7
ENDMDL
MODEL 3
REMARK VINA RESULT:      -9.4      1.522      2.555
REMARK  7 active torsions:
REMARK  status: ('A' for Active; 'I' for Inactive)
REMARK    1  A    between atoms: C_2  and  C_3 
REMARK    2  A    between atoms: C_2  and  C_9 
REMARK    3  A    between atoms: C_9  and  C_10 
REMARK       I    between atoms: C_10  and  N_11 
REMARK    4  A    between atoms: N_11  and  N_12 
REMARK       I    between atoms: N_12  and  C_13 
REMARK    5  A    between atoms: C_13  and  C_14 
REMARK    6  A    between atoms: C_18  and  C_19 
REMARK    7  A    between atoms: C_22  and  O_23 
ROOT
HETATM    1  N   UNL     1      25.389  47.488  50.469  1.00  0.00    -0.262 N 
HETATM    2  C   UNL     1      25.731  48.274  49.391  1.00  0.00     0.288 C 
HETATM    3  O   UNL     1      26.875  48.301  48.940  1.00  0.00    -0.264 OA
HETATM    4  H   UNL     1      24.463  47.473  50.891  1.00  0.00     0.190 HD
ENDROOT
BRANCH   2   5
HETATM    5  C   UNL     1      24.652  49.042  48.833  1.00  0.00     0.121 A 
HETATM    6  N   UNL     1      24.832  49.901  47.787  1.00  0.00    -0.272 N 
HETATM    7  H   UNL     1      25.703  50.104  47.306  1.00  0.00     0.189 HD
HETATM    8  N   UNL     1      23.707  50.502  47.368  1.00  0.00    -0.174 NA
HETATM    9  C   UNL     1      22.751  50.044  48.192  1.00  0.00     0.089 A 
HETATM   10  C   UNL     1      23.305  49.126  49.126  1.00  0.00     0.071 A 
BRANCH   9  11
HETATM   11  C   UNL     1      21.351  50.456  48.069  1.00  0.00    -0.005 A 
HETATM   12  C   UNL     1      20.863  51.555  48.787  1.00  0.00     0.016 A 
HETATM   13  C   UNL     1      19.536  51.972  48.636  1.00  0.00     0.037 A 
HETATM   14  C   UNL     1      18.672  51.300  47.770  1.00  0.00     0.068 A 
HETATM   15  C   UNL     1      19.142  50.192  47.067  1.00  0.00     0.037 A 
HETATM   16  C   UNL     1      20.472  49.774  47.215  1.00  0.00     0.016 A 
BRANCH  14  17
HETATM   17  O   UNL     1      17.407  51.816  47.704  1.00  0.00    -0.356 OA
HETATM   18  C   UNL     1      16.870  52.352  48.906  1.00  0.00     0.210 C 
ENDBRANCH  14  17
ENDBRANCH   9  11
ENDBRANCH   2   5
BRANCH   1  19
HETATM   19  N   UNL     1      26.360  46.703  51.096  1.00  0.00    -0.267 N 
HETATM   20  C   UNL     1      25.914  45.716  51.948  1.00  0.00     0.236 C 
HETATM   21  O   UNL     1      24.718  45.431  52.046  1.00  0.00    -0.272 OA
HETATM   22  H   UNL     1      27.307  47.074  51.101  1.00  0.00     0.190 HD
BRANCH  20  23
HETATM   23  C   UNL     1      26.989  44.927  52.668  1.00  0.00     0.113 C 
BRANCH  23  24
HETATM   24  C   UNL     1      27.156  45.261  54.159  1.00  0.00     0.023 C 
HETATM   25  C   UNL     1      26.985  46.769  54.381  1.00  0.00     0.015 C 
BRANCH  24  26
HETATM   26  C   UNL     1      28.478  44.791  54.741  1.00  0.00    -0.054 A 
HETATM   27  C   UNL     1      29.048  43.559  54.383  1.00  0.00     0.007 A 
HETATM   28  C   UNL     1      30.263  43.150  54.937  1.00  0.00     0.001 A 
HETATM   29  C   UNL     1      30.926  43.966  55.850  1.00  0.00     0.000 A 
HETATM   30  C   UNL     1      30.376  45.193  56.210  1.00  0.00     0.001 A 
HETATM   31  C   UNL     1      29.161  45.604  55.659  1.00  0.00     0.007 A 
ENDBRANCH  24  26
ENDBRANCH  23  24
ENDBRANCH  20  23
ENDBRANCH   1  19
TORSDOF 7
ENDMDL
MODEL 4
REMARK VINA RESULT:      -9.2      2.119     11.308
REMARK  7 active torsions:
REMARK  status: ('A' for Active; 'I' for Inactive)
REMARK    1  A    between atoms: C_2  and  C_3 
REMARK    2  A    between atoms: C_2  and  C_9 
REMARK    3  A    between atoms: C_9  and  C_10 
REMARK       I    between atoms: C_10  and  N_11 
REMARK    4  A    between atoms: N_11  and  N_12 
REMARK       I    between atoms: N_12  and  C_13 
REMARK    5  A    between atoms: C_13  and  C_14 
REMARK    6  A    between atoms: C_18  and  C_19 
REMARK    7  A    between atoms: C_22  and  O_23 
ROOT
HETATM    1  N   UNL     1      23.826  47.402  50.364  1.00  0.00    -0.262 N 
HETATM    2  C   UNL     1      24.215  46.118  50.053  1.00  0.00     0.288 C 
HETATM    3  O   UNL     1      23.930  45.591  48.980  1.00  0.00    -0.264 OA
HETATM    4  H   UNL     1      24.010  47.851  51.258  1.00  0.00     0.190 HD
ENDROOT
BRANCH   2   5
HETATM    5  C   UNL     1      24.985  45.454  51.070  1.00  0.00     0.121 A 
HETATM    6  N   UNL     1      24.424  44.575  51.952  1.00  0.00    -0.272 N 
HETATM    7  H   UNL     1      23.447  44.304  52.007  1.00  0.00     0.189 HD
HETATM    8  N   UNL     1      25.299  44.017  52.804  1.00  0.00    -0.174 NA
HETATM    9  C   UNL     1      26.480  44.574  52.492  1.00  0.00     0.089 A 
HETATM   10  C   UNL     1      26.323  45.482  51.408  1.00  0.00     0.071 A 
BRANCH   9  11
HETATM   11  C   UNL     1      27.717  44.227  53.193  1.00  0.00    -0.005 A 
HETATM   12  C   UNL     1      28.030  44.816  54.425  1.00  0.00     0.016 A 
HETATM   13  C   UNL     1      29.193  44.451  55.113  1.00  0.00     0.037 A 
HETATM   14  C   UNL     1      30.064  43.497  54.584  1.00  0.00     0.068 A 
HETATM   15  C   UNL     1      29.773  42.922  53.349  1.00  0.00     0.037 A 
HETATM   16  C   UNL     1      28.608  43.284  52.659  1.00  0.00     0.016 A 
BRANCH  14  17
HETATM   17  O   UNL     1      31.155  43.222  55.361  1.00  0.00    -0.356 OA
HETATM   18  C   UNL     1      31.225  43.874  56.623  1.00  0.00     0.210 C 
ENDBRANCH  14  17
ENDBRANCH   9  11
ENDBRANCH   2   5
BRANCH   1  19
HETATM   19  N   UNL     1      23.068  48.141  49.452  1.00  0.00    -0.267 N 
HETATM   20  C   UNL     1      23.632  49.297  48.961  1.00  0.00     0.236 C 
HETATM   21  O   UNL     1      24.805  49.599  49.191  1.00  0.00    -0.272 OA
HETATM   22  H   UNL     1      22.072  47.935  49.420  1.00  0.00     0.190 HD
BRANCH  20  23
HETATM   23  C   UNL     1      22.761  50.116  48.029  1.00  0.00     0.113 C 
BRANCH  23  24
HETATM   24  C   UNL     1      21.887  51.177  48.716  1.00  0.00     0.023 C 
HETATM   25  C   UNL     1      21.846  50.925  50.228  1.00  0.00     0.015 C 
BRANCH  24  26
HETATM   26  C   UNL     1      20.476  51.255  48.158  1.00  0.00    -0.054 A 
HETATM   27  C   UNL     1      19.553  52.211  48.611  1.00  0.00     0.007 A 
HETATM   28  C   UNL     1      18.261  52.258  48.083  1.00  0.00     0.001 A 
HETATM   29  C   UNL     1      17.876  51.356  47.095  1.00  0.00     0.000 A 
HETATM   30  C   UNL     1      18.782  50.406  46.632  1.00  0.00     0.001 A 
HETATM   31  C   UNL     1      20.074  50.356  47.159  1.00  0.00     0.007 A 
ENDBRANCH  24  26
ENDBRANCH  23  24
ENDBRANCH  20  23
ENDBRANCH   1  19
TORSDOF 7
ENDMDL
MODEL 5
REMARK VINA RESULT:      -9.1      1.903      3.087
REMARK  7 active torsions:
REMARK  status: ('A' for Active; 'I' for Inactive)
REMARK    1  A    between atoms: C_2  and  C_3 
REMARK    2  A    between atoms: C_2  and  C_9 
REMARK    3  A    between atoms: C_9  and  C_10 
REMARK       I    between atoms: C_10  and  N_11 
REMARK    4  A    between atoms: N_11  and  N_12 
REMARK       I    between atoms: N_12  and  C_13 
REMARK    5  A    between atoms: C_13  and  C_14 
REMARK    6  A    between atoms: C_18  and  C_19 
REMARK    7  A    between atoms: C_22  and  O_23 
ROOT
HETATM    1  N   UNL     1      24.425  46.974  50.392  1.00  0.00    -0.262 N 
HETATM    2  C   UNL     1      24.943  48.005  49.640  1.00  0.00     0.288 C 
HETATM    3  O   UNL     1      26.154  48.187  49.528  1.00  0.00    -0.264 OA
HETATM    4  H   UNL     1      23.430  46.821  50.537  1.00  0.00     0.190 HD
ENDROOT
BRANCH   2   5
HETATM    5  C   UNL     1      23.965  48.837  48.995  1.00  0.00     0.121 A 
HETATM    6  N   UNL     1      24.275  49.644  47.938  1.00  0.00    -0.272 N 
HETATM    7  H   UNL     1      25.188  49.761  47.506  1.00  0.00     0.189 HD
HETATM    8  N   UNL     1      23.230  50.317  47.433  1.00  0.00    -0.174 NA
HETATM    9  C   UNL     1      22.192  49.965  48.209  1.00  0.00     0.089 A 
HETATM   10  C   UNL     1      22.614  49.037  49.201  1.00  0.00     0.071 A 
BRANCH   9  11
HETATM   11  C   UNL     1      20.840  50.482  47.988  1.00  0.00    -0.005 A 
HETATM   12  C   UNL     1      20.418  51.665  48.606  1.00  0.00     0.016 A 
HETATM   13  C   UNL     1      19.139  52.179  48.360  1.00  0.00     0.037 A 
HETATM   14  C   UNL     1      18.261  51.522  47.497  1.00  0.00     0.068 A 
HETATM   15  C   UNL     1      18.664  50.332  46.895  1.00  0.00     0.037 A 
HETATM   16  C   UNL     1      19.945  49.816  47.138  1.00  0.00     0.016 A 
BRANCH  14  17
HETATM   17  O   UNL     1      17.049  52.135  47.333  1.00  0.00    -0.356 OA
HETATM   18  C   UNL     1      16.241  52.278  48.494  1.00  0.00     0.210 C 
ENDBRANCH  14  17
ENDBRANCH   9  11
ENDBRANCH   2   5
BRANCH   1  19
HETATM   19  N   UNL     1      25.284  46.104  51.069  1.00  0.00    -0.267 N 
HETATM   20  C   UNL     1      24.763  44.893  51.467  1.00  0.00     0.236 C 
HETATM   21  O   UNL     1      23.641  44.520  51.118  1.00  0.00    -0.272 OA
HETATM   22  H   UNL     1      26.129  46.516  51.458  1.00  0.00     0.190 HD
BRANCH  20  23
HETATM   23  C   UNL     1      25.695  44.000  52.261  1.00  0.00     0.113 C 
BRANCH  23  24
HETATM   24  C   UNL     1      27.114  43.862  51.688  1.00  0.00     0.023 C 
HETATM   25  C   UNL     1      27.178  42.669  50.726  1.00  0.00     0.015 C 
BRANCH  24  26
HETATM   26  C   UNL     1      28.189  43.736  52.753  1.00  0.00    -0.054 A 
HETATM   27  C   UNL     1      29.316  42.919  52.575  1.00  0.00     0.007 A 
HETATM   28  C   UNL     1      30.287  42.818  53.572  1.00  0.00     0.001 A 
HETATM   29  C   UNL     1      30.150  43.535  54.758  1.00  0.00     0.000 A 
HETATM   30  C   UNL     1      29.041  44.355  54.947  1.00  0.00     0.001 A 
HETATM   31  C   UNL     1      28.067  44.456  53.952  1.00  0.00     0.007 A 
ENDBRANCH  24  26
ENDBRANCH  23  24
ENDBRANCH  20  23
ENDBRANCH   1  19
TORSDOF 7
ENDMDL
MODEL 6
REMARK VINA RESULT:      -9.1      1.871      2.944
REMARK  7 active torsions:
REMARK  status: ('A' for Active; 'I' for Inactive)
REMARK    1  A    between atoms: C_2  and  C_3 
REMARK    2  A    between atoms: C_2  and  C_9 
REMARK    3  A    between atoms: C_9  and  C_10 
REMARK       I    between atoms: C_10  and  N_11 
REMARK    4  A    between atoms: N_11  and  N_12 
REMARK       I    between atoms: N_12  and  C_13 
REMARK    5  A    between atoms: C_13  and  C_14 
REMARK    6  A    between atoms: C_18  and  C_19 
REMARK    7  A    between atoms: C_22  and  O_23 
ROOT
HETATM    1  N   UNL     1      25.058  47.142  51.505  1.00  0.00    -0.262 N 
HETATM    2  C   UNL     1      25.106  47.660  50.230  1.00  0.00     0.288 C 
HETATM    3  O   UNL     1      26.170  47.859  49.646  1.00  0.00    -0.264 OA
HETATM    4  H   UNL     1      24.198  47.004  52.031  1.00  0.00     0.190 HD
ENDROOT
BRANCH   2   5
HETATM    5  C   UNL     1      23.826  47.937  49.638  1.00  0.00     0.121 A 
HETATM    6  N   UNL     1      22.954  46.946  49.289  1.00  0.00    -0.272 N 
HETATM    7  H   UNL     1      23.096  45.944  49.387  1.00  0.00     0.189 HD
HETATM    8  N   UNL     1      21.789  47.388  48.789  1.00  0.00    -0.174 NA
HETATM    9  C   UNL     1      21.910  48.725  48.779  1.00  0.00     0.089 A 
HETATM   10  C   UNL     1      23.176  49.108  49.304  1.00  0.00     0.071 A 
BRANCH   9  11
HETATM   11  C   UNL     1      20.838  49.603  48.305  1.00  0.00    -0.005 A 
HETATM   12  C   UNL     1      20.722  50.913  48.786  1.00  0.00     0.016 A 
HETATM   13  C   UNL     1      19.722  51.763  48.301  1.00  0.00     0.037 A 
HETATM   14  C   UNL     1      18.820  51.322  47.332  1.00  0.00     0.068 A 
HETATM   15  C   UNL     1      18.913  50.013  46.864  1.00  0.00     0.037 A 
HETATM   16  C   UNL     1      19.915  49.160  47.347  1.00  0.00     0.016 A 
BRANCH  14  17
HETATM   17  O   UNL     1      17.901  52.254  46.934  1.00  0.00    -0.356 OA
HETATM   18  C   UNL     1      17.331  52.081  45.642  1.00  0.00     0.210 C 
ENDBRANCH  14  17
ENDBRANCH   9  11
ENDBRANCH   2   5
BRANCH   1  19
HETATM   19  N   UNL     1      26.243  46.841  52.182  1.00  0.00    -0.267 N 
HETATM   20  C   UNL     1      26.379  47.337  53.459  1.00  0.00     0.236 C 
HETATM   21  O   UNL     1      25.447  47.893  54.045  1.00  0.00    -0.272 OA
HETATM   22  H   UNL     1      27.021  46.522  51.609  1.00  0.00     0.190 HD
BRANCH  20  23
HETATM   23  C   UNL     1      27.702  47.056  54.142  1.00  0.00     0.113 C 
BRANCH  23  24
HETATM   24  C   UNL     1      27.742  45.772  54.986  1.00  0.00     0.023 C 
HETATM   25  C   UNL     1      28.216  46.094  56.409  1.00  0.00     0.015 C 
BRANCH  24  26
HETATM   26  C   UNL     1      28.600  44.674  54.382  1.00  0.00    -0.054 A 
HETATM   27  C   UNL     1      28.324  44.131  53.118  1.00  0.00     0.007 A 
HETATM   28  C   UNL     1      29.127  43.119  52.587  1.00  0.00     0.001 A 
HETATM   29  C   UNL     1      30.218  42.641  53.309  1.00  0.00     0.000 A 
HETATM   30  C   UNL     1      30.508  43.174  54.562  1.00  0.00     0.001 A 
HETATM   31  C   UNL     1      29.705  44.185  55.095  1.00  0.00     0.007 A 
ENDBRANCH  24  26
ENDBRANCH  23  24
ENDBRANCH  20  23
ENDBRANCH   1  19
TORSDOF 7
ENDMDL
MODEL 7
REMARK VINA RESULT:      -8.7      2.377     10.941
REMARK  7 active torsions:
REMARK  status: ('A' for Active; 'I' for Inactive)
REMARK    1  A    between atoms: C_2  and  C_3 
REMARK    2  A    between atoms: C_2  and  C_9 
REMARK    3  A    between atoms: C_9  and  C_10 
REMARK       I    between atoms: C_10  and  N_11 
REMARK    4  A    between atoms: N_11  and  N_12 
REMARK       I    between atoms: N_12  and  C_13 
REMARK    5  A    between atoms: C_13  and  C_14 
REMARK    6  A    between atoms: C_18  and  C_19 
REMARK    7  A    between atoms: C_22  and  O_23 
ROOT
HETATM    1  N   UNL     1      23.652  45.629  50.093  1.00  0.00    -0.262 N 
HETATM    2  C   UNL     1      24.648  46.328  50.739  1.00  0.00     0.288 C 
HETATM    3  O   UNL     1      24.675  47.558  50.757  1.00  0.00    -0.264 OA
HETATM    4  H   UNL     1      23.623  44.615  50.025  1.00  0.00     0.190 HD
ENDROOT
BRANCH   2   5
HETATM    5  C   UNL     1      25.636  45.515  51.391  1.00  0.00     0.121 A 
HETATM    6  N   UNL     1      25.917  44.241  50.985  1.00  0.00    -0.272 N 
HETATM    7  H   UNL     1      25.479  43.732  50.223  1.00  0.00     0.189 HD
HETATM    8  N   UNL     1      26.898  43.645  51.682  1.00  0.00    -0.174 NA
HETATM    9  C   UNL     1      27.257  44.551  52.605  1.00  0.00     0.089 A 
HETATM   10  C   UNL     1      26.487  45.737  52.455  1.00  0.00     0.071 A 
BRANCH   9  11
HETATM   11  C   UNL     1      28.320  44.293  53.580  1.00  0.00    -0.005 A 
HETATM   12  C   UNL     1      29.247  43.265  53.370  1.00  0.00     0.016 A 
HETATM   13  C   UNL     1      30.287  43.048  54.282  1.00  0.00     0.037 A 
HETATM   14  C   UNL     1      30.417  43.849  55.418  1.00  0.00     0.068 A 
HETATM   15  C   UNL     1      29.485  44.860  55.646  1.00  0.00     0.037 A 
HETATM   16  C   UNL     1      28.445  45.081  54.733  1.00  0.00     0.016 A 
BRANCH  14  17
HETATM   17  O   UNL     1      31.481  43.542  56.220  1.00  0.00    -0.356 OA
HETATM   18  C   UNL     1      31.412  43.978  57.572  1.00  0.00     0.210 C 
ENDBRANCH  14  17
ENDBRANCH   9  11
ENDBRANCH   2   5
BRANCH   1  19
HETATM   19  N   UNL     1      22.640  46.319  49.419  1.00  0.00    -0.267 N 
HETATM   20  C   UNL     1      21.665  45.560  48.809  1.00  0.00     0.236 C 
HETATM   21  O   UNL     1      21.594  44.340  48.968  1.00  0.00    -0.272 OA
HETATM   22  H   UNL     1      22.830  47.291  49.193  1.00  0.00     0.190 HD
BRANCH  20  23
HETATM   23  C   UNL     1      20.621  46.330  48.026  1.00  0.00     0.113 C 
BRANCH  23  24
HETATM   24  C   UNL     1      19.688  47.212  48.872  1.00  0.00     0.023 C 
HETATM   25  C   UNL     1      18.233  47.004  48.437  1.00  0.00     0.015 C 
BRANCH  24  26
HETATM   26  C   UNL     1      20.045  48.688  48.829  1.00  0.00    -0.054 A 
HETATM   27  C   UNL     1      19.696  49.563  49.869  1.00  0.00     0.007 A 
HETATM   28  C   UNL     1      20.033  50.917  49.802  1.00  0.00     0.001 A 
HETATM   29  C   UNL     1      20.724  51.412  48.699  1.00  0.00     0.000 A 
HETATM   30  C   UNL     1      21.081  50.555  47.663  1.00  0.00     0.001 A 
HETATM   31  C   UNL     1      20.745  49.201  47.726  1.00  0.00     0.007 A 
ENDBRANCH  24  26
ENDBRANCH  23  24
ENDBRANCH  20  23
ENDBRANCH   1  19
TORSDOF 7
ENDMDL
MODEL 8
REMARK VINA RESULT:      -8.4      2.451      3.314
REMARK  7 active torsions:
REMARK  status: ('A' for Active; 'I' for Inactive)
REMARK    1  A    between atoms: C_2  and  C_3 
REMARK    2  A    between atoms: C_2  and  C_9 
REMARK    3  A    between atoms: C_9  and  C_10 
REMARK       I    between atoms: C_10  and  N_11 
REMARK    4  A    between atoms: N_11  and  N_12 
REMARK       I    between atoms: N_12  and  C_13 
REMARK    5  A    between atoms: C_13  and  C_14 
REMARK    6  A    between atoms: C_18  and  C_19 
REMARK    7  A    between atoms: C_22  and  O_23 
ROOT
HETATM    1  N   UNL     1      24.325  46.777  50.421  1.00  0.00    -0.262 N 
HETATM    2  C   UNL     1      24.352  47.994  49.778  1.00  0.00     0.288 C 
HETATM    3  O   UNL     1      25.392  48.637  49.641  1.00  0.00    -0.264 OA
HETATM    4  H   UNL     1      23.477  46.240  50.586  1.00  0.00     0.190 HD
ENDROOT
BRANCH   2   5
HETATM    5  C   UNL     1      23.083  48.444  49.274  1.00  0.00     0.121 A 
HETATM    6  N   UNL     1      22.359  49.423  49.891  1.00  0.00    -0.272 N 
HETATM    7  H   UNL     1      22.604  49.921  50.742  1.00  0.00     0.189 HD
HETATM    8  N   UNL     1      21.219  49.746  49.259  1.00  0.00    -0.174 NA
HETATM    9  C   UNL     1      21.175  48.924  48.198  1.00  0.00     0.089 A 
HETATM   10  C   UNL     1      22.327  48.091  48.174  1.00  0.00     0.071 A 
BRANCH   9  11
HETATM   11  C   UNL     1      20.076  48.956  47.231  1.00  0.00    -0.005 A 
HETATM   12  C   UNL     1      19.475  50.169  46.872  1.00  0.00     0.016 A 
HETATM   13  C   UNL     1      18.454  50.202  45.916  1.00  0.00     0.037 A 
HETATM   14  C   UNL     1      18.013  49.027  45.303  1.00  0.00     0.068 A 
HETATM   15  C   UNL     1      18.590  47.813  45.670  1.00  0.00     0.037 A 
HETATM   16  C   UNL     1      19.614  47.778  46.626  1.00  0.00     0.016 A 
BRANCH  14  17
HETATM   17  O   UNL     1      17.020  49.198  44.378  1.00  0.00    -0.356 OA
HETATM   18  C   UNL     1      15.811  49.788  44.838  1.00  0.00     0.210 C 
ENDBRANCH  14  17
ENDBRANCH   9  11
ENDBRANCH   2   5
BRANCH   1  19
HETATM   19  N   UNL     1      25.501  46.244  50.956  1.00  0.00    -0.267 N 
HETATM   20  C   UNL     1      25.365  45.246  51.895  1.00  0.00     0.236 C 
HETATM   21  O   UNL     1      24.272  44.734  52.150  1.00  0.00    -0.272 OA
HETATM   22  H   UNL     1      26.345  46.797  50.830  1.00  0.00     0.190 HD
BRANCH  20  23
HETATM   23  C   UNL     1      26.652  44.736  52.511  1.00  0.00     0.113 C 
BRANCH  23  24
HETATM   24  C   UNL     1      26.790  44.969  54.024  1.00  0.00     0.023 C 
HETATM   25  C   UNL     1      26.459  46.427  54.363  1.00  0.00     0.015 C 
BRANCH  24  26
HETATM   26  C   UNL     1      28.157  44.599  54.573  1.00  0.00    -0.054 A 
HETATM   27  C   UNL     1      28.813  45.396  55.524  1.00  0.00     0.007 A 
HETATM   28  C   UNL     1      30.071  45.035  56.009  1.00  0.00     0.001 A 
HETATM   29  C   UNL     1      30.689  43.872  55.555  1.00  0.00     0.000 A 
HETATM   30  C   UNL     1      30.049  43.069  54.616  1.00  0.00     0.001 A 
HETATM   31  C   UNL     1      28.791  43.428  54.128  1.00  0.00     0.007 A 
ENDBRANCH  24  26
ENDBRANCH  23  24
ENDBRANCH  20  23
ENDBRANCH   1  19
TORSDOF 7
ENDMDL
MODEL 9
REMARK VINA RESULT:      -8.1      5.365      6.479
REMARK  7 active torsions:
REMARK  status: ('A' for Active; 'I' for Inactive)
REMARK    1  A    between atoms: C_2  and  C_3 
REMARK    2  A    between atoms: C_2  and  C_9 
REMARK    3  A    between atoms: C_9  and  C_10 
REMARK       I    between atoms: C_10  and  N_11 
REMARK    4  A    between atoms: N_11  and  N_12 
REMARK       I    between atoms: N_12  and  C_13 
REMARK    5  A    between atoms: C_13  and  C_14 
REMARK    6  A    between atoms: C_18  and  C_19 
REMARK    7  A    between atoms: C_22  and  O_23 
ROOT
HETATM    1  N   UNL     1      25.736  42.642  51.524  1.00  0.00    -0.262 N 
HETATM    2  C   UNL     1      24.647  43.340  51.052  1.00  0.00     0.288 C 
HETATM    3  O   UNL     1      24.154  44.280  51.673  1.00  0.00    -0.264 OA
HETATM    4  H   UNL     1      26.142  41.835  51.056  1.00  0.00     0.190 HD
ENDROOT
BRANCH   2   5
HETATM    5  C   UNL     1      24.143  42.892  49.782  1.00  0.00     0.121 A 
HETATM    6  N   UNL     1      24.819  43.100  48.614  1.00  0.00    -0.272 N 
HETATM    7  H   UNL     1      25.707  43.581  48.499  1.00  0.00     0.189 HD
HETATM    8  N   UNL     1      24.222  42.577  47.532  1.00  0.00    -0.174 NA
HETATM    9  C   UNL     1      23.090  42.029  48.000  1.00  0.00     0.089 A 
HETATM   10  C   UNL     1      23.005  42.207  49.409  1.00  0.00     0.071 A 
BRANCH   9  11
HETATM   11  C   UNL     1      22.138  41.337  47.129  1.00  0.00    -0.005 A 
HETATM   12  C   UNL     1      21.889  39.969  47.286  1.00  0.00     0.016 A 
HETATM   13  C   UNL     1      20.948  39.319  46.480  1.00  0.00     0.037 A 
HETATM   14  C   UNL     1      20.242  40.021  45.501  1.00  0.00     0.068 A 
HETATM   15  C   UNL     1      20.500  41.379  45.321  1.00  0.00     0.037 A 
HETATM   16  C   UNL     1      21.440  42.032  46.130  1.00  0.00     0.016 A 
BRANCH  14  17
HETATM   17  O   UNL     1      19.344  39.273  44.791  1.00  0.00    -0.356 OA
HETATM   18  C   UNL     1      18.905  38.060  45.390  1.00  0.00     0.210 C 
ENDBRANCH  14  17
ENDBRANCH   9  11
ENDBRANCH   2   5
BRANCH   1  19
HETATM   19  N   UNL     1      26.306  42.987  52.753  1.00  0.00    -0.267 N 
HETATM   20  C   UNL     1      27.401  43.821  52.724  1.00  0.00     0.236 C 
HETATM   21  O   UNL     1      27.779  44.365  51.684  1.00  0.00    -0.272 OA
HETATM   22  H   UNL     1      26.058  42.400  53.546  1.00  0.00     0.190 HD
BRANCH  20  23
HETATM   23  C   UNL     1      28.042  44.121  54.064  1.00  0.00     0.113 C 
BRANCH  23  24
HETATM   24  C   UNL     1      29.563  43.914  54.122  1.00  0.00     0.023 C 
HETATM   25  C   UNL     1      29.919  42.502  53.642  1.00  0.00     0.015 C 
BRANCH  24  26
HETATM   26  C   UNL     1      30.158  44.167  55.497  1.00  0.00    -0.054 A 
HETATM   27  C   UNL     1      31.059  43.269  56.089  1.00  0.00     0.007 A 
HETATM   28  C   UNL     1      31.588  43.523  57.356  1.00  0.00     0.001 A 
HETATM   29  C   UNL     1      31.229  44.679  58.045  1.00  0.00     0.000 A 
HETATM   30  C   UNL     1      30.340  45.582  57.468  1.00  0.00     0.001 A 
HETATM   31  C   UNL     1      29.809  45.329  56.201  1.00  0.00     0.007 A 
ENDBRANCH  24  26
ENDBRANCH  23  24
ENDBRANCH  20  23
ENDBRANCH   1  19
TORSDOF 7
ENDMDL
MODEL 10
REMARK VINA RESULT:      -8.0      6.498     11.092
REMARK  7 active torsions:
REMARK  status: ('A' for Active; 'I' for Inactive)
REMARK    1  A    between atoms: C_2  and  C_3 
REMARK    2  A    between atoms: C_2  and  C_9 
REMARK    3  A    between atoms: C_9  and  C_10 
REMARK       I    between atoms: C_10  and  N_11 
REMARK    4  A    between atoms: N_11  and  N_12 
REMARK       I    between atoms: N_12  and  C_13 
REMARK    5  A    between atoms: C_13  and  C_14 
REMARK    6  A    between atoms: C_18  and  C_19 
REMARK    7  A    between atoms: C_22  and  O_23 
ROOT
HETATM    1  N   UNL     1      26.944  42.299  48.721  1.00  0.00    -0.262 N 
HETATM    2  C   UNL     1      26.914  41.729  49.975  1.00  0.00     0.288 C 
HETATM    3  O   UNL     1      26.547  40.569  50.155  1.00  0.00    -0.264 OA
HETATM    4  H   UNL     1      27.203  43.267  48.543  1.00  0.00     0.190 HD
ENDROOT
BRANCH   2   5
HETATM    5  C   UNL     1      27.352  42.585  51.042  1.00  0.00     0.121 A 
HETATM    6  N   UNL     1      26.840  43.837  51.232  1.00  0.00    -0.272 N 
HETATM    7  H   UNL     1      26.134  44.300  50.667  1.00  0.00     0.189 HD
HETATM    8  N   UNL     1      27.334  44.478  52.303  1.00  0.00    -0.174 NA
HETATM    9  C   UNL     1      28.233  43.627  52.823  1.00  0.00     0.089 A 
HETATM   10  C   UNL     1      28.273  42.428  52.059  1.00  0.00     0.071 A 
BRANCH   9  11
HETATM   11  C   UNL     1      29.005  43.945  54.025  1.00  0.00    -0.005 A 
HETATM   12  C   UNL     1      28.699  45.076  54.793  1.00  0.00     0.016 A 
HETATM   13  C   UNL     1      29.412  45.355  55.964  1.00  0.00     0.037 A 
HETATM   14  C   UNL     1      30.443  44.515  56.389  1.00  0.00     0.068 A 
HETATM   15  C   UNL     1      30.770  43.400  55.620  1.00  0.00     0.037 A 
HETATM   16  C   UNL     1      30.055  43.117  54.447  1.00  0.00     0.016 A 
BRANCH  14  17
HETATM   17  O   UNL     1      31.050  44.893  57.554  1.00  0.00    -0.356 OA
HETATM   18  C   UNL     1      30.581  46.090  58.163  1.00  0.00     0.210 C 
ENDBRANCH  14  17
ENDBRANCH   9  11
ENDBRANCH   2   5
BRANCH   1  19
HETATM   19  N   UNL     1      26.534  41.561  47.608  1.00  0.00    -0.267 N 
HETATM   20  C   UNL     1      27.520  41.103  46.763  1.00  0.00     0.236 C 
HETATM   21  O   UNL     1      28.717  41.204  47.041  1.00  0.00    -0.272 OA
HETATM   22  H   UNL     1      25.554  41.640  47.350  1.00  0.00     0.190 HD
BRANCH  20  23
HETATM   23  C   UNL     1      27.043  40.366  45.527  1.00  0.00     0.113 C 
BRANCH  23  24
HETATM   24  C   UNL     1      27.673  40.833  44.205  1.00  0.00     0.023 C 
HETATM   25  C   UNL     1      26.590  40.969  43.128  1.00  0.00     0.015 C 
BRANCH  24  26
HETATM   26  C   UNL     1      28.792  39.931  43.714  1.00  0.00    -0.054 A 
HETATM   27  C   UNL     1      29.830  40.415  42.902  1.00  0.00     0.007 A 
HETATM   28  C   UNL     1      30.844  39.563  42.461  1.00  0.00     0.001 A 
HETATM   29  C   UNL     1      30.839  38.220  42.828  1.00  0.00     0.000 A 
HETATM   30  C   UNL     1      29.819  37.726  43.637  1.00  0.00     0.001 A 
HETATM   31  C   UNL     1      28.802  38.576  44.079  1.00  0.00     0.007 A 
ENDBRANCH  24  26
ENDBRANCH  23  24
ENDBRANCH  20  23
ENDBRANCH   1  19
TORSDOF 7
ENDMDL
