MODEL 1
REMARK VINA RESULT:      -8.7      0.000      0.000
REMARK  3 active torsions:
REMARK  status: ('A' for Active; 'I' for Inactive)
REMARK    1  A    between atoms: C_4  and  C_5 
REMARK    2  A    between atoms: C_11  and  C_12 
REMARK    3  A    between atoms: C_21  and  N_22 
ROOT
HETATM    1  C   UNL     1      32.388  49.161  41.555  1.00  0.00     0.071 A 
HETATM    2  N   UNL     1      32.995  47.924  41.512  1.00  0.00    -0.274 N 
HETATM    3  H   UNL     1      33.788  47.608  42.060  1.00  0.00     0.189 HD
HETATM    4  N   UNL     1      32.415  47.051  40.667  1.00  0.00    -0.148 NA
HETATM    5  C   UNL     1      31.416  47.767  40.170  1.00  0.00     0.199 A 
HETATM    6  C   UNL     1      31.359  49.091  40.629  1.00  0.00     0.036 A 
HETATM    7  C   UNL     1      30.299  50.030  40.140  1.00  0.00     0.079 A 
HETATM    8  C   UNL     1      29.289  49.244  39.276  1.00  0.00     0.063 A 
HETATM    9  C   UNL     1      28.100  50.030  38.747  1.00  0.00     0.020 C 
HETATM   10  N   UNL     1      27.114  50.682  38.308  1.00  0.00    -0.096 N 
HETATM   11  C   UNL     1      29.442  47.944  38.916  1.00  0.00     0.139 A 
HETATM   12  O   UNL     1      30.544  47.190  39.325  1.00  0.00    -0.277 OA
ENDROOT
BRANCH   7  13
HETATM   13  C   UNL     1      30.832  51.287  39.362  1.00  0.00     0.022 C 
HETATM   14  C   UNL     1      31.136  52.469  40.255  1.00  0.00    -0.025 C 
HETATM   15  C   UNL     1      32.308  53.120  40.261  1.00  0.00    -0.030 C 
HETATM   16  C   UNL     1      33.482  52.714  39.426  1.00  0.00     0.027 C 
HETATM   17  C   UNL     1      33.363  51.289  38.888  1.00  0.00     0.004 C 
HETATM   18  C   UNL     1      31.965  50.998  38.347  1.00  0.00     0.010 C 
ENDBRANCH   7  13
BRANCH  11  19
HETATM   19  N   UNL     1      28.576  47.233  38.115  1.00  0.00    -0.282 NA
HETATM   20  H   UNL     1      27.858  46.696  38.595  1.00  0.00     0.126 HD
HETATM   21  H   UNL     1      28.210  47.802  37.355  1.00  0.00     0.126 HD
ENDBRANCH  11  19
BRANCH   1  22
HETATM   22  C   UNL     1      32.846  50.199  42.468  1.00  0.00    -0.007 A 
HETATM   23  C   UNL     1      34.162  50.676  42.397  1.00  0.00     0.014 A 
HETATM   24  C   UNL     1      34.606  51.664  43.278  1.00  0.00     0.001 A 
HETATM   25  C   UNL     1      33.739  52.179  44.240  1.00  0.00     0.000 A 
HETATM   26  C   UNL     1      32.431  51.706  44.323  1.00  0.00     0.001 A 
HETATM   27  C   UNL     1      31.985  50.719  43.441  1.00  0.00     0.014 A 
ENDBRANCH   1  22
TORSDOF 3
ENDMDL
MODEL 2
REMARK VINA RESULT:      -7.6      2.592      5.628
REMARK  3 active torsions:
REMARK  status: ('A' for Active; 'I' for Inactive)
REMARK    1  A    between atoms: C_4  and  C_5 
REMARK    2  A    between atoms: C_11  and  C_12 
REMARK    3  A    between atoms: C_21  and  N_22 
ROOT
HETATM    1  C   UNL     1      31.310  49.581  41.416  1.00  0.00     0.071 A 
HETATM    2  N   UNL     1      31.057  49.470  42.767  1.00  0.00    -0.274 N 
HETATM    3  H   UNL     1      30.307  48.951  43.212  1.00  0.00     0.189 HD
HETATM    4  N   UNL     1      31.952  50.097  43.552  1.00  0.00    -0.148 NA
HETATM    5  C   UNL     1      32.787  50.615  42.663  1.00  0.00     0.199 A 
HETATM    6  C   UNL     1      32.437  50.384  41.326  1.00  0.00     0.036 A 
HETATM    7  C   UNL     1      33.272  50.927  40.206  1.00  0.00     0.079 A 
HETATM    8  C   UNL     1      34.558  51.548  40.793  1.00  0.00     0.063 A 
HETATM    9  C   UNL     1      35.562  52.091  39.789  1.00  0.00     0.020 C 
HETATM   10  N   UNL     1      36.395  52.542  38.956  1.00  0.00    -0.096 N 
HETATM   11  C   UNL     1      34.798  51.695  42.121  1.00  0.00     0.139 A 
HETATM   12  O   UNL     1      33.884  51.266  43.087  1.00  0.00    -0.277 OA
ENDROOT
BRANCH   7  13
HETATM   13  C   UNL     1      32.541  51.951  39.267  1.00  0.00     0.022 C 
HETATM   14  C   UNL     1      31.824  51.304  38.104  1.00  0.00    -0.025 C 
HETATM   15  C   UNL     1      30.533  51.515  37.808  1.00  0.00    -0.030 C 
HETATM   16  C   UNL     1      29.627  52.372  38.636  1.00  0.00     0.027 C 
HETATM   17  C   UNL     1      30.183  52.648  40.032  1.00  0.00     0.004 C 
HETATM   18  C   UNL     1      31.668  53.002  39.996  1.00  0.00     0.010 C 
ENDBRANCH   7  13
BRANCH  11  19
HETATM   19  N   UNL     1      35.918  52.281  42.668  1.00  0.00    -0.282 NA
HETATM   20  H   UNL     1      35.757  52.931  43.433  1.00  0.00     0.126 HD
HETATM   21  H   UNL     1      36.642  51.596  42.870  1.00  0.00     0.126 HD
ENDBRANCH  11  19
BRANCH   1  22
HETATM   22  C   UNL     1      30.481  48.904  40.430  1.00  0.00    -0.007 A 
HETATM   23  C   UNL     1      29.101  49.146  40.377  1.00  0.00     0.014 A 
HETATM   24  C   UNL     1      28.302  48.490  39.439  1.00  0.00     0.001 A 
HETATM   25  C   UNL     1      28.875  47.582  38.550  1.00  0.00     0.000 A 
HETATM   26  C   UNL     1      30.245  47.330  38.600  1.00  0.00     0.001 A 
HETATM   27  C   UNL     1      31.045  47.987  39.536  1.00  0.00     0.014 A 
ENDBRANCH   1  22
TORSDOF 3
ENDMDL
MODEL 3
REMARK VINA RESULT:      -7.6     12.860     14.918
REMARK  3 active torsions:
REMARK  status: ('A' for Active; 'I' for Inactive)
REMARK    1  A    between atoms: C_4  and  C_5 
REMARK    2  A    between atoms: C_11  and  C_12 
REMARK    3  A    between atoms: C_21  and  N_22 
ROOT
HETATM    1  C   UNL     1      18.475  48.695  47.131  1.00  0.00     0.071 A 
HETATM    2  N   UNL     1      17.893  47.453  47.275  1.00  0.00    -0.274 N 
HETATM    3  H   UNL     1      16.969  47.167  46.970  1.00  0.00     0.189 HD
HETATM    4  N   UNL     1      18.688  46.532  47.851  1.00  0.00    -0.148 NA
HETATM    5  C   UNL     1      19.797  47.221  48.073  1.00  0.00     0.199 A 
HETATM    6  C   UNL     1      19.732  48.572  47.703  1.00  0.00     0.036 A 
HETATM    7  C   UNL     1      20.901  49.486  47.913  1.00  0.00     0.079 A 
HETATM    8  C   UNL     1      22.113  48.652  48.385  1.00  0.00     0.063 A 
HETATM    9  C   UNL     1      23.415  49.411  48.584  1.00  0.00     0.020 C 
HETATM   10  N   UNL     1      24.495  50.040  48.749  1.00  0.00    -0.096 N 
HETATM   11  C   UNL     1      22.058  47.331  48.691  1.00  0.00     0.139 A 
HETATM   12  O   UNL     1      20.874  46.597  48.582  1.00  0.00    -0.277 OA
ENDROOT
BRANCH   7  13
HETATM   13  C   UNL     1      20.640  50.686  48.891  1.00  0.00     0.022 C 
HETATM   14  C   UNL     1      20.065  51.909  48.212  1.00  0.00    -0.025 C 
HETATM   15  C   UNL     1      18.950  52.535  48.616  1.00  0.00    -0.030 C 
HETATM   16  C   UNL     1      18.104  52.059  49.754  1.00  0.00     0.027 C 
HETATM   17  C   UNL     1      18.391  50.609  50.142  1.00  0.00     0.004 C 
HETATM   18  C   UNL     1      19.889  50.318  50.194  1.00  0.00     0.010 C 
ENDBRANCH   7  13
BRANCH  11  19
HETATM   19  N   UNL     1      23.114  46.576  49.151  1.00  0.00    -0.282 NA
HETATM   20  H   UNL     1      23.532  46.875  50.028  1.00  0.00     0.126 HD
HETATM   21  H   UNL     1      22.906  45.580  49.125  1.00  0.00     0.126 HD
ENDBRANCH  11  19
BRANCH   1  22
HETATM   22  C   UNL     1      17.780  49.786  46.465  1.00  0.00    -0.007 A 
HETATM   23  C   UNL     1      18.375  50.451  45.384  1.00  0.00     0.014 A 
HETATM   24  C   UNL     1      17.714  51.505  44.749  1.00  0.00     0.001 A 
HETATM   25  C   UNL     1      16.456  51.906  45.195  1.00  0.00     0.000 A 
HETATM   26  C   UNL     1      15.859  51.256  46.273  1.00  0.00     0.001 A 
HETATM   27  C   UNL     1      16.518  50.200  46.907  1.00  0.00     0.014 A 
ENDBRANCH   1  22
TORSDOF 3
ENDMDL
MODEL 4
REMARK VINA RESULT:      -7.6      2.553      4.654
REMARK  3 active torsions:
REMARK  status: ('A' for Active; 'I' for Inactive)
REMARK    1  A    between atoms: C_4  and  C_5 
REMARK    2  A    between atoms: C_11  and  C_12 
REMARK    3  A    between atoms: C_21  and  N_22 
ROOT
HETATM    1  C   UNL     1      29.301  50.586  38.672  1.00  0.00     0.071 A 
HETATM    2  N   UNL     1      28.169  51.328  38.406  1.00  0.00    -0.274 N 
HETATM    3  H   UNL     1      28.082  52.339  38.406  1.00  0.00     0.189 HD
HETATM    4  N   UNL     1      27.092  50.595  38.072  1.00  0.00    -0.148 NA
HETATM    5  C   UNL     1      27.567  49.359  38.130  1.00  0.00     0.199 A 
HETATM    6  C   UNL     1      28.905  49.265  38.539  1.00  0.00     0.036 A 
HETATM    7  C   UNL     1      29.576  47.932  38.676  1.00  0.00     0.079 A 
HETATM    8  C   UNL     1      28.632  46.835  38.134  1.00  0.00     0.063 A 
HETATM    9  C   UNL     1      29.180  45.417  38.132  1.00  0.00     0.020 C 
HETATM   10  N   UNL     1      29.634  44.241  38.130  1.00  0.00    -0.096 N 
HETATM   11  C   UNL     1      27.353  47.056  37.740  1.00  0.00     0.139 A 
HETATM   12  O   UNL     1      26.779  48.329  37.775  1.00  0.00    -0.277 OA
ENDROOT
BRANCH   7  13
HETATM   13  C   UNL     1      30.062  47.577  40.127  1.00  0.00     0.022 C 
HETATM   14  C   UNL     1      31.484  48.003  40.411  1.00  0.00    -0.025 C 
HETATM   15  C   UNL     1      31.845  48.751  41.464  1.00  0.00    -0.030 C 
HETATM   16  C   UNL     1      30.871  49.308  42.453  1.00  0.00     0.027 C 
HETATM   17  C   UNL     1      29.431  49.291  41.941  1.00  0.00     0.004 C 
HETATM   18  C   UNL     1      29.082  47.970  41.260  1.00  0.00     0.010 C 
ENDBRANCH   7  13
BRANCH  11  19
HETATM   19  N   UNL     1      26.480  46.089  37.291  1.00  0.00    -0.282 NA
HETATM   20  H   UNL     1      26.235  45.361  37.957  1.00  0.00     0.126 HD
HETATM   21  H   UNL     1      25.670  46.497  36.828  1.00  0.00     0.126 HD
ENDBRANCH  11  19
BRANCH   1  22
HETATM   22  C   UNL     1      30.572  51.225  38.980  1.00  0.00    -0.007 A 
HETATM   23  C   UNL     1      31.725  50.899  38.253  1.00  0.00     0.014 A 
HETATM   24  C   UNL     1      32.947  51.502  38.554  1.00  0.00     0.001 A 
HETATM   25  C   UNL     1      33.028  52.432  39.590  1.00  0.00     0.000 A 
HETATM   26  C   UNL     1      31.889  52.758  40.323  1.00  0.00     0.001 A 
HETATM   27  C   UNL     1      30.665  52.156  40.021  1.00  0.00     0.014 A 
ENDBRANCH   1  22
TORSDOF 3
ENDMDL
MODEL 5
REMARK VINA RESULT:      -7.3      1.145      2.101
REMARK  3 active torsions:
REMARK  status: ('A' for Active; 'I' for Inactive)
REMARK    1  A    between atoms: C_4  and  C_5 
REMARK    2  A    between atoms: C_11  and  C_12 
REMARK    3  A    between atoms: C_21  and  N_22 
ROOT
HETATM    1  C   UNL     1      32.549  49.172  41.743  1.00  0.00     0.071 A 
HETATM    2  N   UNL     1      33.227  47.979  41.609  1.00  0.00    -0.274 N 
HETATM    3  H   UNL     1      34.095  47.711  42.061  1.00  0.00     0.189 HD
HETATM    4  N   UNL     1      32.616  47.080  40.817  1.00  0.00    -0.148 NA
HETATM    5  C   UNL     1      31.523  47.732  40.446  1.00  0.00     0.199 A 
HETATM    6  C   UNL     1      31.430  49.043  40.934  1.00  0.00     0.036 A 
HETATM    7  C   UNL     1      30.263  49.915  40.581  1.00  0.00     0.079 A 
HETATM    8  C   UNL     1      29.218  49.072  39.819  1.00  0.00     0.063 A 
HETATM    9  C   UNL     1      27.929  49.782  39.439  1.00  0.00     0.020 C 
HETATM   10  N   UNL     1      26.859  50.371  39.123  1.00  0.00    -0.096 N 
HETATM   11  C   UNL     1      29.415  47.790  39.419  1.00  0.00     0.139 A 
HETATM   12  O   UNL     1      30.603  47.107  39.691  1.00  0.00    -0.277 OA
ENDROOT
BRANCH   7  13
HETATM   13  C   UNL     1      30.622  51.214  39.775  1.00  0.00     0.022 C 
HETATM   14  C   UNL     1      30.300  51.121  38.300  1.00  0.00    -0.025 C 
HETATM   15  C   UNL     1      29.559  52.021  37.638  1.00  0.00    -0.030 C 
HETATM   16  C   UNL     1      28.908  53.197  38.295  1.00  0.00     0.027 C 
HETATM   17  C   UNL     1      28.826  53.058  39.814  1.00  0.00     0.004 C 
HETATM   18  C   UNL     1      30.132  52.537  40.411  1.00  0.00     0.010 C 
ENDBRANCH   7  13
BRANCH  11  19
HETATM   19  N   UNL     1      28.515  47.031  38.704  1.00  0.00    -0.282 NA
HETATM   20  H   UNL     1      27.652  47.495  38.433  1.00  0.00     0.126 HD
HETATM   21  H   UNL     1      28.963  46.537  37.936  1.00  0.00     0.126 HD
ENDBRANCH  11  19
BRANCH   1  22
HETATM   22  C   UNL     1      33.035  50.228  42.619  1.00  0.00    -0.007 A 
HETATM   23  C   UNL     1      32.204  50.762  43.614  1.00  0.00     0.014 A 
HETATM   24  C   UNL     1      32.665  51.782  44.449  1.00  0.00     0.001 A 
HETATM   25  C   UNL     1      33.958  52.280  44.291  1.00  0.00     0.000 A 
HETATM   26  C   UNL     1      34.788  51.760  43.301  1.00  0.00     0.001 A 
HETATM   27  C   UNL     1      34.329  50.738  42.466  1.00  0.00     0.014 A 
ENDBRANCH   1  22
TORSDOF 3
ENDMDL
MODEL 6
REMARK VINA RESULT:      -7.3      2.237      3.258
REMARK  3 active torsions:
REMARK  status: ('A' for Active; 'I' for Inactive)
REMARK    1  A    between atoms: C_4  and  C_5 
REMARK    2  A    between atoms: C_11  and  C_12 
REMARK    3  A    between atoms: C_21  and  N_22 
ROOT
HETATM    1  C   UNL     1      30.588  49.021  40.024  1.00  0.00     0.071 A 
HETATM    2  N   UNL     1      31.375  48.430  39.058  1.00  0.00    -0.274 N 
HETATM    3  H   UNL     1      32.369  48.568  38.905  1.00  0.00     0.189 HD
HETATM    4  N   UNL     1      30.726  47.546  38.278  1.00  0.00    -0.148 NA
HETATM    5  C   UNL     1      29.497  47.588  38.774  1.00  0.00     0.199 A 
HETATM    6  C   UNL     1      29.318  48.505  39.819  1.00  0.00     0.036 A 
HETATM    7  C   UNL     1      27.978  48.683  40.466  1.00  0.00     0.079 A 
HETATM    8  C   UNL     1      27.010  47.610  39.921  1.00  0.00     0.063 A 
HETATM    9  C   UNL     1      25.613  47.597  40.521  1.00  0.00     0.020 C 
HETATM   10  N   UNL     1      24.454  47.585  41.019  1.00  0.00    -0.096 N 
HETATM   11  C   UNL     1      27.310  46.752  38.913  1.00  0.00     0.139 A 
HETATM   12  O   UNL     1      28.558  46.758  38.286  1.00  0.00    -0.277 OA
ENDROOT
BRANCH   7  13
HETATM   13  C   UNL     1      27.354  50.117  40.321  1.00  0.00     0.022 C 
HETATM   14  C   UNL     1      27.799  51.084  41.395  1.00  0.00    -0.025 C 
HETATM   15  C   UNL     1      28.326  52.290  41.143  1.00  0.00    -0.030 C 
HETATM   16  C   UNL     1      28.597  52.801  39.763  1.00  0.00     0.027 C 
HETATM   17  C   UNL     1      28.598  51.694  38.710  1.00  0.00     0.004 C 
HETATM   18  C   UNL     1      27.433  50.725  38.899  1.00  0.00     0.010 C 
ENDBRANCH   7  13
BRANCH  11  19
HETATM   19  N   UNL     1      26.451  45.814  38.383  1.00  0.00    -0.282 NA
HETATM   20  H   UNL     1      25.600  45.636  38.910  1.00  0.00     0.126 HD
HETATM   21  H   UNL     1      26.284  45.972  37.392  1.00  0.00     0.126 HD
ENDBRANCH  11  19
BRANCH   1  22
HETATM   22  C   UNL     1      31.148  49.947  40.997  1.00  0.00    -0.007 A 
HETATM   23  C   UNL     1      31.679  51.176  40.582  1.00  0.00     0.014 A 
HETATM   24  C   UNL     1      32.226  52.062  41.512  1.00  0.00     0.001 A 
HETATM   25  C   UNL     1      32.252  51.724  42.864  1.00  0.00     0.000 A 
HETATM   26  C   UNL     1      31.732  50.502  43.285  1.00  0.00     0.001 A 
HETATM   27  C   UNL     1      31.183  49.616  42.356  1.00  0.00     0.014 A 
ENDBRANCH   1  22
TORSDOF 3
ENDMDL
MODEL 7
REMARK VINA RESULT:      -7.1      2.458      5.435
REMARK  3 active torsions:
REMARK  status: ('A' for Active; 'I' for Inactive)
REMARK    1  A    between atoms: C_4  and  C_5 
REMARK    2  A    between atoms: C_11  and  C_12 
REMARK    3  A    between atoms: C_21  and  N_22 
ROOT
HETATM    1  C   UNL     1      29.774  49.288  41.171  1.00  0.00     0.071 A 
HETATM    2  N   UNL     1      29.660  48.643  42.385  1.00  0.00    -0.274 N 
HETATM    3  H   UNL     1      28.856  48.133  42.737  1.00  0.00     0.189 HD
HETATM    4  N   UNL     1      30.773  48.679  43.139  1.00  0.00    -0.148 NA
HETATM    5  C   UNL     1      31.607  49.367  42.373  1.00  0.00     0.199 A 
HETATM    6  C   UNL     1      31.054  49.820  41.166  1.00  0.00     0.036 A 
HETATM    7  C   UNL     1      31.867  50.632  40.204  1.00  0.00     0.079 A 
HETATM    8  C   UNL     1      33.331  50.677  40.694  1.00  0.00     0.063 A 
HETATM    9  C   UNL     1      34.319  51.406  39.798  1.00  0.00     0.020 C 
HETATM   10  N   UNL     1      35.138  52.012  39.055  1.00  0.00    -0.096 N 
HETATM   11  C   UNL     1      33.754  50.176  41.882  1.00  0.00     0.139 A 
HETATM   12  O   UNL     1      32.878  49.546  42.771  1.00  0.00    -0.277 OA
ENDROOT
BRANCH   7  13
HETATM   13  C   UNL     1      31.328  52.083  39.936  1.00  0.00     0.022 C 
HETATM   14  C   UNL     1      30.293  52.153  38.837  1.00  0.00    -0.025 C 
HETATM   15  C   UNL     1      29.087  52.721  38.978  1.00  0.00    -0.030 C 
HETATM   16  C   UNL     1      28.595  53.302  40.267  1.00  0.00     0.027 C 
HETATM   17  C   UNL     1      29.406  52.837  41.475  1.00  0.00     0.004 C 
HETATM   18  C   UNL     1      30.908  52.869  41.203  1.00  0.00     0.010 C 
ENDBRANCH   7  13
BRANCH  11  19
HETATM   19  N   UNL     1      35.044  50.239  42.359  1.00  0.00    -0.282 NA
HETATM   20  H   UNL     1      35.371  51.156  42.653  1.00  0.00     0.126 HD
HETATM   21  H   UNL     1      35.230  49.509  43.043  1.00  0.00     0.126 HD
ENDBRANCH  11  19
BRANCH   1  22
HETATM   22  C   UNL     1      28.687  49.284  40.204  1.00  0.00    -0.007 A 
HETATM   23  C   UNL     1      28.883  48.761  38.918  1.00  0.00     0.014 A 
HETATM   24  C   UNL     1      27.845  48.766  37.985  1.00  0.00     0.001 A 
HETATM   25  C   UNL     1      26.603  49.299  38.329  1.00  0.00     0.000 A 
HETATM   26  C   UNL     1      26.400  49.826  39.602  1.00  0.00     0.001 A 
HETATM   27  C   UNL     1      27.438  49.820  40.537  1.00  0.00     0.014 A 
ENDBRANCH   1  22
TORSDOF 3
ENDMDL
MODEL 8
REMARK VINA RESULT:      -7.0      3.492      5.609
REMARK  3 active torsions:
REMARK  status: ('A' for Active; 'I' for Inactive)
REMARK    1  A    between atoms: C_4  and  C_5 
REMARK    2  A    between atoms: C_11  and  C_12 
REMARK    3  A    between atoms: C_21  and  N_22 
ROOT
HETATM    1  C   UNL     1      26.726  50.015  39.400  1.00  0.00     0.071 A 
HETATM    2  N   UNL     1      25.382  50.112  39.691  1.00  0.00    -0.274 N 
HETATM    3  H   UNL     1      24.882  50.927  40.029  1.00  0.00     0.189 HD
HETATM    4  N   UNL     1      24.680  48.990  39.445  1.00  0.00    -0.148 NA
HETATM    5  C   UNL     1      25.615  48.171  38.987  1.00  0.00     0.199 A 
HETATM    6  C   UNL     1      26.910  48.709  38.973  1.00  0.00     0.036 A 
HETATM    7  C   UNL     1      28.077  47.895  38.504  1.00  0.00     0.079 A 
HETATM    8  C   UNL     1      27.560  46.562  37.921  1.00  0.00     0.063 A 
HETATM    9  C   UNL     1      28.608  45.633  37.331  1.00  0.00     0.020 C 
HETATM   10  N   UNL     1      29.478  44.862  36.842  1.00  0.00    -0.096 N 
HETATM   11  C   UNL     1      26.265  46.158  37.971  1.00  0.00     0.139 A 
HETATM   12  O   UNL     1      25.269  46.946  38.553  1.00  0.00    -0.277 OA
ENDROOT
BRANCH   7  13
HETATM   13  C   UNL     1      29.184  47.633  39.587  1.00  0.00     0.022 C 
HETATM   14  C   UNL     1      30.269  48.685  39.614  1.00  0.00    -0.025 C 
HETATM   15  C   UNL     1      30.643  49.347  40.718  1.00  0.00    -0.030 C 
HETATM   16  C   UNL     1      29.987  49.166  42.051  1.00  0.00     0.027 C 
HETATM   17  C   UNL     1      28.624  48.483  41.952  1.00  0.00     0.004 C 
HETATM   18  C   UNL     1      28.650  47.289  41.000  1.00  0.00     0.010 C 
ENDBRANCH   7  13
BRANCH  11  19
HETATM   19  N   UNL     1      25.786  44.958  37.495  1.00  0.00    -0.282 NA
HETATM   20  H   UNL     1      25.229  44.407  38.143  1.00  0.00     0.126 HD
HETATM   21  H   UNL     1      25.350  45.062  36.581  1.00  0.00     0.126 HD
ENDBRANCH  11  19
BRANCH   1  22
HETATM   22  C   UNL     1      27.617  51.158  39.541  1.00  0.00    -0.007 A 
HETATM   23  C   UNL     1      28.338  51.635  38.438  1.00  0.00     0.014 A 
HETATM   24  C   UNL     1      29.201  52.724  38.573  1.00  0.00     0.001 A 
HETATM   25  C   UNL     1      29.355  53.340  39.815  1.00  0.00     0.000 A 
HETATM   26  C   UNL     1      28.647  52.869  40.918  1.00  0.00     0.001 A 
HETATM   27  C   UNL     1      27.782  51.780  40.783  1.00  0.00     0.014 A 
ENDBRANCH   1  22
TORSDOF 3
ENDMDL
MODEL 9
REMARK VINA RESULT:      -6.9     12.659     14.009
REMARK  3 active torsions:
REMARK  status: ('A' for Active; 'I' for Inactive)
REMARK    1  A    between atoms: C_4  and  C_5 
REMARK    2  A    between atoms: C_11  and  C_12 
REMARK    3  A    between atoms: C_21  and  N_22 
ROOT
HETATM    1  C   UNL     1      28.731  42.126  52.647  1.00  0.00     0.071 A 
HETATM    2  N   UNL     1      29.412  40.994  52.250  1.00  0.00    -0.274 N 
HETATM    3  H   UNL     1      30.277  40.630  52.636  1.00  0.00     0.189 HD
HETATM    4  N   UNL     1      28.808  40.299  51.269  1.00  0.00    -0.148 NA
HETATM    5  C   UNL     1      27.718  41.020  51.048  1.00  0.00     0.199 A 
HETATM    6  C   UNL     1      27.620  42.185  51.820  1.00  0.00     0.036 A 
HETATM    7  C   UNL     1      26.454  43.115  51.667  1.00  0.00     0.079 A 
HETATM    8  C   UNL     1      25.416  42.469  50.723  1.00  0.00     0.063 A 
HETATM    9  C   UNL     1      24.129  43.248  50.505  1.00  0.00     0.020 C 
HETATM   10  N   UNL     1      23.061  43.894  50.323  1.00  0.00    -0.096 N 
HETATM   11  C   UNL     1      25.618  41.312  50.044  1.00  0.00     0.139 A 
HETATM   12  O   UNL     1      26.805  40.584  50.162  1.00  0.00    -0.277 OA
ENDROOT
BRANCH   7  13
HETATM   13  C   UNL     1      26.818  44.564  51.180  1.00  0.00     0.022 C 
HETATM   14  C   UNL     1      26.450  44.829  49.738  1.00  0.00    -0.025 C 
HETATM   15  C   UNL     1      25.710  45.872  49.334  1.00  0.00    -0.030 C 
HETATM   16  C   UNL     1      25.105  46.867  50.273  1.00  0.00     0.027 C 
HETATM   17  C   UNL     1      25.065  46.371  51.717  1.00  0.00     0.004 C 
HETATM   18  C   UNL     1      26.376  45.704  52.129  1.00  0.00     0.010 C 
ENDBRANCH   7  13
BRANCH  11  19
HETATM   19  N   UNL     1      24.725  40.736  49.167  1.00  0.00    -0.282 NA
HETATM   20  H   UNL     1      24.021  40.128  49.578  1.00  0.00     0.126 HD
HETATM   21  H   UNL     1      24.336  41.420  48.521  1.00  0.00     0.126 HD
ENDBRANCH  11  19
BRANCH   1  22
HETATM   22  C   UNL     1      29.209  42.954  53.744  1.00  0.00    -0.007 A 
HETATM   23  C   UNL     1      30.432  42.670  54.366  1.00  0.00     0.014 A 
HETATM   24  C   UNL     1      30.888  43.456  55.426  1.00  0.00     0.001 A 
HETATM   25  C   UNL     1      30.120  44.529  55.877  1.00  0.00     0.000 A 
HETATM   26  C   UNL     1      28.899  44.815  55.270  1.00  0.00     0.001 A 
HETATM   27  C   UNL     1      28.443  44.030  54.208  1.00  0.00     0.014 A 
ENDBRANCH   1  22
TORSDOF 3
ENDMDL
MODEL 10
REMARK VINA RESULT:      -6.8     12.260     14.439
REMARK  3 active torsions:
REMARK  status: ('A' for Active; 'I' for Inactive)
REMARK    1  A    between atoms: C_4  and  C_5 
REMARK    2  A    between atoms: C_11  and  C_12 
REMARK    3  A    between atoms: C_21  and  N_22 
ROOT
HETATM    1  C   UNL     1      25.877  44.209  50.483  1.00  0.00     0.071 A 
HETATM    2  N   UNL     1      25.254  43.222  49.749  1.00  0.00    -0.274 N 
HETATM    3  H   UNL     1      24.617  43.344  48.969  1.00  0.00     0.189 HD
HETATM    4  N   UNL     1      25.587  41.969  50.111  1.00  0.00    -0.148 NA
HETATM    5  C   UNL     1      26.443  42.183  51.099  1.00  0.00     0.199 A 
HETATM    6  C   UNL     1      26.640  43.533  51.422  1.00  0.00     0.036 A 
HETATM    7  C   UNL     1      27.562  43.932  52.534  1.00  0.00     0.079 A 
HETATM    8  C   UNL     1      28.307  42.680  53.044  1.00  0.00     0.063 A 
HETATM    9  C   UNL     1      29.342  42.910  54.134  1.00  0.00     0.020 C 
HETATM   10  N   UNL     1      30.200  43.100  55.039  1.00  0.00    -0.096 N 
HETATM   11  C   UNL     1      28.044  41.414  52.632  1.00  0.00     0.139 A 
HETATM   12  O   UNL     1      27.064  41.139  51.675  1.00  0.00    -0.277 OA
ENDROOT
BRANCH   7  13
HETATM   13  C   UNL     1      26.877  44.692  53.726  1.00  0.00     0.022 C 
HETATM   14  C   UNL     1      27.828  45.559  54.520  1.00  0.00    -0.025 C 
HETATM   15  C   UNL     1      27.619  46.858  54.777  1.00  0.00    -0.030 C 
HETATM   16  C   UNL     1      26.444  47.624  54.255  1.00  0.00     0.027 C 
HETATM   17  C   UNL     1      25.741  46.916  53.098  1.00  0.00     0.004 C 
HETATM   18  C   UNL     1      25.560  45.424  53.367  1.00  0.00     0.010 C 
ENDBRANCH   7  13
BRANCH  11  19
HETATM   19  N   UNL     1      28.667  40.278  53.100  1.00  0.00    -0.282 NA
HETATM   20  H   UNL     1      29.599  40.095  52.737  1.00  0.00     0.126 HD
HETATM   21  H   UNL     1      28.611  40.207  54.114  1.00  0.00     0.126 HD
ENDBRANCH  11  19
BRANCH   1  22
HETATM   22  C   UNL     1      25.683  45.619  50.177  1.00  0.00    -0.007 A 
HETATM   23  C   UNL     1      24.392  46.160  50.113  1.00  0.00     0.014 A 
HETATM   24  C   UNL     1      24.203  47.509  49.809  1.00  0.00     0.001 A 
HETATM   25  C   UNL     1      25.304  48.327  49.561  1.00  0.00     0.000 A 
HETATM   26  C   UNL     1      26.591  47.797  49.615  1.00  0.00     0.001 A 
HETATM   27  C   UNL     1      26.781  46.448  49.921  1.00  0.00     0.014 A 
ENDBRANCH   1  22
TORSDOF 3
ENDMDL
