MODEL 1
REMARK VINA RESULT:      -9.7      0.000      0.000
REMARK  6 active torsions:
REMARK  status: ('A' for Active; 'I' for Inactive)
REMARK    1  A    between atoms: O_2  and  C_3 
REMARK    2  A    between atoms: C_5  and  C_6 
REMARK    3  A    between atoms: N_8  and  C_9 
REMARK    4  A    between atoms: C_16  and  C_17 
REMARK       I    between atoms: C_17  and  N_18 
REMARK    5  A    between atoms: N_18  and  N_19 
REMARK       I    between atoms: N_19  and  C_20 
REMARK    6  A    between atoms: C_20  and  C_21 
ROOT
HETATM    1  C   UNL     1      27.274  44.634  53.187  1.00  0.00     0.105 A 
HETATM    2  N   UNL     1      28.192  44.141  54.033  1.00  0.00    -0.166 NA
HETATM    3  N   UNL     1      28.527  45.155  54.859  1.00  0.00    -0.244 N 
HETATM    4  C   UNL     1      27.839  46.301  54.539  1.00  0.00     0.138 A 
HETATM    5  C   UNL     1      27.026  46.015  53.454  1.00  0.00     0.082 A 
ENDROOT
BRANCH   5   6
HETATM    6  C   UNL     1      26.168  46.958  52.753  1.00  0.00     0.274 C 
HETATM    7  N   UNL     1      26.287  46.932  51.375  1.00  0.00    -0.263 N 
HETATM    8  H   UNL     1      27.043  46.444  50.899  1.00  0.00     0.190 HD
HETATM    9  O   UNL     1      25.394  47.727  53.318  1.00  0.00    -0.266 OA
BRANCH   7  10
HETATM   10  N   UNL     1      25.615  47.904  50.622  1.00  0.00    -0.262 N 
HETATM   11  C   UNL     1      24.505  47.521  49.898  1.00  0.00     0.286 C 
HETATM   12  O   UNL     1      24.059  46.375  49.965  1.00  0.00    -0.264 OA
HETATM   13  H   UNL     1      26.077  48.802  50.511  1.00  0.00     0.190 HD
BRANCH  11  14
HETATM   14  C   UNL     1      23.913  48.541  49.064  1.00  0.00     0.102 A 
HETATM   15  N   UNL     1      22.587  48.478  48.687  1.00  0.00    -0.361 N 
HETATM   16  H   UNL     1      21.960  47.731  48.964  1.00  0.00     0.165 HD
HETATM   17  C   UNL     1      22.262  49.552  47.906  1.00  0.00     0.088 A 
HETATM   18  C   UNL     1      23.388  50.329  47.769  1.00  0.00     0.019 A 
HETATM   19  C   UNL     1      24.428  49.696  48.495  1.00  0.00     0.036 A 
ENDBRANCH  11  14
ENDBRANCH   7  10
ENDBRANCH   5   6
BRANCH   1  20
HETATM   20  C   UNL     1      26.681  43.746  52.181  1.00  0.00    -0.002 A 
HETATM   21  C   UNL     1      25.296  43.685  51.980  1.00  0.00     0.050 A 
HETATM   22  C   UNL     1      24.742  42.821  51.028  1.00  0.00     0.069 A 
HETATM   23  C   UNL     1      25.578  41.990  50.283  1.00  0.00     0.037 A 
HETATM   24  C   UNL     1      26.959  42.027  50.485  1.00  0.00     0.004 A 
HETATM   25  C   UNL     1      27.506  42.898  51.428  1.00  0.00     0.014 A 
BRANCH  22  26
HETATM   26  O   UNL     1      23.377  42.878  50.932  1.00  0.00    -0.356 OA
HETATM   27  C   UNL     1      22.832  42.988  49.623  1.00  0.00     0.210 C 
ENDBRANCH  22  26
ENDBRANCH   1  20
BRANCH   3  28
HETATM   28  C   UNL     1      29.485  44.969  55.895  1.00  0.00     0.058 A 
HETATM   29  C   UNL     1      30.439  43.946  55.774  1.00  0.00     0.031 A 
HETATM   30  C   UNL     1      31.390  43.747  56.778  1.00  0.00     0.002 A 
HETATM   31  C   UNL     1      31.393  44.561  57.909  1.00  0.00     0.000 A 
HETATM   32  C   UNL     1      30.448  45.577  58.038  1.00  0.00     0.002 A 
HETATM   33  C   UNL     1      29.494  45.784  57.035  1.00  0.00     0.031 A 
ENDBRANCH   3  28
TORSDOF 6
ENDMDL
MODEL 2
REMARK VINA RESULT:      -9.6      1.844      2.416
REMARK  6 active torsions:
REMARK  status: ('A' for Active; 'I' for Inactive)
REMARK    1  A    between atoms: O_2  and  C_3 
REMARK    2  A    between atoms: C_5  and  C_6 
REMARK    3  A    between atoms: N_8  and  C_9 
REMARK    4  A    between atoms: C_16  and  C_17 
REMARK       I    between atoms: C_17  and  N_18 
REMARK    5  A    between atoms: N_18  and  N_19 
REMARK       I    between atoms: N_19  and  C_20 
REMARK    6  A    between atoms: C_20  and  C_21 
ROOT
HETATM    1  C   UNL     1      27.807  43.653  52.524  1.00  0.00     0.105 A 
HETATM    2  N   UNL     1      28.801  43.461  53.405  1.00  0.00    -0.166 NA
HETATM    3  N   UNL     1      28.652  44.410  54.353  1.00  0.00    -0.244 N 
HETATM    4  C   UNL     1      27.576  45.220  54.078  1.00  0.00     0.138 A 
HETATM    5  C   UNL     1      27.007  44.775  52.895  1.00  0.00     0.082 A 
ENDROOT
BRANCH   5   6
HETATM    6  C   UNL     1      25.878  45.381  52.206  1.00  0.00     0.274 C 
HETATM    7  N   UNL     1      26.209  46.429  51.367  1.00  0.00    -0.263 N 
HETATM    8  H   UNL     1      27.126  46.870  51.376  1.00  0.00     0.190 HD
HETATM    9  O   UNL     1      24.714  45.010  52.345  1.00  0.00    -0.266 OA
BRANCH   7  10
HETATM   10  N   UNL     1      25.178  47.172  50.777  1.00  0.00    -0.262 N 
HETATM   11  C   UNL     1      25.472  47.935  49.666  1.00  0.00     0.286 C 
HETATM   12  O   UNL     1      26.590  47.913  49.150  1.00  0.00    -0.264 OA
HETATM   13  H   UNL     1      24.307  47.245  51.295  1.00  0.00     0.190 HD
BRANCH  11  14
HETATM   14  C   UNL     1      24.396  48.755  49.161  1.00  0.00     0.102 A 
HETATM   15  N   UNL     1      23.115  48.648  49.665  1.00  0.00    -0.361 N 
HETATM   16  H   UNL     1      22.855  48.003  50.402  1.00  0.00     0.165 HD
HETATM   17  C   UNL     1      22.279  49.526  49.033  1.00  0.00     0.088 A 
HETATM   18  C   UNL     1      23.020  50.217  48.103  1.00  0.00     0.019 A 
HETATM   19  C   UNL     1      24.350  49.735  48.181  1.00  0.00     0.036 A 
ENDBRANCH  11  14
ENDBRANCH   7  10
ENDBRANCH   5   6
BRANCH   1  20
HETATM   20  C   UNL     1      27.679  42.739  51.384  1.00  0.00    -0.002 A 
HETATM   21  C   UNL     1      28.239  41.455  51.406  1.00  0.00     0.050 A 
HETATM   22  C   UNL     1      28.123  40.597  50.306  1.00  0.00     0.069 A 
HETATM   23  C   UNL     1      27.462  41.035  49.158  1.00  0.00     0.037 A 
HETATM   24  C   UNL     1      26.916  42.319  49.114  1.00  0.00     0.004 A 
HETATM   25  C   UNL     1      27.024  43.164  50.219  1.00  0.00     0.014 A 
BRANCH  22  26
HETATM   26  O   UNL     1      28.707  39.370  50.474  1.00  0.00    -0.356 OA
HETATM   27  C   UNL     1      28.867  38.572  49.308  1.00  0.00     0.210 C 
ENDBRANCH  22  26
ENDBRANCH   1  20
BRANCH   3  28
HETATM   28  C   UNL     1      29.548  44.490  55.457  1.00  0.00     0.058 A 
HETATM   29  C   UNL     1      30.512  43.485  55.634  1.00  0.00     0.031 A 
HETATM   30  C   UNL     1      31.403  43.544  56.709  1.00  0.00     0.002 A 
HETATM   31  C   UNL     1      31.335  44.600  57.615  1.00  0.00     0.000 A 
HETATM   32  C   UNL     1      30.379  45.600  57.448  1.00  0.00     0.002 A 
HETATM   33  C   UNL     1      29.485  45.549  56.373  1.00  0.00     0.031 A 
ENDBRANCH   3  28
TORSDOF 6
ENDMDL
MODEL 3
REMARK VINA RESULT:      -9.4      2.371      5.600
REMARK  6 active torsions:
REMARK  status: ('A' for Active; 'I' for Inactive)
REMARK    1  A    between atoms: O_2  and  C_3 
REMARK    2  A    between atoms: C_5  and  C_6 
REMARK    3  A    between atoms: N_8  and  C_9 
REMARK    4  A    between atoms: C_16  and  C_17 
REMARK       I    between atoms: C_17  and  N_18 
REMARK    5  A    between atoms: N_18  and  N_19 
REMARK       I    between atoms: N_19  and  C_20 
REMARK    6  A    between atoms: C_20  and  C_21 
ROOT
HETATM    1  C   UNL     1      27.436  43.317  51.640  1.00  0.00     0.105 A 
HETATM    2  N   UNL     1      27.667  41.997  51.716  1.00  0.00    -0.166 NA
HETATM    3  N   UNL     1      27.476  41.509  50.473  1.00  0.00    -0.244 N 
HETATM    4  C   UNL     1      27.109  42.505  49.601  1.00  0.00     0.138 A 
HETATM    5  C   UNL     1      27.056  43.691  50.315  1.00  0.00     0.082 A 
ENDROOT
BRANCH   5   6
HETATM    6  C   UNL     1      26.653  44.989  49.795  1.00  0.00     0.274 C 
HETATM    7  N   UNL     1      25.299  45.253  49.890  1.00  0.00    -0.263 N 
HETATM    8  H   UNL     1      24.615  44.535  50.118  1.00  0.00     0.190 HD
HETATM    9  O   UNL     1      27.435  45.800  49.304  1.00  0.00    -0.266 OA
BRANCH   7  10
HETATM   10  N   UNL     1      24.794  46.410  49.282  1.00  0.00    -0.262 N 
HETATM   11  C   UNL     1      24.559  47.517  50.071  1.00  0.00     0.286 C 
HETATM   12  O   UNL     1      24.854  47.527  51.266  1.00  0.00    -0.264 OA
HETATM   13  H   UNL     1      24.466  46.322  48.324  1.00  0.00     0.190 HD
BRANCH  11  14
HETATM   14  C   UNL     1      23.945  48.644  49.409  1.00  0.00     0.102 A 
HETATM   15  N   UNL     1      22.638  49.004  49.669  1.00  0.00    -0.361 N 
HETATM   16  H   UNL     1      22.041  48.513  50.324  1.00  0.00     0.165 HD
HETATM   17  C   UNL     1      22.289  50.099  48.928  1.00  0.00     0.088 A 
HETATM   18  C   UNL     1      23.379  50.461  48.172  1.00  0.00     0.019 A 
HETATM   19  C   UNL     1      24.422  49.548  48.472  1.00  0.00     0.036 A 
ENDBRANCH  11  14
ENDBRANCH   7  10
ENDBRANCH   5   6
BRANCH   1  20
HETATM   20  C   UNL     1      27.604  44.141  52.841  1.00  0.00    -0.002 A 
HETATM   21  C   UNL     1      26.662  45.112  53.204  1.00  0.00     0.050 A 
HETATM   22  C   UNL     1      26.842  45.904  54.345  1.00  0.00     0.069 A 
HETATM   23  C   UNL     1      27.990  45.741  55.121  1.00  0.00     0.037 A 
HETATM   24  C   UNL     1      28.946  44.790  54.762  1.00  0.00     0.004 A 
HETATM   25  C   UNL     1      28.755  43.996  53.630  1.00  0.00     0.014 A 
BRANCH  22  26
HETATM   26  O   UNL     1      25.836  46.801  54.582  1.00  0.00    -0.356 OA
HETATM   27  C   UNL     1      26.219  48.069  55.098  1.00  0.00     0.210 C 
ENDBRANCH  22  26
ENDBRANCH   1  20
BRANCH   3  28
HETATM   28  C   UNL     1      27.649  40.122  50.196  1.00  0.00     0.058 A 
HETATM   29  C   UNL     1      28.892  39.521  50.448  1.00  0.00     0.031 A 
HETATM   30  C   UNL     1      29.084  38.162  50.186  1.00  0.00     0.002 A 
HETATM   31  C   UNL     1      28.041  37.397  49.667  1.00  0.00     0.000 A 
HETATM   32  C   UNL     1      26.805  37.987  49.411  1.00  0.00     0.002 A 
HETATM   33  C   UNL     1      26.605  39.347  49.674  1.00  0.00     0.031 A 
ENDBRANCH   3  28
TORSDOF 6
ENDMDL
MODEL 4
REMARK VINA RESULT:      -9.1      2.583      8.533
REMARK  6 active torsions:
REMARK  status: ('A' for Active; 'I' for Inactive)
REMARK    1  A    between atoms: O_2  and  C_3 
REMARK    2  A    between atoms: C_5  and  C_6 
REMARK    3  A    between atoms: N_8  and  C_9 
REMARK    4  A    between atoms: C_16  and  C_17 
REMARK       I    between atoms: C_17  and  N_18 
REMARK    5  A    between atoms: N_18  and  N_19 
REMARK       I    between atoms: N_19  and  C_20 
REMARK    6  A    between atoms: C_20  and  C_21 
ROOT
HETATM    1  C   UNL     1      25.490  46.287  51.502  1.00  0.00     0.105 A 
HETATM    2  N   UNL     1      25.026  47.472  51.074  1.00  0.00    -0.166 NA
HETATM    3  N   UNL     1      24.342  47.220  49.938  1.00  0.00    -0.244 N 
HETATM    4  C   UNL     1      24.378  45.882  49.625  1.00  0.00     0.138 A 
HETATM    5  C   UNL     1      25.122  45.241  50.603  1.00  0.00     0.082 A 
ENDROOT
BRANCH   5   6
HETATM    6  C   UNL     1      25.461  43.827  50.633  1.00  0.00     0.274 C 
HETATM    7  N   UNL     1      26.645  43.504  49.996  1.00  0.00    -0.263 N 
HETATM    8  H   UNL     1      27.138  44.156  49.390  1.00  0.00     0.190 HD
HETATM    9  O   UNL     1      24.765  42.969  51.173  1.00  0.00    -0.266 OA
BRANCH   7  10
HETATM   10  N   UNL     1      26.980  42.152  49.841  1.00  0.00    -0.262 N 
HETATM   11  C   UNL     1      27.934  41.613  50.679  1.00  0.00     0.286 C 
HETATM   12  O   UNL     1      28.430  42.271  51.595  1.00  0.00    -0.264 OA
HETATM   13  H   UNL     1      26.630  41.682  49.011  1.00  0.00     0.190 HD
BRANCH  11  14
HETATM   14  C   UNL     1      28.311  40.245  50.409  1.00  0.00     0.102 A 
HETATM   15  N   UNL     1      29.155  39.553  51.255  1.00  0.00    -0.361 N 
HETATM   16  H   UNL     1      29.553  39.951  52.097  1.00  0.00     0.165 HD
HETATM   17  C   UNL     1      29.358  38.283  50.791  1.00  0.00     0.088 A 
HETATM   18  C   UNL     1      28.640  38.140  49.627  1.00  0.00     0.019 A 
HETATM   19  C   UNL     1      27.981  39.371  49.384  1.00  0.00     0.036 A 
ENDBRANCH  11  14
ENDBRANCH   7  10
ENDBRANCH   5   6
BRANCH   1  20
HETATM   20  C   UNL     1      26.250  46.230  52.755  1.00  0.00    -0.002 A 
HETATM   21  C   UNL     1      26.889  45.056  53.174  1.00  0.00     0.050 A 
HETATM   22  C   UNL     1      27.598  45.009  54.380  1.00  0.00     0.069 A 
HETATM   23  C   UNL     1      27.650  46.143  55.192  1.00  0.00     0.037 A 
HETATM   24  C   UNL     1      27.003  47.315  54.796  1.00  0.00     0.004 A 
HETATM   25  C   UNL     1      26.308  47.358  53.587  1.00  0.00     0.014 A 
BRANCH  22  26
HETATM   26  O   UNL     1      28.180  43.801  54.654  1.00  0.00    -0.356 OA
HETATM   27  C   UNL     1      29.598  43.786  54.769  1.00  0.00     0.210 C 
ENDBRANCH  22  26
ENDBRANCH   1  20
BRANCH   3  28
HETATM   28  C   UNL     1      23.705  48.271  49.218  1.00  0.00     0.058 A 
HETATM   29  C   UNL     1      24.471  49.357  48.767  1.00  0.00     0.031 A 
HETATM   30  C   UNL     1      23.867  50.399  48.057  1.00  0.00     0.002 A 
HETATM   31  C   UNL     1      22.498  50.366  47.798  1.00  0.00     0.000 A 
HETATM   32  C   UNL     1      21.731  49.292  48.246  1.00  0.00     0.002 A 
HETATM   33  C   UNL     1      22.329  48.244  48.954  1.00  0.00     0.031 A 
ENDBRANCH   3  28
TORSDOF 6
ENDMDL
MODEL 5
REMARK VINA RESULT:      -9.1      3.526      6.839
REMARK  6 active torsions:
REMARK  status: ('A' for Active; 'I' for Inactive)
REMARK    1  A    between atoms: O_2  and  C_3 
REMARK    2  A    between atoms: C_5  and  C_6 
REMARK    3  A    between atoms: N_8  and  C_9 
REMARK    4  A    between atoms: C_16  and  C_17 
REMARK       I    between atoms: C_17  and  N_18 
REMARK    5  A    between atoms: N_18  and  N_19 
REMARK       I    between atoms: N_19  and  C_20 
REMARK    6  A    between atoms: C_20  and  C_21 
ROOT
HETATM    1  C   UNL     1      27.069  44.223  52.089  1.00  0.00     0.105 A 
HETATM    2  N   UNL     1      27.665  44.763  53.164  1.00  0.00    -0.166 NA
HETATM    3  N   UNL     1      28.523  43.829  53.626  1.00  0.00    -0.244 N 
HETATM    4  C   UNL     1      28.470  42.687  52.863  1.00  0.00     0.138 A 
HETATM    5  C   UNL     1      27.531  42.891  51.865  1.00  0.00     0.082 A 
ENDROOT
BRANCH   5   6
HETATM    6  C   UNL     1      27.115  41.918  50.867  1.00  0.00     0.274 C 
HETATM    7  N   UNL     1      26.810  40.668  51.372  1.00  0.00    -0.263 N 
HETATM    8  H   UNL     1      27.042  40.389  52.323  1.00  0.00     0.190 HD
HETATM    9  O   UNL     1      27.036  42.164  49.665  1.00  0.00    -0.266 OA
BRANCH   7  10
HETATM   10  N   UNL     1      26.545  39.624  50.476  1.00  0.00    -0.262 N 
HETATM   11  C   UNL     1      27.610  38.903  49.976  1.00  0.00     0.286 C 
HETATM   12  O   UNL     1      28.762  39.110  50.359  1.00  0.00    -0.264 OA
HETATM   13  H   UNL     1      25.600  39.561  50.107  1.00  0.00     0.190 HD
BRANCH  11  14
HETATM   14  C   UNL     1      27.285  37.907  48.981  1.00  0.00     0.102 A 
HETATM   15  N   UNL     1      26.111  37.184  49.048  1.00  0.00    -0.361 N 
HETATM   16  H   UNL     1      25.420  37.303  49.779  1.00  0.00     0.165 HD
HETATM   17  C   UNL     1      26.030  36.310  47.998  1.00  0.00     0.088 A 
HETATM   18  C   UNL     1      27.164  36.462  47.236  1.00  0.00     0.019 A 
HETATM   19  C   UNL     1      27.955  37.464  47.851  1.00  0.00     0.036 A 
ENDBRANCH  11  14
ENDBRANCH   7  10
ENDBRANCH   5   6
BRANCH   1  20
HETATM   20  C   UNL     1      26.098  45.024  51.336  1.00  0.00    -0.002 A 
HETATM   21  C   UNL     1      26.369  46.347  50.964  1.00  0.00     0.050 A 
HETATM   22  C   UNL     1      25.427  47.107  50.258  1.00  0.00     0.069 A 
HETATM   23  C   UNL     1      24.189  46.547  49.942  1.00  0.00     0.037 A 
HETATM   24  C   UNL     1      23.898  45.236  50.322  1.00  0.00     0.004 A 
HETATM   25  C   UNL     1      24.845  44.480  51.015  1.00  0.00     0.014 A 
BRANCH  22  26
HETATM   26  O   UNL     1      25.834  48.378  49.952  1.00  0.00    -0.356 OA
HETATM   27  C   UNL     1      27.057  48.502  49.236  1.00  0.00     0.210 C 
ENDBRANCH  22  26
ENDBRANCH   1  20
BRANCH   3  28
HETATM   28  C   UNL     1      29.334  44.082  54.769  1.00  0.00     0.058 A 
HETATM   29  C   UNL     1      29.105  45.237  55.533  1.00  0.00     0.031 A 
HETATM   30  C   UNL     1      29.886  45.504  56.660  1.00  0.00     0.002 A 
HETATM   31  C   UNL     1      30.903  44.626  57.029  1.00  0.00     0.000 A 
HETATM   32  C   UNL     1      31.139  43.477  56.274  1.00  0.00     0.002 A 
HETATM   33  C   UNL     1      30.358  43.202  55.146  1.00  0.00     0.031 A 
ENDBRANCH   3  28
TORSDOF 6
ENDMDL
MODEL 6
REMARK VINA RESULT:      -9.1      3.661      6.641
REMARK  6 active torsions:
REMARK  status: ('A' for Active; 'I' for Inactive)
REMARK    1  A    between atoms: O_2  and  C_3 
REMARK    2  A    between atoms: C_5  and  C_6 
REMARK    3  A    between atoms: N_8  and  C_9 
REMARK    4  A    between atoms: C_16  and  C_17 
REMARK       I    between atoms: C_17  and  N_18 
REMARK    5  A    between atoms: N_18  and  N_19 
REMARK       I    between atoms: N_19  and  C_20 
REMARK    6  A    between atoms: C_20  and  C_21 
ROOT
HETATM    1  C   UNL     1      27.594  43.382  52.359  1.00  0.00     0.105 A 
HETATM    2  N   UNL     1      28.146  44.132  53.326  1.00  0.00    -0.166 NA
HETATM    3  N   UNL     1      28.970  43.313  54.013  1.00  0.00    -0.244 N 
HETATM    4  C   UNL     1      28.939  42.037  53.502  1.00  0.00     0.138 A 
HETATM    5  C   UNL     1      28.051  42.032  52.438  1.00  0.00     0.082 A 
ENDROOT
BRANCH   5   6
HETATM    6  C   UNL     1      27.671  40.873  51.645  1.00  0.00     0.274 C 
HETATM    7  N   UNL     1      28.724  40.057  51.275  1.00  0.00    -0.263 N 
HETATM    8  H   UNL     1      29.697  40.337  51.375  1.00  0.00     0.190 HD
HETATM    9  O   UNL     1      26.514  40.621  51.315  1.00  0.00    -0.266 OA
BRANCH   7  10
HETATM   10  N   UNL     1      28.479  39.002  50.386  1.00  0.00    -0.262 N 
HETATM   11  C   UNL     1      28.624  39.236  49.034  1.00  0.00     0.286 C 
HETATM   12  O   UNL     1      29.034  40.318  48.611  1.00  0.00    -0.264 OA
HETATM   13  H   UNL     1      28.042  38.168  50.769  1.00  0.00     0.190 HD
BRANCH  11  14
HETATM   14  C   UNL     1      28.263  38.143  48.162  1.00  0.00     0.102 A 
HETATM   15  N   UNL     1      27.123  37.396  48.383  1.00  0.00    -0.361 N 
HETATM   16  H   UNL     1      26.484  37.563  49.151  1.00  0.00     0.165 HD
HETATM   17  C   UNL     1      26.996  36.427  47.427  1.00  0.00     0.088 A 
HETATM   18  C   UNL     1      28.064  36.539  46.569  1.00  0.00     0.019 A 
HETATM   19  C   UNL     1      28.863  37.616  47.029  1.00  0.00     0.036 A 
ENDBRANCH  11  14
ENDBRANCH   7  10
ENDBRANCH   5   6
BRANCH   1  20
HETATM   20  C   UNL     1      26.670  44.011  51.410  1.00  0.00    -0.002 A 
HETATM   21  C   UNL     1      25.296  43.741  51.435  1.00  0.00     0.050 A 
HETATM   22  C   UNL     1      24.425  44.336  50.513  1.00  0.00     0.069 A 
HETATM   23  C   UNL     1      24.936  45.192  49.538  1.00  0.00     0.037 A 
HETATM   24  C   UNL     1      26.306  45.456  49.489  1.00  0.00     0.004 A 
HETATM   25  C   UNL     1      27.167  44.869  50.418  1.00  0.00     0.014 A 
BRANCH  22  26
HETATM   26  O   UNL     1      23.109  43.990  50.665  1.00  0.00    -0.356 OA
HETATM   27  C   UNL     1      22.289  44.070  49.506  1.00  0.00     0.210 C 
ENDBRANCH  22  26
ENDBRANCH   1  20
BRANCH   3  28
HETATM   28  C   UNL     1      29.729  43.796  55.117  1.00  0.00     0.058 A 
HETATM   29  C   UNL     1      30.735  42.986  55.667  1.00  0.00     0.031 A 
HETATM   30  C   UNL     1      31.493  43.441  56.749  1.00  0.00     0.002 A 
HETATM   31  C   UNL     1      31.250  44.700  57.292  1.00  0.00     0.000 A 
HETATM   32  C   UNL     1      30.250  45.509  56.755  1.00  0.00     0.002 A 
HETATM   33  C   UNL     1      29.489  45.062  55.669  1.00  0.00     0.031 A 
ENDBRANCH   3  28
TORSDOF 6
ENDMDL
MODEL 7
REMARK VINA RESULT:      -8.9      2.153      3.090
REMARK  6 active torsions:
REMARK  status: ('A' for Active; 'I' for Inactive)
REMARK    1  A    between atoms: O_2  and  C_3 
REMARK    2  A    between atoms: C_5  and  C_6 
REMARK    3  A    between atoms: N_8  and  C_9 
REMARK    4  A    between atoms: C_16  and  C_17 
REMARK       I    between atoms: C_17  and  N_18 
REMARK    5  A    between atoms: N_18  and  N_19 
REMARK       I    between atoms: N_19  and  C_20 
REMARK    6  A    between atoms: C_20  and  C_21 
ROOT
HETATM    1  C   UNL     1      27.565  42.859  51.568  1.00  0.00     0.105 A 
HETATM    2  N   UNL     1      28.428  42.719  52.588  1.00  0.00    -0.166 NA
HETATM    3  N   UNL     1      28.409  43.889  53.260  1.00  0.00    -0.244 N 
HETATM    4  C   UNL     1      27.550  44.785  52.670  1.00  0.00     0.138 A 
HETATM    5  C   UNL     1      26.992  44.166  51.563  1.00  0.00     0.082 A 
ENDROOT
BRANCH   5   6
HETATM    6  C   UNL     1      26.070  44.773  50.615  1.00  0.00     0.274 C 
HETATM    7  N   UNL     1      25.113  45.593  51.185  1.00  0.00    -0.263 N 
HETATM    8  H   UNL     1      24.939  45.618  52.187  1.00  0.00     0.190 HD
HETATM    9  O   UNL     1      26.117  44.586  49.402  1.00  0.00    -0.266 OA
BRANCH   7  10
HETATM   10  N   UNL     1      24.091  46.102  50.373  1.00  0.00    -0.262 N 
HETATM   11  C   UNL     1      24.156  47.425  49.989  1.00  0.00     0.286 C 
HETATM   12  O   UNL     1      25.123  48.131  50.280  1.00  0.00    -0.264 OA
HETATM   13  H   UNL     1      23.267  45.520  50.249  1.00  0.00     0.190 HD
BRANCH  11  14
HETATM   14  C   UNL     1      23.027  47.920  49.237  1.00  0.00     0.102 A 
HETATM   15  N   UNL     1      22.360  49.068  49.616  1.00  0.00    -0.361 N 
HETATM   16  H   UNL     1      22.615  49.621  50.425  1.00  0.00     0.165 HD
HETATM   17  C   UNL     1      21.336  49.332  48.750  1.00  0.00     0.088 A 
HETATM   18  C   UNL     1      21.330  48.346  47.792  1.00  0.00     0.019 A 
HETATM   19  C   UNL     1      22.391  47.457  48.095  1.00  0.00     0.036 A 
ENDBRANCH  11  14
ENDBRANCH   7  10
ENDBRANCH   5   6
BRANCH   1  20
HETATM   20  C   UNL     1      27.336  41.724  50.668  1.00  0.00    -0.002 A 
HETATM   21  C   UNL     1      28.031  41.594  49.459  1.00  0.00     0.050 A 
HETATM   22  C   UNL     1      27.792  40.514  48.600  1.00  0.00     0.069 A 
HETATM   23  C   UNL     1      26.829  39.565  48.941  1.00  0.00     0.037 A 
HETATM   24  C   UNL     1      26.115  39.691  50.133  1.00  0.00     0.004 A 
HETATM   25  C   UNL     1      26.366  40.763  50.990  1.00  0.00     0.014 A 
BRANCH  22  26
HETATM   26  O   UNL     1      28.553  40.511  47.462  1.00  0.00    -0.356 OA
HETATM   27  C   UNL     1      27.896  40.872  46.253  1.00  0.00     0.210 C 
ENDBRANCH  22  26
ENDBRANCH   1  20
BRANCH   3  28
HETATM   28  C   UNL     1      29.216  44.081  54.418  1.00  0.00     0.058 A 
HETATM   29  C   UNL     1      29.059  45.250  55.179  1.00  0.00     0.031 A 
HETATM   30  C   UNL     1      29.838  45.459  56.320  1.00  0.00     0.002 A 
HETATM   31  C   UNL     1      30.780  44.507  56.706  1.00  0.00     0.000 A 
HETATM   32  C   UNL     1      30.943  43.344  55.955  1.00  0.00     0.002 A 
HETATM   33  C   UNL     1      30.164  43.127  54.813  1.00  0.00     0.031 A 
ENDBRANCH   3  28
TORSDOF 6
ENDMDL
MODEL 8
REMARK VINA RESULT:      -8.8      2.636      3.598
REMARK  6 active torsions:
REMARK  status: ('A' for Active; 'I' for Inactive)
REMARK    1  A    between atoms: O_2  and  C_3 
REMARK    2  A    between atoms: C_5  and  C_6 
REMARK    3  A    between atoms: N_8  and  C_9 
REMARK    4  A    between atoms: C_16  and  C_17 
REMARK       I    between atoms: C_17  and  N_18 
REMARK    5  A    between atoms: N_18  and  N_19 
REMARK       I    between atoms: N_19  and  C_20 
REMARK    6  A    between atoms: C_20  and  C_21 
ROOT
HETATM    1  C   UNL     1      27.697  43.302  51.919  1.00  0.00     0.105 A 
HETATM    2  N   UNL     1      28.648  43.136  52.853  1.00  0.00    -0.166 NA
HETATM    3  N   UNL     1      28.487  44.144  53.736  1.00  0.00    -0.244 N 
HETATM    4  C   UNL     1      27.449  44.965  53.367  1.00  0.00     0.138 A 
HETATM    5  C   UNL     1      26.917  44.467  52.189  1.00  0.00     0.082 A 
ENDROOT
BRANCH   5   6
HETATM    6  C   UNL     1      25.837  45.061  51.417  1.00  0.00     0.274 C 
HETATM    7  N   UNL     1      24.613  44.433  51.558  1.00  0.00    -0.263 N 
HETATM    8  H   UNL     1      24.512  43.523  52.002  1.00  0.00     0.190 HD
HETATM    9  O   UNL     1      25.977  46.041  50.689  1.00  0.00    -0.266 OA
BRANCH   7  10
HETATM   10  N   UNL     1      23.549  44.838  50.742  1.00  0.00    -0.262 N 
HETATM   11  C   UNL     1      22.909  43.884  49.977  1.00  0.00     0.286 C 
HETATM   12  O   UNL     1      23.205  42.691  50.059  1.00  0.00    -0.264 OA
HETATM   13  H   UNL     1      23.412  45.838  50.624  1.00  0.00     0.190 HD
BRANCH  11  14
HETATM   14  C   UNL     1      21.887  44.374  49.082  1.00  0.00     0.102 A 
HETATM   15  N   UNL     1      20.745  44.982  49.562  1.00  0.00    -0.361 N 
HETATM   16  H   UNL     1      20.555  45.119  50.548  1.00  0.00     0.165 HD
HETATM   17  C   UNL     1      19.936  45.362  48.527  1.00  0.00     0.088 A 
HETATM   18  C   UNL     1      20.554  44.998  47.354  1.00  0.00     0.019 A 
HETATM   19  C   UNL     1      21.781  44.377  47.699  1.00  0.00     0.036 A 
ENDBRANCH  11  14
ENDBRANCH   7  10
ENDBRANCH   5   6
BRANCH   1  20
HETATM   20  C   UNL     1      27.590  42.325  50.831  1.00  0.00    -0.002 A 
HETATM   21  C   UNL     1      28.175  41.056  50.923  1.00  0.00     0.050 A 
HETATM   22  C   UNL     1      28.078  40.137  49.870  1.00  0.00     0.069 A 
HETATM   23  C   UNL     1      27.411  40.500  48.700  1.00  0.00     0.037 A 
HETATM   24  C   UNL     1      26.839  41.768  48.586  1.00  0.00     0.004 A 
HETATM   25  C   UNL     1      26.928  42.674  49.644  1.00  0.00     0.014 A 
BRANCH  22  26
HETATM   26  O   UNL     1      28.686  38.934  50.106  1.00  0.00    -0.356 OA
HETATM   27  C   UNL     1      29.086  38.185  48.964  1.00  0.00     0.210 C 
ENDBRANCH  22  26
ENDBRANCH   1  20
BRANCH   3  28
HETATM   28  C   UNL     1      29.339  44.265  54.872  1.00  0.00     0.058 A 
HETATM   29  C   UNL     1      30.249  43.236  55.161  1.00  0.00     0.031 A 
HETATM   30  C   UNL     1      31.095  43.334  56.269  1.00  0.00     0.002 A 
HETATM   31  C   UNL     1      31.035  44.454  57.096  1.00  0.00     0.000 A 
HETATM   32  C   UNL     1      30.132  45.478  56.818  1.00  0.00     0.002 A 
HETATM   33  C   UNL     1      29.284  45.388  55.708  1.00  0.00     0.031 A 
ENDBRANCH   3  28
TORSDOF 6
ENDMDL
MODEL 9
REMARK VINA RESULT:      -8.7      2.758      8.322
REMARK  6 active torsions:
REMARK  status: ('A' for Active; 'I' for Inactive)
REMARK    1  A    between atoms: O_2  and  C_3 
REMARK    2  A    between atoms: C_5  and  C_6 
REMARK    3  A    between atoms: N_8  and  C_9 
REMARK    4  A    between atoms: C_16  and  C_17 
REMARK       I    between atoms: C_17  and  N_18 
REMARK    5  A    between atoms: N_18  and  N_19 
REMARK       I    between atoms: N_19  and  C_20 
REMARK    6  A    between atoms: C_20  and  C_21 
ROOT
HETATM    1  C   UNL     1      25.680  46.037  51.646  1.00  0.00     0.105 A 
HETATM    2  N   UNL     1      25.426  47.276  51.194  1.00  0.00    -0.166 NA
HETATM    3  N   UNL     1      24.633  47.127  50.112  1.00  0.00    -0.244 N 
HETATM    4  C   UNL     1      24.388  45.799  49.857  1.00  0.00     0.138 A 
HETATM    5  C   UNL     1      25.057  45.056  50.817  1.00  0.00     0.082 A 
ENDROOT
BRANCH   5   6
HETATM    6  C   UNL     1      25.117  43.604  50.890  1.00  0.00     0.274 C 
HETATM    7  N   UNL     1      26.217  43.040  50.271  1.00  0.00    -0.263 N 
HETATM    8  H   UNL     1      26.828  43.567  49.651  1.00  0.00     0.190 HD
HETATM    9  O   UNL     1      24.268  42.913  51.449  1.00  0.00    -0.266 OA
BRANCH   7  10
HETATM   10  N   UNL     1      26.286  41.645  50.158  1.00  0.00    -0.262 N 
HETATM   11  C   UNL     1      27.007  41.107  49.112  1.00  0.00     0.286 C 
HETATM   12  O   UNL     1      27.643  41.822  48.336  1.00  0.00    -0.264 OA
HETATM   13  H   UNL     1      25.663  41.103  50.749  1.00  0.00     0.190 HD
BRANCH  11  14
HETATM   14  C   UNL     1      26.960  39.669  48.988  1.00  0.00     0.102 A 
HETATM   15  N   UNL     1      26.513  38.874  50.024  1.00  0.00    -0.361 N 
HETATM   16  H   UNL     1      26.198  39.239  50.915  1.00  0.00     0.165 HD
HETATM   17  C   UNL     1      26.559  37.555  49.666  1.00  0.00     0.088 A 
HETATM   18  C   UNL     1      27.042  37.484  48.381  1.00  0.00     0.019 A 
HETATM   19  C   UNL     1      27.296  38.810  47.952  1.00  0.00     0.036 A 
ENDBRANCH  11  14
ENDBRANCH   7  10
ENDBRANCH   5   6
BRANCH   1  20
HETATM   20  C   UNL     1      26.496  45.872  52.853  1.00  0.00    -0.002 A 
HETATM   21  C   UNL     1      26.472  46.814  53.889  1.00  0.00     0.050 A 
HETATM   22  C   UNL     1      27.268  46.654  55.031  1.00  0.00     0.069 A 
HETATM   23  C   UNL     1      28.118  45.551  55.127  1.00  0.00     0.037 A 
HETATM   24  C   UNL     1      28.166  44.614  54.094  1.00  0.00     0.004 A 
HETATM   25  C   UNL     1      27.361  44.774  52.965  1.00  0.00     0.014 A 
BRANCH  22  26
HETATM   26  O   UNL     1      27.132  47.645  55.965  1.00  0.00    -0.356 OA
HETATM   27  C   UNL     1      26.393  48.795  55.574  1.00  0.00     0.210 C 
ENDBRANCH  22  26
ENDBRANCH   1  20
BRANCH   3  28
HETATM   28  C   UNL     1      24.166  48.259  49.385  1.00  0.00     0.058 A 
HETATM   29  C   UNL     1      25.096  49.147  48.824  1.00  0.00     0.031 A 
HETATM   30  C   UNL     1      24.660  50.264  48.106  1.00  0.00     0.002 A 
HETATM   31  C   UNL     1      23.296  50.503  47.947  1.00  0.00     0.000 A 
HETATM   32  C   UNL     1      22.366  49.627  48.504  1.00  0.00     0.002 A 
HETATM   33  C   UNL     1      22.795  48.505  49.222  1.00  0.00     0.031 A 
ENDBRANCH   3  28
TORSDOF 6
ENDMDL
MODEL 10
REMARK VINA RESULT:      -8.6      4.397      9.645
REMARK  6 active torsions:
REMARK  status: ('A' for Active; 'I' for Inactive)
REMARK    1  A    between atoms: O_2  and  C_3 
REMARK    2  A    between atoms: C_5  and  C_6 
REMARK    3  A    between atoms: N_8  and  C_9 
REMARK    4  A    between atoms: C_16  and  C_17 
REMARK       I    between atoms: C_17  and  N_18 
REMARK    5  A    between atoms: N_18  and  N_19 
REMARK       I    between atoms: N_19  and  C_20 
REMARK    6  A    between atoms: C_20  and  C_21 
ROOT
HETATM    1  C   UNL     1      22.635  48.848  48.668  1.00  0.00     0.105 A 
HETATM    2  N   UNL     1      21.927  49.962  48.912  1.00  0.00    -0.166 NA
HETATM    3  N   UNL     1      20.630  49.626  48.757  1.00  0.00    -0.244 N 
HETATM    4  C   UNL     1      20.500  48.305  48.400  1.00  0.00     0.138 A 
HETATM    5  C   UNL     1      21.774  47.765  48.317  1.00  0.00     0.082 A 
ENDROOT
BRANCH   5   6
HETATM    6  C   UNL     1      22.105  46.407  47.913  1.00  0.00     0.274 C 
HETATM    7  N   UNL     1      22.223  45.507  48.956  1.00  0.00    -0.263 N 
HETATM    8  H   UNL     1      22.271  45.799  49.929  1.00  0.00     0.190 HD
HETATM    9  O   UNL     1      22.274  46.064  46.744  1.00  0.00    -0.266 OA
BRANCH   7  10
HETATM   10  N   UNL     1      22.686  44.214  48.681  1.00  0.00    -0.262 N 
HETATM   11  C   UNL     1      24.038  43.963  48.791  1.00  0.00     0.286 C 
HETATM   12  O   UNL     1      24.819  44.826  49.196  1.00  0.00    -0.264 OA
HETATM   13  H   UNL     1      22.028  43.570  48.250  1.00  0.00     0.190 HD
BRANCH  11  14
HETATM   14  C   UNL     1      24.469  42.642  48.401  1.00  0.00     0.102 A 
HETATM   15  N   UNL     1      25.809  42.331  48.280  1.00  0.00    -0.361 N 
HETATM   16  H   UNL     1      26.556  42.993  48.454  1.00  0.00     0.165 HD
HETATM   17  C   UNL     1      25.963  41.025  47.904  1.00  0.00     0.088 A 
HETATM   18  C   UNL     1      24.710  40.473  47.776  1.00  0.00     0.019 A 
HETATM   19  C   UNL     1      23.769  41.487  48.086  1.00  0.00     0.036 A 
ENDBRANCH  11  14
ENDBRANCH   7  10
ENDBRANCH   5   6
BRANCH   1  20
HETATM   20  C   UNL     1      24.095  48.888  48.798  1.00  0.00    -0.002 A 
HETATM   21  C   UNL     1      24.776  48.057  49.698  1.00  0.00     0.050 A 
HETATM   22  C   UNL     1      26.169  48.117  49.824  1.00  0.00     0.069 A 
HETATM   23  C   UNL     1      26.891  49.035  49.061  1.00  0.00     0.037 A 
HETATM   24  C   UNL     1      26.224  49.882  48.174  1.00  0.00     0.004 A 
HETATM   25  C   UNL     1      24.837  49.810  48.044  1.00  0.00     0.014 A 
BRANCH  22  26
HETATM   26  O   UNL     1      26.698  47.238  50.731  1.00  0.00    -0.356 OA
HETATM   27  C   UNL     1      25.888  46.916  51.856  1.00  0.00     0.210 C 
ENDBRANCH  22  26
ENDBRANCH   1  20
BRANCH   3  28
HETATM   28  C   UNL     1      19.596  50.585  48.952  1.00  0.00     0.058 A 
HETATM   29  C   UNL     1      19.690  51.835  48.321  1.00  0.00     0.031 A 
HETATM   30  C   UNL     1      18.687  52.792  48.496  1.00  0.00     0.002 A 
HETATM   31  C   UNL     1      17.587  52.510  49.304  1.00  0.00     0.000 A 
HETATM   32  C   UNL     1      17.487  51.272  49.937  1.00  0.00     0.002 A 
HETATM   33  C   UNL     1      18.487  50.309  49.764  1.00  0.00     0.031 A 
ENDBRANCH   3  28
TORSDOF 6
ENDMDL
