MODEL 1
REMARK VINA RESULT:      -9.2      0.000      0.000
REMARK  5 active torsions:
REMARK  status: ('A' for Active; 'I' for Inactive)
REMARK    1  A    between atoms: C_2  and  O_3 
REMARK    2  A    between atoms: O_3  and  C_4 
REMARK    3  A    between atoms: C_8  and  C_9 
REMARK    4  A    between atoms: C_9  and  N_10 
REMARK       I    between atoms: N_10  and  C_11 
REMARK       I    between atoms: C_11  and  N_12 
REMARK    5  A    between atoms: N_12  and  C_13 
ROOT
HETATM    1  N   UNL     1      24.262  47.072  50.952  1.00  0.00    -0.339 N 
HETATM    2  C   UNL     1      25.502  46.703  51.407  1.00  0.00     0.316 C 
HETATM    3  N   UNL     1      25.602  46.822  52.775  1.00  0.00    -0.337 N 
HETATM    4  O   UNL     1      26.412  46.326  50.681  1.00  0.00    -0.247 OA
HETATM    5  H   UNL     1      23.732  47.709  51.526  1.00  0.00     0.164 HD
HETATM    6  H   UNL     1      24.733  46.727  53.282  1.00  0.00     0.164 HD
ENDROOT
BRANCH   1   7
HETATM    7  C   UNL     1      23.949  47.037  49.539  1.00  0.00     0.163 C 
BRANCH   7   8
HETATM    8  C   UNL     1      23.520  48.371  48.979  1.00  0.00    -0.035 A 
HETATM    9  C   UNL     1      24.432  49.320  48.511  1.00  0.00     0.028 A 
HETATM   10  C   UNL     1      23.946  50.501  47.969  1.00  0.00     0.120 A 
HETATM   11  N   UNL     1      22.635  50.793  47.848  1.00  0.00    -0.237 NA
HETATM   12  C   UNL     1      21.767  49.857  48.268  1.00  0.00     0.165 A 
HETATM   13  C   UNL     1      22.156  48.649  48.831  1.00  0.00     0.066 A 
BRANCH  12  14
HETATM   14  O   UNL     1      20.410  50.035  48.124  1.00  0.00    -0.324 OA
BRANCH  14  15
HETATM   15  C   UNL     1      19.692  50.898  49.024  1.00  0.00     0.058 C 
HETATM   16  C   UNL     1      19.340  52.262  48.410  1.00  0.00     0.045 C 
HETATM   17  C   UNL     1      20.396  51.032  50.381  1.00  0.00     0.045 C 
HETATM   18  C   UNL     1      18.364  50.149  49.260  1.00  0.00     0.045 C 
ENDBRANCH  14  15
ENDBRANCH  12  14
ENDBRANCH   7   8
ENDBRANCH   1   7
BRANCH   3  19
HETATM   19  C   UNL     1      26.801  46.421  53.455  1.00  0.00     0.100 A 
HETATM   20  C   UNL     1      26.843  45.171  54.303  1.00  0.00     0.049 A 
HETATM   21  C   UNL     1      26.883  46.544  54.956  1.00  0.00     0.024 A 
HETATM   22  C   UNL     1      28.157  44.550  54.661  1.00  0.00    -0.045 A 
HETATM   23  C   UNL     1      28.214  46.742  55.665  1.00  0.00     0.046 A 
HETATM   24  C   UNL     1      28.936  45.435  55.433  1.00  0.00    -0.051 A 
HETATM   25  C   UNL     1      30.205  45.093  55.876  1.00  0.00     0.007 A 
HETATM   26  C   UNL     1      30.706  43.835  55.538  1.00  0.00     0.001 A 
HETATM   27  C   UNL     1      29.940  42.945  54.770  1.00  0.00     0.001 A 
HETATM   28  C   UNL     1      28.662  43.302  54.327  1.00  0.00     0.008 A 
ENDBRANCH   3  19
TORSDOF 5
ENDMDL
MODEL 2
REMARK VINA RESULT:      -9.2      1.512      2.554
REMARK  5 active torsions:
REMARK  status: ('A' for Active; 'I' for Inactive)
REMARK    1  A    between atoms: C_2  and  O_3 
REMARK    2  A    between atoms: O_3  and  C_4 
REMARK    3  A    between atoms: C_8  and  C_9 
REMARK    4  A    between atoms: C_9  and  N_10 
REMARK       I    between atoms: N_10  and  C_11 
REMARK       I    between atoms: C_11  and  N_12 
REMARK    5  A    between atoms: N_12  and  C_13 
ROOT
HETATM    1  N   UNL     1      25.108  45.943  52.172  1.00  0.00    -0.339 N 
HETATM    2  C   UNL     1      26.226  45.285  52.617  1.00  0.00     0.316 C 
HETATM    3  N   UNL     1      26.485  45.556  53.942  1.00  0.00    -0.337 N 
HETATM    4  O   UNL     1      26.914  44.554  51.916  1.00  0.00    -0.247 OA
HETATM    5  H   UNL     1      24.842  46.783  52.662  1.00  0.00     0.164 HD
HETATM    6  H   UNL     1      25.679  45.798  54.501  1.00  0.00     0.164 HD
ENDROOT
BRANCH   1   7
HETATM    7  C   UNL     1      24.665  45.809  50.800  1.00  0.00     0.163 C 
BRANCH   7   8
HETATM    8  C   UNL     1      24.701  47.101  50.022  1.00  0.00    -0.035 A 
HETATM    9  C   UNL     1      25.881  47.816  49.803  1.00  0.00     0.028 A 
HETATM   10  C   UNL     1      25.828  48.971  49.036  1.00  0.00     0.120 A 
HETATM   11  N   UNL     1      24.703  49.447  48.465  1.00  0.00    -0.237 NA
HETATM   12  C   UNL     1      23.582  48.731  48.651  1.00  0.00     0.165 A 
HETATM   13  C   UNL     1      23.533  47.569  49.409  1.00  0.00     0.066 A 
BRANCH  12  14
HETATM   14  O   UNL     1      22.399  49.101  48.054  1.00  0.00    -0.324 OA
BRANCH  14  15
HETATM   15  C   UNL     1      21.394  49.803  48.806  1.00  0.00     0.058 C 
HETATM   16  C   UNL     1      21.976  50.739  49.877  1.00  0.00     0.045 C 
HETATM   17  C   UNL     1      20.331  48.854  49.376  1.00  0.00     0.045 C 
HETATM   18  C   UNL     1      20.706  50.692  47.750  1.00  0.00     0.045 C 
ENDBRANCH  14  15
ENDBRANCH  12  14
ENDBRANCH   7   8
ENDBRANCH   1   7
BRANCH   3  19
HETATM   19  C   UNL     1      27.576  44.910  54.617  1.00  0.00     0.100 A 
HETATM   20  C   UNL     1      28.832  45.667  54.985  1.00  0.00     0.049 A 
HETATM   21  C   UNL     1      28.856  44.634  53.869  1.00  0.00     0.024 A 
HETATM   22  C   UNL     1      29.763  45.118  56.020  1.00  0.00    -0.045 A 
HETATM   23  C   UNL     1      29.767  43.478  54.252  1.00  0.00     0.046 A 
HETATM   24  C   UNL     1      30.296  43.880  55.609  1.00  0.00    -0.051 A 
HETATM   25  C   UNL     1      31.176  43.164  56.407  1.00  0.00     0.007 A 
HETATM   26  C   UNL     1      31.530  43.701  57.646  1.00  0.00     0.001 A 
HETATM   27  C   UNL     1      31.006  44.933  58.066  1.00  0.00     0.001 A 
HETATM   28  C   UNL     1      30.118  45.645  57.253  1.00  0.00     0.008 A 
ENDBRANCH   3  19
TORSDOF 5
ENDMDL
MODEL 3
REMARK VINA RESULT:      -9.1      1.311      1.942
REMARK  5 active torsions:
REMARK  status: ('A' for Active; 'I' for Inactive)
REMARK    1  A    between atoms: C_2  and  O_3 
REMARK    2  A    between atoms: O_3  and  C_4 
REMARK    3  A    between atoms: C_8  and  C_9 
REMARK    4  A    between atoms: C_9  and  N_10 
REMARK       I    between atoms: N_10  and  C_11 
REMARK       I    between atoms: C_11  and  N_12 
REMARK    5  A    between atoms: N_12  and  C_13 
ROOT
HETATM    1  N   UNL     1      24.153  47.039  50.544  1.00  0.00    -0.339 N 
HETATM    2  C   UNL     1      25.332  47.068  51.245  1.00  0.00     0.316 C 
HETATM    3  N   UNL     1      25.371  46.098  52.221  1.00  0.00    -0.337 N 
HETATM    4  O   UNL     1      26.234  47.868  51.032  1.00  0.00    -0.247 OA
HETATM    5  H   UNL     1      23.352  46.640  51.008  1.00  0.00     0.164 HD
HETATM    6  H   UNL     1      24.812  45.277  52.039  1.00  0.00     0.164 HD
ENDROOT
BRANCH   1   7
HETATM    7  C   UNL     1      23.898  47.987  49.480  1.00  0.00     0.163 C 
BRANCH   7   8
HETATM    8  C   UNL     1      22.501  47.909  48.919  1.00  0.00    -0.035 A 
HETATM    9  C   UNL     1      21.918  46.706  48.511  1.00  0.00     0.028 A 
HETATM   10  C   UNL     1      20.610  46.721  48.050  1.00  0.00     0.120 A 
HETATM   11  N   UNL     1      19.846  47.831  47.982  1.00  0.00    -0.237 NA
HETATM   12  C   UNL     1      20.403  48.975  48.412  1.00  0.00     0.165 A 
HETATM   13  C   UNL     1      21.707  49.061  48.882  1.00  0.00     0.066 A 
BRANCH  12  14
HETATM   14  O   UNL     1      19.681  50.145  48.445  1.00  0.00    -0.324 OA
BRANCH  14  15
HETATM   15  C   UNL     1      18.653  50.336  49.433  1.00  0.00     0.058 C 
HETATM   16  C   UNL     1      18.855  49.484  50.695  1.00  0.00     0.045 C 
HETATM   17  C   UNL     1      17.246  50.179  48.841  1.00  0.00     0.045 C 
HETATM   18  C   UNL     1      18.821  51.813  49.848  1.00  0.00     0.045 C 
ENDBRANCH  14  15
ENDBRANCH  12  14
ENDBRANCH   7   8
ENDBRANCH   1   7
BRANCH   3  19
HETATM   19  C   UNL     1      26.549  45.920  53.022  1.00  0.00     0.100 A 
HETATM   20  C   UNL     1      26.675  44.765  53.989  1.00  0.00     0.049 A 
HETATM   21  C   UNL     1      26.489  46.183  54.506  1.00  0.00     0.024 A 
HETATM   22  C   UNL     1      28.022  44.357  54.500  1.00  0.00    -0.045 A 
HETATM   23  C   UNL     1      27.719  46.616  55.287  1.00  0.00     0.046 A 
HETATM   24  C   UNL     1      28.616  45.401  55.237  1.00  0.00    -0.051 A 
HETATM   25  C   UNL     1      29.875  45.269  55.802  1.00  0.00     0.007 A 
HETATM   26  C   UNL     1      30.556  44.063  55.625  1.00  0.00     0.001 A 
HETATM   27  C   UNL     1      29.975  43.017  54.893  1.00  0.00     0.001 A 
HETATM   28  C   UNL     1      28.705  43.161  54.326  1.00  0.00     0.008 A 
ENDBRANCH   3  19
TORSDOF 5
ENDMDL
MODEL 4
REMARK VINA RESULT:      -9.0      1.284      1.572
REMARK  5 active torsions:
REMARK  status: ('A' for Active; 'I' for Inactive)
REMARK    1  A    between atoms: C_2  and  O_3 
REMARK    2  A    between atoms: O_3  and  C_4 
REMARK    3  A    between atoms: C_8  and  C_9 
REMARK    4  A    between atoms: C_9  and  N_10 
REMARK       I    between atoms: N_10  and  C_11 
REMARK       I    between atoms: C_11  and  N_12 
REMARK    5  A    between atoms: N_12  and  C_13 
ROOT
HETATM    1  N   UNL     1      24.158  47.115  50.333  1.00  0.00    -0.339 N 
HETATM    2  C   UNL     1      25.331  47.191  51.040  1.00  0.00     0.316 C 
HETATM    3  N   UNL     1      25.275  46.461  52.206  1.00  0.00    -0.337 N 
HETATM    4  O   UNL     1      26.305  47.839  50.680  1.00  0.00    -0.247 OA
HETATM    5  H   UNL     1      23.321  46.903  50.854  1.00  0.00     0.164 HD
HETATM    6  H   UNL     1      24.641  45.674  52.195  1.00  0.00     0.164 HD
ENDROOT
BRANCH   1   7
HETATM    7  C   UNL     1      23.998  47.824  49.081  1.00  0.00     0.163 C 
BRANCH   7   8
HETATM    8  C   UNL     1      22.838  48.787  49.073  1.00  0.00    -0.035 A 
HETATM    9  C   UNL     1      23.000  50.166  49.226  1.00  0.00     0.028 A 
HETATM   10  C   UNL     1      21.881  50.982  49.159  1.00  0.00     0.120 A 
HETATM   11  N   UNL     1      20.630  50.529  48.937  1.00  0.00    -0.237 NA
HETATM   12  C   UNL     1      20.489  49.206  48.754  1.00  0.00     0.165 A 
HETATM   13  C   UNL     1      21.548  48.309  48.812  1.00  0.00     0.066 A 
BRANCH  12  14
HETATM   14  O   UNL     1      19.263  48.659  48.455  1.00  0.00    -0.324 OA
BRANCH  14  15
HETATM   15  C   UNL     1      18.165  48.793  49.375  1.00  0.00     0.058 C 
HETATM   16  C   UNL     1      17.313  50.048  49.129  1.00  0.00     0.045 C 
HETATM   17  C   UNL     1      18.618  48.671  50.836  1.00  0.00     0.045 C 
HETATM   18  C   UNL     1      17.277  47.571  49.059  1.00  0.00     0.045 C 
ENDBRANCH  14  15
ENDBRANCH  12  14
ENDBRANCH   7   8
ENDBRANCH   1   7
BRANCH   3  19
HETATM   19  C   UNL     1      26.427  46.357  53.056  1.00  0.00     0.100 A 
HETATM   20  C   UNL     1      26.583  45.215  54.033  1.00  0.00     0.049 A 
HETATM   21  C   UNL     1      26.289  46.621  54.534  1.00  0.00     0.024 A 
HETATM   22  C   UNL     1      27.929  44.891  54.602  1.00  0.00    -0.045 A 
HETATM   23  C   UNL     1      27.458  47.130  55.363  1.00  0.00     0.046 A 
HETATM   24  C   UNL     1      28.428  45.971  55.356  1.00  0.00    -0.051 A 
HETATM   25  C   UNL     1      29.669  45.918  55.974  1.00  0.00     0.007 A 
HETATM   26  C   UNL     1      30.428  44.756  55.832  1.00  0.00     0.001 A 
HETATM   27  C   UNL     1      29.942  43.674  55.083  1.00  0.00     0.001 A 
HETATM   28  C   UNL     1      28.690  43.739  54.464  1.00  0.00     0.008 A 
ENDBRANCH   3  19
TORSDOF 5
ENDMDL
MODEL 5
REMARK VINA RESULT:      -8.3      1.851      2.787
REMARK  5 active torsions:
REMARK  status: ('A' for Active; 'I' for Inactive)
REMARK    1  A    between atoms: C_2  and  O_3 
REMARK    2  A    between atoms: O_3  and  C_4 
REMARK    3  A    between atoms: C_8  and  C_9 
REMARK    4  A    between atoms: C_9  and  N_10 
REMARK       I    between atoms: N_10  and  C_11 
REMARK       I    between atoms: C_11  and  N_12 
REMARK    5  A    between atoms: N_12  and  C_13 
ROOT
HETATM    1  N   UNL     1      23.329  47.804  49.183  1.00  0.00    -0.339 N 
HETATM    2  C   UNL     1      24.448  47.723  49.973  1.00  0.00     0.316 C 
HETATM    3  N   UNL     1      24.382  46.661  50.847  1.00  0.00    -0.337 N 
HETATM    4  O   UNL     1      25.385  48.508  49.912  1.00  0.00    -0.247 OA
HETATM    5  H   UNL     1      22.482  47.389  49.542  1.00  0.00     0.164 HD
HETATM    6  H   UNL     1      23.817  45.882  50.540  1.00  0.00     0.164 HD
ENDROOT
BRANCH   1   7
HETATM    7  C   UNL     1      23.186  48.860  48.204  1.00  0.00     0.163 C 
BRANCH   7   8
HETATM    8  C   UNL     1      21.836  49.531  48.227  1.00  0.00    -0.035 A 
HETATM    9  C   UNL     1      21.675  50.894  48.490  1.00  0.00     0.028 A 
HETATM   10  C   UNL     1      20.399  51.436  48.446  1.00  0.00     0.120 A 
HETATM   11  N   UNL     1      19.289  50.731  48.145  1.00  0.00    -0.237 NA
HETATM   12  C   UNL     1      19.460  49.430  47.858  1.00  0.00     0.165 A 
HETATM   13  C   UNL     1      20.695  48.796  47.885  1.00  0.00     0.066 A 
BRANCH  12  14
HETATM   14  O   UNL     1      18.397  48.645  47.475  1.00  0.00    -0.324 OA
BRANCH  14  15
HETATM   15  C   UNL     1      17.726  47.811  48.437  1.00  0.00     0.058 C 
HETATM   16  C   UNL     1      18.076  48.158  49.892  1.00  0.00     0.045 C 
HETATM   17  C   UNL     1      17.907  46.318  48.132  1.00  0.00     0.045 C 
HETATM   18  C   UNL     1      16.235  48.151  48.233  1.00  0.00     0.045 C 
ENDBRANCH  14  15
ENDBRANCH  12  14
ENDBRANCH   7   8
ENDBRANCH   1   7
BRANCH   3  19
HETATM   19  C   UNL     1      25.487  46.364  51.714  1.00  0.00     0.100 A 
HETATM   20  C   UNL     1      25.340  45.408  52.875  1.00  0.00     0.049 A 
HETATM   21  C   UNL     1      25.493  46.901  53.123  1.00  0.00     0.024 A 
HETATM   22  C   UNL     1      26.554  44.800  53.506  1.00  0.00    -0.045 A 
HETATM   23  C   UNL     1      26.793  47.172  53.865  1.00  0.00     0.046 A 
HETATM   24  C   UNL     1      27.379  45.794  54.068  1.00  0.00    -0.051 A 
HETATM   25  C   UNL     1      28.573  45.480  54.699  1.00  0.00     0.007 A 
HETATM   26  C   UNL     1      28.950  44.138  54.768  1.00  0.00     0.001 A 
HETATM   27  C   UNL     1      28.138  43.139  54.211  1.00  0.00     0.001 A 
HETATM   28  C   UNL     1      26.936  43.467  53.576  1.00  0.00     0.008 A 
ENDBRANCH   3  19
TORSDOF 5
ENDMDL
MODEL 6
REMARK VINA RESULT:      -8.1      3.387      4.800
REMARK  5 active torsions:
REMARK  status: ('A' for Active; 'I' for Inactive)
REMARK    1  A    between atoms: C_2  and  O_3 
REMARK    2  A    between atoms: O_3  and  C_4 
REMARK    3  A    between atoms: C_8  and  C_9 
REMARK    4  A    between atoms: C_9  and  N_10 
REMARK       I    between atoms: N_10  and  C_11 
REMARK       I    between atoms: C_11  and  N_12 
REMARK    5  A    between atoms: N_12  and  C_13 
ROOT
HETATM    1  N   UNL     1      24.586  42.533  50.566  1.00  0.00    -0.339 N 
HETATM    2  C   UNL     1      25.326  42.883  51.667  1.00  0.00     0.316 C 
HETATM    3  N   UNL     1      26.573  42.299  51.652  1.00  0.00    -0.337 N 
HETATM    4  O   UNL     1      24.921  43.618  52.558  1.00  0.00    -0.247 OA
HETATM    5  H   UNL     1      24.823  41.666  50.110  1.00  0.00     0.164 HD
HETATM    6  H   UNL     1      26.940  42.085  50.736  1.00  0.00     0.164 HD
ENDROOT
BRANCH   1   7
HETATM    7  C   UNL     1      23.236  43.026  50.393  1.00  0.00     0.163 C 
BRANCH   7   8
HETATM    8  C   UNL     1      23.159  44.344  49.664  1.00  0.00    -0.035 A 
HETATM    9  C   UNL     1      22.234  44.592  48.648  1.00  0.00     0.028 A 
HETATM   10  C   UNL     1      22.204  45.850  48.064  1.00  0.00     0.120 A 
HETATM   11  N   UNL     1      23.009  46.869  48.428  1.00  0.00    -0.237 NA
HETATM   12  C   UNL     1      23.870  46.631  49.431  1.00  0.00     0.165 A 
HETATM   13  C   UNL     1      23.979  45.404  50.070  1.00  0.00     0.066 A 
BRANCH  12  14
HETATM   14  O   UNL     1      24.684  47.629  49.916  1.00  0.00    -0.324 OA
BRANCH  14  15
HETATM   15  C   UNL     1      26.089  47.388  50.113  1.00  0.00     0.058 C 
HETATM   16  C   UNL     1      26.982  48.507  49.556  1.00  0.00     0.045 C 
HETATM   17  C   UNL     1      26.512  46.000  49.614  1.00  0.00     0.045 C 
HETATM   18  C   UNL     1      26.246  47.400  51.647  1.00  0.00     0.045 C 
ENDBRANCH  14  15
ENDBRANCH  12  14
ENDBRANCH   7   8
ENDBRANCH   1   7
BRANCH   3  19
HETATM   19  C   UNL     1      27.527  42.594  52.684  1.00  0.00     0.100 A 
HETATM   20  C   UNL     1      28.213  43.939  52.760  1.00  0.00     0.049 A 
HETATM   21  C   UNL     1      28.990  42.701  52.337  1.00  0.00     0.024 A 
HETATM   22  C   UNL     1      28.871  44.375  54.031  1.00  0.00    -0.045 A 
HETATM   23  C   UNL     1      30.074  42.396  53.359  1.00  0.00     0.046 A 
HETATM   24  C   UNL     1      29.926  43.506  54.374  1.00  0.00    -0.051 A 
HETATM   25  C   UNL     1      30.682  43.693  55.521  1.00  0.00     0.007 A 
HETATM   26  C   UNL     1      30.374  44.777  56.346  1.00  0.00     0.001 A 
HETATM   27  C   UNL     1      29.325  45.649  56.015  1.00  0.00     0.001 A 
HETATM   28  C   UNL     1      28.569  45.449  54.856  1.00  0.00     0.008 A 
ENDBRANCH   3  19
TORSDOF 5
ENDMDL
MODEL 7
REMARK VINA RESULT:      -8.1      2.871      3.854
REMARK  5 active torsions:
REMARK  status: ('A' for Active; 'I' for Inactive)
REMARK    1  A    between atoms: C_2  and  O_3 
REMARK    2  A    between atoms: O_3  and  C_4 
REMARK    3  A    between atoms: C_8  and  C_9 
REMARK    4  A    between atoms: C_9  and  N_10 
REMARK       I    between atoms: N_10  and  C_11 
REMARK       I    between atoms: C_11  and  N_12 
REMARK    5  A    between atoms: N_12  and  C_13 
ROOT
HETATM    1  N   UNL     1      24.437  46.399  50.402  1.00  0.00    -0.339 N 
HETATM    2  C   UNL     1      25.482  46.621  51.263  1.00  0.00     0.316 C 
HETATM    3  N   UNL     1      25.764  45.509  52.024  1.00  0.00    -0.337 N 
HETATM    4  O   UNL     1      26.081  47.685  51.349  1.00  0.00    -0.247 OA
HETATM    5  H   UNL     1      23.779  45.677  50.655  1.00  0.00     0.164 HD
HETATM    6  H   UNL     1      25.524  44.623  51.603  1.00  0.00     0.164 HD
ENDROOT
BRANCH   1   7
HETATM    7  C   UNL     1      23.965  47.445  49.520  1.00  0.00     0.163 C 
BRANCH   7   8
HETATM    8  C   UNL     1      22.554  47.238  49.032  1.00  0.00    -0.035 A 
HETATM    9  C   UNL     1      21.663  48.294  48.829  1.00  0.00     0.028 A 
HETATM   10  C   UNL     1      20.398  48.015  48.334  1.00  0.00     0.120 A 
HETATM   11  N   UNL     1      19.969  46.777  48.015  1.00  0.00    -0.237 NA
HETATM   12  C   UNL     1      20.846  45.772  48.179  1.00  0.00     0.165 A 
HETATM   13  C   UNL     1      22.130  45.952  48.676  1.00  0.00     0.066 A 
BRANCH  12  14
HETATM   14  O   UNL     1      20.522  44.485  47.819  1.00  0.00    -0.324 OA
BRANCH  14  15
HETATM   15  C   UNL     1      20.652  44.059  46.450  1.00  0.00     0.058 C 
HETATM   16  C   UNL     1      21.321  45.107  45.547  1.00  0.00     0.045 C 
HETATM   17  C   UNL     1      19.322  43.555  45.874  1.00  0.00     0.045 C 
HETATM   18  C   UNL     1      21.610  42.853  46.536  1.00  0.00     0.045 C 
ENDBRANCH  14  15
ENDBRANCH  12  14
ENDBRANCH   7   8
ENDBRANCH   1   7
BRANCH   3  19
HETATM   19  C   UNL     1      26.869  45.517  52.941  1.00  0.00     0.100 A 
HETATM   20  C   UNL     1      27.092  44.381  53.913  1.00  0.00     0.049 A 
HETATM   21  C   UNL     1      26.617  45.738  54.411  1.00  0.00     0.024 A 
HETATM   22  C   UNL     1      28.430  44.197  54.558  1.00  0.00    -0.045 A 
HETATM   23  C   UNL     1      27.672  46.357  55.314  1.00  0.00     0.046 A 
HETATM   24  C   UNL     1      28.762  45.312  55.353  1.00  0.00    -0.051 A 
HETATM   25  C   UNL     1      29.963  45.383  56.043  1.00  0.00     0.007 A 
HETATM   26  C   UNL     1      30.852  44.313  55.934  1.00  0.00     0.001 A 
HETATM   27  C   UNL     1      30.533  43.198  55.146  1.00  0.00     0.001 A 
HETATM   28  C   UNL     1      29.320  43.137  54.453  1.00  0.00     0.008 A 
ENDBRANCH   3  19
TORSDOF 5
ENDMDL
MODEL 8
REMARK VINA RESULT:      -8.0      3.235      4.702
REMARK  5 active torsions:
REMARK  status: ('A' for Active; 'I' for Inactive)
REMARK    1  A    between atoms: C_2  and  O_3 
REMARK    2  A    between atoms: O_3  and  C_4 
REMARK    3  A    between atoms: C_8  and  C_9 
REMARK    4  A    between atoms: C_9  and  N_10 
REMARK       I    between atoms: N_10  and  C_11 
REMARK       I    between atoms: C_11  and  N_12 
REMARK    5  A    between atoms: N_12  and  C_13 
ROOT
HETATM    1  N   UNL     1      25.531  43.442  51.916  1.00  0.00    -0.339 N 
HETATM    2  C   UNL     1      26.194  43.720  53.085  1.00  0.00     0.316 C 
HETATM    3  N   UNL     1      27.396  43.053  53.164  1.00  0.00    -0.337 N 
HETATM    4  O   UNL     1      25.761  44.463  53.956  1.00  0.00    -0.247 OA
HETATM    5  H   UNL     1      25.750  42.569  51.461  1.00  0.00     0.164 HD
HETATM    6  H   UNL     1      27.827  42.832  52.278  1.00  0.00     0.164 HD
ENDROOT
BRANCH   1   7
HETATM    7  C   UNL     1      24.237  44.028  51.639  1.00  0.00     0.163 C 
BRANCH   7   8
HETATM    8  C   UNL     1      23.760  43.804  50.226  1.00  0.00    -0.035 A 
HETATM    9  C   UNL     1      23.545  42.529  49.696  1.00  0.00     0.028 A 
HETATM   10  C   UNL     1      23.060  42.418  48.401  1.00  0.00     0.120 A 
HETATM   11  N   UNL     1      22.763  43.472  47.614  1.00  0.00    -0.237 NA
HETATM   12  C   UNL     1      22.938  44.693  48.146  1.00  0.00     0.165 A 
HETATM   13  C   UNL     1      23.426  44.905  49.429  1.00  0.00     0.066 A 
BRANCH  12  14
HETATM   14  O   UNL     1      22.599  45.826  47.445  1.00  0.00    -0.324 OA
BRANCH  14  15
HETATM   15  C   UNL     1      21.235  46.285  47.421  1.00  0.00     0.058 C 
HETATM   16  C   UNL     1      20.323  45.535  48.402  1.00  0.00     0.045 C 
HETATM   17  C   UNL     1      20.662  46.317  45.997  1.00  0.00     0.045 C 
HETATM   18  C   UNL     1      21.335  47.743  47.915  1.00  0.00     0.045 C 
ENDBRANCH  14  15
ENDBRANCH  12  14
ENDBRANCH   7   8
ENDBRANCH   1   7
BRANCH   3  19
HETATM   19  C   UNL     1      28.273  43.263  54.281  1.00  0.00     0.100 A 
HETATM   20  C   UNL     1      28.984  44.580  54.486  1.00  0.00     0.049 A 
HETATM   21  C   UNL     1      29.761  43.345  54.055  1.00  0.00     0.024 A 
HETATM   22  C   UNL     1      29.551  44.927  55.827  1.00  0.00    -0.045 A 
HETATM   23  C   UNL     1      30.753  42.953  55.139  1.00  0.00     0.046 A 
HETATM   24  C   UNL     1      30.554  44.009  56.200  1.00  0.00    -0.051 A 
HETATM   25  C   UNL     1      31.221  44.111  57.411  1.00  0.00     0.007 A 
HETATM   26  C   UNL     1      30.876  45.157  58.270  1.00  0.00     0.001 A 
HETATM   27  C   UNL     1      29.879  46.076  57.909  1.00  0.00     0.001 A 
HETATM   28  C   UNL     1      29.212  45.963  56.686  1.00  0.00     0.008 A 
ENDBRANCH   3  19
TORSDOF 5
ENDMDL
MODEL 9
REMARK VINA RESULT:      -8.0      2.200      2.932
REMARK  5 active torsions:
REMARK  status: ('A' for Active; 'I' for Inactive)
REMARK    1  A    between atoms: C_2  and  O_3 
REMARK    2  A    between atoms: O_3  and  C_4 
REMARK    3  A    between atoms: C_8  and  C_9 
REMARK    4  A    between atoms: C_9  and  N_10 
REMARK       I    between atoms: N_10  and  C_11 
REMARK       I    between atoms: C_11  and  N_12 
REMARK    5  A    between atoms: N_12  and  C_13 
ROOT
HETATM    1  N   UNL     1      24.377  43.853  50.091  1.00  0.00    -0.339 N 
HETATM    2  C   UNL     1      24.996  44.269  51.242  1.00  0.00     0.316 C 
HETATM    3  N   UNL     1      26.341  43.974  51.235  1.00  0.00    -0.337 N 
HETATM    4  O   UNL     1      24.418  44.825  52.166  1.00  0.00    -0.247 OA
HETATM    5  H   UNL     1      24.810  43.096  49.583  1.00  0.00     0.164 HD
HETATM    6  H   UNL     1      26.768  43.918  50.321  1.00  0.00     0.164 HD
ENDROOT
BRANCH   1   7
HETATM    7  C   UNL     1      22.956  44.050  49.899  1.00  0.00     0.163 C 
BRANCH   7   8
HETATM    8  C   UNL     1      22.622  45.029  48.801  1.00  0.00    -0.035 A 
HETATM    9  C   UNL     1      22.017  44.641  47.604  1.00  0.00     0.028 A 
HETATM   10  C   UNL     1      21.703  45.616  46.668  1.00  0.00     0.120 A 
HETATM   11  N   UNL     1      21.931  46.933  46.845  1.00  0.00    -0.237 NA
HETATM   12  C   UNL     1      22.479  47.299  48.016  1.00  0.00     0.165 A 
HETATM   13  C   UNL     1      22.835  46.397  49.009  1.00  0.00     0.066 A 
BRANCH  12  14
HETATM   14  O   UNL     1      22.687  48.626  48.315  1.00  0.00    -0.324 OA
BRANCH  14  15
HETATM   15  C   UNL     1      21.580  49.471  48.678  1.00  0.00     0.058 C 
HETATM   16  C   UNL     1      20.423  48.708  49.341  1.00  0.00     0.045 C 
HETATM   17  C   UNL     1      21.110  50.341  47.505  1.00  0.00     0.045 C 
HETATM   18  C   UNL     1      22.177  50.410  49.746  1.00  0.00     0.045 C 
ENDBRANCH  14  15
ENDBRANCH  12  14
ENDBRANCH   7   8
ENDBRANCH   1   7
BRANCH   3  19
HETATM   19  C   UNL     1      27.182  44.388  52.323  1.00  0.00     0.100 A 
HETATM   20  C   UNL     1      27.521  43.449  53.457  1.00  0.00     0.049 A 
HETATM   21  C   UNL     1      26.579  44.621  53.685  1.00  0.00     0.024 A 
HETATM   22  C   UNL     1      28.691  43.735  54.345  1.00  0.00    -0.045 A 
HETATM   23  C   UNL     1      27.197  45.600  54.672  1.00  0.00     0.046 A 
HETATM   24  C   UNL     1      28.512  44.950  55.035  1.00  0.00    -0.051 A 
HETATM   25  C   UNL     1      29.470  45.440  55.910  1.00  0.00     0.007 A 
HETATM   26  C   UNL     1      30.635  44.695  56.098  1.00  0.00     0.001 A 
HETATM   27  C   UNL     1      30.825  43.484  55.416  1.00  0.00     0.001 A 
HETATM   28  C   UNL     1      29.853  43.000  54.535  1.00  0.00     0.008 A 
ENDBRANCH   3  19
TORSDOF 5
ENDMDL
MODEL 10
REMARK VINA RESULT:      -7.9      3.022      3.992
REMARK  5 active torsions:
REMARK  status: ('A' for Active; 'I' for Inactive)
REMARK    1  A    between atoms: C_2  and  O_3 
REMARK    2  A    between atoms: O_3  and  C_4 
REMARK    3  A    between atoms: C_8  and  C_9 
REMARK    4  A    between atoms: C_9  and  N_10 
REMARK       I    between atoms: N_10  and  C_11 
REMARK       I    between atoms: C_11  and  N_12 
REMARK    5  A    between atoms: N_12  and  C_13 
ROOT
HETATM    1  N   UNL     1      24.306  43.085  50.603  1.00  0.00    -0.339 N 
HETATM    2  C   UNL     1      25.120  43.322  51.682  1.00  0.00     0.316 C 
HETATM    3  N   UNL     1      26.279  42.581  51.622  1.00  0.00    -0.337 N 
HETATM    4  O   UNL     1      24.840  44.091  52.592  1.00  0.00    -0.247 OA
HETATM    5  H   UNL     1      24.415  42.200  50.131  1.00  0.00     0.164 HD
HETATM    6  H   UNL     1      26.587  42.333  50.693  1.00  0.00     0.164 HD
ENDROOT
BRANCH   1   7
HETATM    7  C   UNL     1      23.027  43.750  50.476  1.00  0.00     0.163 C 
BRANCH   7   8
HETATM    8  C   UNL     1      22.715  44.204  49.073  1.00  0.00    -0.035 A 
HETATM    9  C   UNL     1      23.515  43.872  47.977  1.00  0.00     0.028 A 
HETATM   10  C   UNL     1      23.126  44.295  46.714  1.00  0.00     0.120 A 
HETATM   11  N   UNL     1      22.004  45.001  46.467  1.00  0.00    -0.237 NA
HETATM   12  C   UNL     1      21.223  45.283  47.523  1.00  0.00     0.165 A 
HETATM   13  C   UNL     1      21.532  44.911  48.825  1.00  0.00     0.066 A 
BRANCH  12  14
HETATM   14  O   UNL     1      20.026  45.941  47.362  1.00  0.00    -0.324 OA
BRANCH  14  15
HETATM   15  C   UNL     1      19.921  47.344  47.665  1.00  0.00     0.058 C 
HETATM   16  C   UNL     1      21.278  48.062  47.702  1.00  0.00     0.045 C 
HETATM   17  C   UNL     1      19.089  47.600  48.930  1.00  0.00     0.045 C 
HETATM   18  C   UNL     1      19.135  47.915  46.467  1.00  0.00     0.045 C 
ENDBRANCH  14  15
ENDBRANCH  12  14
ENDBRANCH   7   8
ENDBRANCH   1   7
BRANCH   3  19
HETATM   19  C   UNL     1      27.294  42.737  52.626  1.00  0.00     0.100 A 
HETATM   20  C   UNL     1      28.113  44.003  52.726  1.00  0.00     0.049 A 
HETATM   21  C   UNL     1      28.747  42.715  52.224  1.00  0.00     0.024 A 
HETATM   22  C   UNL     1      28.857  44.318  53.986  1.00  0.00    -0.045 A 
HETATM   23  C   UNL     1      29.832  42.261  53.189  1.00  0.00     0.046 A 
HETATM   24  C   UNL     1      29.832  43.336  54.252  1.00  0.00    -0.051 A 
HETATM   25  C   UNL     1      30.643  43.399  55.375  1.00  0.00     0.007 A 
HETATM   26  C   UNL     1      30.474  44.471  56.253  1.00  0.00     0.001 A 
HETATM   27  C   UNL     1      29.506  45.455  55.999  1.00  0.00     0.001 A 
HETATM   28  C   UNL     1      28.693  45.380  54.864  1.00  0.00     0.008 A 
ENDBRANCH   3  19
TORSDOF 5
ENDMDL
