MODEL 1
REMARK VINA RESULT:     -10.4      0.000      0.000
REMARK  9 active torsions:
REMARK  status: ('A' for Active; 'I' for Inactive)
REMARK    1  A    between atoms: N_2  and  C_4 
REMARK    2  A    between atoms: N_2  and  C_35 
REMARK    3  A    between atoms: C_4  and  C_5 
REMARK    4  A    between atoms: N_8  and  C_9 
REMARK    5  A    between atoms: C_12  and  N_13 
REMARK       I    between atoms: N_13  and  C_14 
REMARK       I    between atoms: C_14  and  N_15 
REMARK    6  A    between atoms: N_15  and  C_16 
REMARK    7  A    between atoms: C_19  and  O_20 
REMARK    8  A    between atoms: O_20  and  C_21 
REMARK    9  A    between atoms: C_35  and  C_36 
ROOT
HETATM    1  C   UNL     1      25.245  45.687  49.904  1.00  0.00     0.161 C 
HETATM    2  C   UNL     1      24.973  47.007  50.617  1.00  0.00     0.179 C 
HETATM    3  C   UNL     1      23.962  47.685  49.709  1.00  0.00     0.177 C 
HETATM    4  C   UNL     1      24.770  48.701  48.906  1.00  0.00     0.141 C 
HETATM    5  C   UNL     1      26.177  48.653  49.493  1.00  0.00     0.196 C 
HETATM    6  O   UNL     1      26.124  47.860  50.692  1.00  0.00    -0.379 OA
HETATM    7  O   UNL     1      23.399  46.691  48.835  1.00  0.00    -0.379 OA
HETATM    8  C   UNL     1      23.909  45.412  49.235  1.00  0.00     0.198 C 
ENDROOT
BRANCH   4   9
HETATM    9  N   UNL     1      24.149  50.018  48.845  1.00  0.00    -0.334 N 
HETATM   10  C   UNL     1      22.864  50.441  48.745  1.00  0.00     0.321 C 
HETATM   11  N   UNL     1      21.876  49.524  48.971  1.00  0.00    -0.309 N 
HETATM   12  O   UNL     1      22.708  51.628  48.473  1.00  0.00    -0.247 OA
HETATM   13  H   UNL     1      22.138  48.663  49.420  1.00  0.00     0.170 HD
HETATM   14  H   UNL     1      24.767  50.787  48.606  1.00  0.00     0.164 HD
BRANCH  11  15
HETATM   15  C   UNL     1      20.486  49.798  48.944  1.00  0.00     0.036 A 
HETATM   16  C   UNL     1      19.788  50.343  50.024  1.00  0.00     0.032 A 
HETATM   17  C   UNL     1      18.405  50.527  49.959  1.00  0.00     0.039 A 
HETATM   18  C   UNL     1      17.693  50.178  48.810  1.00  0.00     0.076 A 
HETATM   19  C   UNL     1      18.383  49.656  47.717  1.00  0.00     0.039 A 
HETATM   20  C   UNL     1      19.774  49.484  47.778  1.00  0.00     0.032 A 
BRANCH  18  21
HETATM   21  O   UNL     1      16.329  50.332  48.910  1.00  0.00    -0.311 OA
BRANCH  21  22
HETATM   22  C   UNL     1      15.767  51.544  48.605  1.00  0.00     0.076 A 
HETATM   23  C   UNL     1      15.632  51.875  47.257  1.00  0.00     0.037 A 
HETATM   24  C   UNL     1      14.981  53.055  46.895  1.00  0.00     0.003 A 
HETATM   25  C   UNL     1      14.455  53.890  47.882  1.00  0.00     0.000 A 
HETATM   26  C   UNL     1      14.574  53.544  49.230  1.00  0.00     0.003 A 
HETATM   27  C   UNL     1      15.221  52.363  49.593  1.00  0.00     0.037 A 
ENDBRANCH  21  22
ENDBRANCH  18  21
ENDBRANCH  11  15
ENDBRANCH   4   9
BRANCH   1  28
HETATM   28  N   UNL     1      25.708  44.615  50.748  1.00  0.00    -0.274 N 
HETATM   29  N   UNL     1      24.988  43.490  50.916  1.00  0.00     0.005 NA
HETATM   30  N   UNL     1      25.697  42.656  51.661  1.00  0.00    -0.161 NA
HETATM   31  C   UNL     1      26.887  43.262  51.962  1.00  0.00     0.095 A 
HETATM   32  C   UNL     1      26.915  44.512  51.384  1.00  0.00     0.139 A 
BRANCH  31  33
HETATM   33  C   UNL     1      27.899  42.542  52.776  1.00  0.00     0.296 C 
BRANCH  33  34
HETATM   34  N   UNL     1      28.132  43.162  54.140  1.00  0.00    -0.066 N 
HETATM   35  C   UNL     1      26.866  43.715  54.723  1.00  0.00     0.270 C 
HETATM   36  H   UNL     1      28.438  42.384  54.741  1.00  0.00     0.280 HD
BRANCH  34  37
HETATM   37  C   UNL     1      29.276  44.152  54.130  1.00  0.00     0.273 C 
BRANCH  37  38
HETATM   38  C   UNL     1      30.004  44.258  55.443  1.00  0.00    -0.033 A 
HETATM   39  C   UNL     1      30.933  43.279  55.830  1.00  0.00     0.009 A 
HETATM   40  C   UNL     1      31.578  43.369  57.065  1.00  0.00     0.001 A 
HETATM   41  C   UNL     1      31.309  44.434  57.920  1.00  0.00     0.000 A 
HETATM   42  C   UNL     1      30.397  45.417  57.544  1.00  0.00     0.001 A 
HETATM   43  C   UNL     1      29.747  45.332  56.312  1.00  0.00     0.009 A 
ENDBRANCH  37  38
ENDBRANCH  34  37
ENDBRANCH  33  34
ENDBRANCH  31  33
ENDBRANCH   1  28
TORSDOF 9
ENDMDL
MODEL 2
REMARK VINA RESULT:     -10.3      3.341     11.800
REMARK  9 active torsions:
REMARK  status: ('A' for Active; 'I' for Inactive)
REMARK    1  A    between atoms: N_2  and  C_4 
REMARK    2  A    between atoms: N_2  and  C_35 
REMARK    3  A    between atoms: C_4  and  C_5 
REMARK    4  A    between atoms: N_8  and  C_9 
REMARK    5  A    between atoms: C_12  and  N_13 
REMARK       I    between atoms: N_13  and  C_14 
REMARK       I    between atoms: C_14  and  N_15 
REMARK    6  A    between atoms: N_15  and  C_16 
REMARK    7  A    between atoms: C_19  and  O_20 
REMARK    8  A    between atoms: O_20  and  C_21 
REMARK    9  A    between atoms: C_35  and  C_36 
ROOT
HETATM    1  C   UNL     1      20.942  44.316  47.237  1.00  0.00     0.161 C 
HETATM    2  C   UNL     1      21.922  44.837  48.281  1.00  0.00     0.179 C 
HETATM    3  C   UNL     1      23.275  44.579  47.640  1.00  0.00     0.177 C 
HETATM    4  C   UNL     1      23.795  43.310  48.310  1.00  0.00     0.141 C 
HETATM    5  C   UNL     1      22.779  42.985  49.401  1.00  0.00     0.196 C 
HETATM    6  O   UNL     1      21.884  44.105  49.513  1.00  0.00    -0.379 OA
HETATM    7  O   UNL     1      23.074  44.354  46.233  1.00  0.00    -0.379 OA
HETATM    8  C   UNL     1      21.690  44.586  45.943  1.00  0.00     0.198 C 
ENDROOT
BRANCH   4   9
HETATM    9  N   UNL     1      25.183  43.408  48.741  1.00  0.00    -0.334 N 
HETATM   10  C   UNL     1      25.800  44.044  49.769  1.00  0.00     0.321 C 
HETATM   11  N   UNL     1      25.014  44.520  50.781  1.00  0.00    -0.309 N 
HETATM   12  O   UNL     1      27.023  44.117  49.700  1.00  0.00    -0.247 OA
HETATM   13  H   UNL     1      24.068  44.179  50.833  1.00  0.00     0.170 HD
HETATM   14  H   UNL     1      25.880  43.154  48.047  1.00  0.00     0.164 HD
BRANCH  11  15
HETATM   15  C   UNL     1      25.489  45.175  51.945  1.00  0.00     0.036 A 
HETATM   16  C   UNL     1      25.843  46.525  51.977  1.00  0.00     0.032 A 
HETATM   17  C   UNL     1      26.370  47.096  53.139  1.00  0.00     0.039 A 
HETATM   18  C   UNL     1      26.544  46.331  54.293  1.00  0.00     0.076 A 
HETATM   19  C   UNL     1      26.170  44.987  54.279  1.00  0.00     0.039 A 
HETATM   20  C   UNL     1      25.629  44.418  53.117  1.00  0.00     0.032 A 
BRANCH  18  21
HETATM   21  O   UNL     1      27.148  46.994  55.336  1.00  0.00    -0.311 OA
BRANCH  21  22
HETATM   22  C   UNL     1      28.178  46.390  56.007  1.00  0.00     0.076 A 
HETATM   23  C   UNL     1      29.193  45.806  55.249  1.00  0.00     0.037 A 
HETATM   24  C   UNL     1      30.309  45.261  55.886  1.00  0.00     0.003 A 
HETATM   25  C   UNL     1      30.412  45.317  57.276  1.00  0.00     0.000 A 
HETATM   26  C   UNL     1      29.404  45.922  58.030  1.00  0.00     0.003 A 
HETATM   27  C   UNL     1      28.290  46.469  57.396  1.00  0.00     0.037 A 
ENDBRANCH  21  22
ENDBRANCH  18  21
ENDBRANCH  11  15
ENDBRANCH   4   9
BRANCH   1  28
HETATM   28  N   UNL     1      19.625  44.900  47.283  1.00  0.00    -0.274 N 
HETATM   29  N   UNL     1      18.727  44.537  48.217  1.00  0.00     0.005 NA
HETATM   30  N   UNL     1      17.653  45.297  48.072  1.00  0.00    -0.161 NA
HETATM   31  C   UNL     1      17.881  46.160  47.034  1.00  0.00     0.095 A 
HETATM   32  C   UNL     1      19.137  45.926  46.520  1.00  0.00     0.139 A 
BRANCH  31  33
HETATM   33  C   UNL     1      16.844  47.155  46.658  1.00  0.00     0.296 C 
BRANCH  33  34
HETATM   34  N   UNL     1      16.856  48.399  47.524  1.00  0.00    -0.066 N 
HETATM   35  C   UNL     1      15.482  48.757  48.004  1.00  0.00     0.270 C 
HETATM   36  H   UNL     1      17.419  48.147  48.349  1.00  0.00     0.280 HD
BRANCH  34  37
HETATM   37  C   UNL     1      17.584  49.549  46.863  1.00  0.00     0.273 C 
BRANCH  37  38
HETATM   38  C   UNL     1      18.765  50.057  47.646  1.00  0.00    -0.033 A 
HETATM   39  C   UNL     1      19.652  49.163  48.266  1.00  0.00     0.009 A 
HETATM   40  C   UNL     1      20.725  49.644  49.019  1.00  0.00     0.001 A 
HETATM   41  C   UNL     1      20.928  51.015  49.154  1.00  0.00     0.000 A 
HETATM   42  C   UNL     1      20.060  51.912  48.535  1.00  0.00     0.001 A 
HETATM   43  C   UNL     1      18.984  51.437  47.784  1.00  0.00     0.009 A 
ENDBRANCH  37  38
ENDBRANCH  34  37
ENDBRANCH  33  34
ENDBRANCH  31  33
ENDBRANCH   1  28
TORSDOF 9
ENDMDL
MODEL 3
REMARK VINA RESULT:     -10.0      3.090     12.353
REMARK  9 active torsions:
REMARK  status: ('A' for Active; 'I' for Inactive)
REMARK    1  A    between atoms: N_2  and  C_4 
REMARK    2  A    between atoms: N_2  and  C_35 
REMARK    3  A    between atoms: C_4  and  C_5 
REMARK    4  A    between atoms: N_8  and  C_9 
REMARK    5  A    between atoms: C_12  and  N_13 
REMARK       I    between atoms: N_13  and  C_14 
REMARK       I    between atoms: C_14  and  N_15 
REMARK    6  A    between atoms: N_15  and  C_16 
REMARK    7  A    between atoms: C_19  and  O_20 
REMARK    8  A    between atoms: O_20  and  C_21 
REMARK    9  A    between atoms: C_35  and  C_36 
ROOT
HETATM    1  C   UNL     1      20.961  44.586  47.587  1.00  0.00     0.161 C 
HETATM    2  C   UNL     1      21.997  44.949  48.644  1.00  0.00     0.179 C 
HETATM    3  C   UNL     1      23.314  44.771  47.908  1.00  0.00     0.177 C 
HETATM    4  C   UNL     1      23.846  43.417  48.370  1.00  0.00     0.141 C 
HETATM    5  C   UNL     1      22.878  42.952  49.454  1.00  0.00     0.196 C 
HETATM    6  O   UNL     1      22.006  44.052  49.764  1.00  0.00    -0.379 OA
HETATM    7  O   UNL     1      23.043  44.746  46.495  1.00  0.00    -0.379 OA
HETATM    8  C   UNL     1      21.650  45.027  46.308  1.00  0.00     0.198 C 
ENDROOT
BRANCH   4   9
HETATM    9  N   UNL     1      25.254  43.443  48.742  1.00  0.00    -0.334 N 
HETATM   10  C   UNL     1      25.939  44.002  49.772  1.00  0.00     0.321 C 
HETATM   11  N   UNL     1      25.216  44.453  50.840  1.00  0.00    -0.309 N 
HETATM   12  O   UNL     1      27.160  44.035  49.651  1.00  0.00    -0.247 OA
HETATM   13  H   UNL     1      24.262  44.145  50.918  1.00  0.00     0.170 HD
HETATM   14  H   UNL     1      25.910  43.200  48.005  1.00  0.00     0.164 HD
BRANCH  11  15
HETATM   15  C   UNL     1      25.766  45.029  52.013  1.00  0.00     0.036 A 
HETATM   16  C   UNL     1      26.009  44.307  53.183  1.00  0.00     0.032 A 
HETATM   17  C   UNL     1      26.490  44.948  54.328  1.00  0.00     0.039 A 
HETATM   18  C   UNL     1      26.746  46.319  54.324  1.00  0.00     0.076 A 
HETATM   19  C   UNL     1      26.529  47.046  53.152  1.00  0.00     0.039 A 
HETATM   20  C   UNL     1      26.060  46.400  51.999  1.00  0.00     0.032 A 
BRANCH  18  21
HETATM   21  O   UNL     1      27.134  46.836  55.538  1.00  0.00    -0.311 OA
BRANCH  21  22
HETATM   22  C   UNL     1      28.291  46.387  56.118  1.00  0.00     0.076 A 
HETATM   23  C   UNL     1      28.369  46.407  57.511  1.00  0.00     0.037 A 
HETATM   24  C   UNL     1      29.488  45.873  58.151  1.00  0.00     0.003 A 
HETATM   25  C   UNL     1      30.517  45.310  57.396  1.00  0.00     0.000 A 
HETATM   26  C   UNL     1      30.427  45.274  56.003  1.00  0.00     0.003 A 
HETATM   27  C   UNL     1      29.307  45.803  55.362  1.00  0.00     0.037 A 
ENDBRANCH  21  22
ENDBRANCH  18  21
ENDBRANCH  11  15
ENDBRANCH   4   9
BRANCH   1  28
HETATM   28  N   UNL     1      19.656  45.169  47.779  1.00  0.00    -0.274 N 
HETATM   29  N   UNL     1      18.543  44.414  47.788  1.00  0.00     0.005 NA
HETATM   30  N   UNL     1      17.516  45.199  48.073  1.00  0.00    -0.161 NA
HETATM   31  C   UNL     1      17.991  46.470  48.255  1.00  0.00     0.095 A 
HETATM   32  C   UNL     1      19.357  46.471  48.076  1.00  0.00     0.139 A 
BRANCH  31  33
HETATM   33  C   UNL     1      17.054  47.566  48.612  1.00  0.00     0.296 C 
BRANCH  33  34
HETATM   34  N   UNL     1      16.591  48.378  47.418  1.00  0.00    -0.066 N 
HETATM   35  C   UNL     1      16.491  47.540  46.179  1.00  0.00     0.270 C 
HETATM   36  H   UNL     1      15.641  48.693  47.659  1.00  0.00     0.280 HD
BRANCH  34  37
HETATM   37  C   UNL     1      17.409  49.638  47.231  1.00  0.00     0.273 C 
BRANCH  37  38
HETATM   38  C   UNL     1      17.087  50.727  48.218  1.00  0.00    -0.033 A 
HETATM   39  C   UNL     1      15.760  51.135  48.429  1.00  0.00     0.009 A 
HETATM   40  C   UNL     1      15.475  52.169  49.323  1.00  0.00     0.001 A 
HETATM   41  C   UNL     1      16.504  52.800  50.017  1.00  0.00     0.000 A 
HETATM   42  C   UNL     1      17.824  52.398  49.823  1.00  0.00     0.001 A 
HETATM   43  C   UNL     1      18.115  51.366  48.930  1.00  0.00     0.009 A 
ENDBRANCH  37  38
ENDBRANCH  34  37
ENDBRANCH  33  34
ENDBRANCH  31  33
ENDBRANCH   1  28
TORSDOF 9
ENDMDL
MODEL 4
REMARK VINA RESULT:     -10.0      2.716     12.791
REMARK  9 active torsions:
REMARK  status: ('A' for Active; 'I' for Inactive)
REMARK    1  A    between atoms: N_2  and  C_4 
REMARK    2  A    between atoms: N_2  and  C_35 
REMARK    3  A    between atoms: C_4  and  C_5 
REMARK    4  A    between atoms: N_8  and  C_9 
REMARK    5  A    between atoms: C_12  and  N_13 
REMARK       I    between atoms: N_13  and  C_14 
REMARK       I    between atoms: C_14  and  N_15 
REMARK    6  A    between atoms: N_15  and  C_16 
REMARK    7  A    between atoms: C_19  and  O_20 
REMARK    8  A    between atoms: O_20  and  C_21 
REMARK    9  A    between atoms: C_35  and  C_36 
ROOT
HETATM    1  C   UNL     1      20.690  46.333  48.303  1.00  0.00     0.161 C 
HETATM    2  C   UNL     1      22.082  46.345  47.683  1.00  0.00     0.179 C 
HETATM    3  C   UNL     1      22.828  45.300  48.496  1.00  0.00     0.177 C 
HETATM    4  C   UNL     1      23.659  46.097  49.498  1.00  0.00     0.141 C 
HETATM    5  C   UNL     1      23.458  47.560  49.116  1.00  0.00     0.196 C 
HETATM    6  O   UNL     1      22.770  47.593  47.854  1.00  0.00    -0.379 OA
HETATM    7  O   UNL     1      21.860  44.488  49.185  1.00  0.00    -0.379 OA
HETATM    8  C   UNL     1      20.556  44.887  48.745  1.00  0.00     0.198 C 
ENDROOT
BRANCH   4   9
HETATM    9  N   UNL     1      25.042  45.647  49.592  1.00  0.00    -0.334 N 
HETATM   10  C   UNL     1      25.979  45.702  50.572  1.00  0.00     0.321 C 
HETATM   11  N   UNL     1      25.557  46.021  51.833  1.00  0.00    -0.309 N 
HETATM   12  O   UNL     1      27.129  45.442  50.232  1.00  0.00    -0.247 OA
HETATM   13  H   UNL     1      24.569  45.968  52.018  1.00  0.00     0.170 HD
HETATM   14  H   UNL     1      25.503  45.448  48.709  1.00  0.00     0.164 HD
BRANCH  11  15
HETATM   15  C   UNL     1      26.388  46.089  52.979  1.00  0.00     0.036 A 
HETATM   16  C   UNL     1      26.755  44.971  53.731  1.00  0.00     0.032 A 
HETATM   17  C   UNL     1      27.522  45.113  54.890  1.00  0.00     0.039 A 
HETATM   18  C   UNL     1      27.944  46.373  55.315  1.00  0.00     0.076 A 
HETATM   19  C   UNL     1      27.604  47.494  54.558  1.00  0.00     0.039 A 
HETATM   20  C   UNL     1      26.845  47.350  53.387  1.00  0.00     0.032 A 
BRANCH  18  21
HETATM   21  O   UNL     1      28.619  46.378  56.515  1.00  0.00    -0.311 OA
BRANCH  21  22
HETATM   22  C   UNL     1      29.691  45.542  56.685  1.00  0.00     0.076 A 
HETATM   23  C   UNL     1      30.269  45.478  57.953  1.00  0.00     0.037 A 
HETATM   24  C   UNL     1      31.302  44.572  58.199  1.00  0.00     0.003 A 
HETATM   25  C   UNL     1      31.740  43.725  57.181  1.00  0.00     0.000 A 
HETATM   26  C   UNL     1      31.144  43.777  55.919  1.00  0.00     0.003 A 
HETATM   27  C   UNL     1      30.110  44.679  55.672  1.00  0.00     0.037 A 
ENDBRANCH  21  22
ENDBRANCH  18  21
ENDBRANCH  11  15
ENDBRANCH   4   9
BRANCH   1  28
HETATM   28  N   UNL     1      19.627  46.781  47.437  1.00  0.00    -0.274 N 
HETATM   29  N   UNL     1      19.812  46.923  46.113  1.00  0.00     0.005 NA
HETATM   30  N   UNL     1      18.651  47.254  45.569  1.00  0.00    -0.161 NA
HETATM   31  C   UNL     1      17.716  47.313  46.568  1.00  0.00     0.095 A 
HETATM   32  C   UNL     1      18.319  47.009  47.768  1.00  0.00     0.139 A 
BRANCH  31  33
HETATM   33  C   UNL     1      16.305  47.643  46.241  1.00  0.00     0.296 C 
BRANCH  33  34
HETATM   34  N   UNL     1      15.895  49.038  46.673  1.00  0.00    -0.066 N 
HETATM   35  C   UNL     1      14.516  49.385  46.197  1.00  0.00     0.270 C 
HETATM   36  H   UNL     1      15.871  49.005  47.702  1.00  0.00     0.280 HD
BRANCH  34  37
HETATM   37  C   UNL     1      16.936  50.076  46.317  1.00  0.00     0.273 C 
BRANCH  37  38
HETATM   38  C   UNL     1      17.549  50.762  47.509  1.00  0.00    -0.033 A 
HETATM   39  C   UNL     1      18.472  51.806  47.340  1.00  0.00     0.009 A 
HETATM   40  C   UNL     1      19.059  52.413  48.451  1.00  0.00     0.001 A 
HETATM   41  C   UNL     1      18.729  51.991  49.737  1.00  0.00     0.000 A 
HETATM   42  C   UNL     1      17.807  50.963  49.917  1.00  0.00     0.001 A 
HETATM   43  C   UNL     1      17.219  50.350  48.810  1.00  0.00     0.009 A 
ENDBRANCH  37  38
ENDBRANCH  34  37
ENDBRANCH  33  34
ENDBRANCH  31  33
ENDBRANCH   1  28
TORSDOF 9
ENDMDL
MODEL 5
REMARK VINA RESULT:      -9.9      2.628     12.910
REMARK  9 active torsions:
REMARK  status: ('A' for Active; 'I' for Inactive)
REMARK    1  A    between atoms: N_2  and  C_4 
REMARK    2  A    between atoms: N_2  and  C_35 
REMARK    3  A    between atoms: C_4  and  C_5 
REMARK    4  A    between atoms: N_8  and  C_9 
REMARK    5  A    between atoms: C_12  and  N_13 
REMARK       I    between atoms: N_13  and  C_14 
REMARK       I    between atoms: C_14  and  N_15 
REMARK    6  A    between atoms: N_15  and  C_16 
REMARK    7  A    between atoms: C_19  and  O_20 
REMARK    8  A    between atoms: O_20  and  C_21 
REMARK    9  A    between atoms: C_35  and  C_36 
ROOT
HETATM    1  C   UNL     1      19.921  47.645  48.275  1.00  0.00     0.161 C 
HETATM    2  C   UNL     1      21.144  48.278  47.621  1.00  0.00     0.179 C 
HETATM    3  C   UNL     1      22.292  47.436  48.153  1.00  0.00     0.177 C 
HETATM    4  C   UNL     1      22.908  48.269  49.274  1.00  0.00     0.141 C 
HETATM    5  C   UNL     1      22.173  49.606  49.233  1.00  0.00     0.196 C 
HETATM    6  O   UNL     1      21.375  49.631  48.037  1.00  0.00    -0.379 OA
HETATM    7  O   UNL     1      21.748  46.213  48.680  1.00  0.00    -0.379 OA
HETATM    8  C   UNL     1      20.345  46.191  48.390  1.00  0.00     0.198 C 
ENDROOT
BRANCH   4   9
HETATM    9  N   UNL     1      24.362  48.339  49.212  1.00  0.00    -0.334 N 
HETATM   10  C   UNL     1      25.357  47.713  49.890  1.00  0.00     0.321 C 
HETATM   11  N   UNL     1      25.022  46.618  50.636  1.00  0.00    -0.309 N 
HETATM   12  O   UNL     1      26.481  48.187  49.754  1.00  0.00    -0.247 OA
HETATM   13  H   UNL     1      24.124  46.197  50.465  1.00  0.00     0.170 HD
HETATM   14  H   UNL     1      24.746  49.155  48.746  1.00  0.00     0.164 HD
BRANCH  11  15
HETATM   15  C   UNL     1      25.934  45.825  51.377  1.00  0.00     0.036 A 
HETATM   16  C   UNL     1      26.837  44.938  50.787  1.00  0.00     0.032 A 
HETATM   17  C   UNL     1      27.664  44.134  51.575  1.00  0.00     0.039 A 
HETATM   18  C   UNL     1      27.612  44.207  52.967  1.00  0.00     0.076 A 
HETATM   19  C   UNL     1      26.731  45.107  53.567  1.00  0.00     0.039 A 
HETATM   20  C   UNL     1      25.910  45.924  52.775  1.00  0.00     0.032 A 
BRANCH  18  21
HETATM   21  O   UNL     1      28.417  43.303  53.621  1.00  0.00    -0.311 OA
BRANCH  21  22
HETATM   22  C   UNL     1      29.200  43.731  54.660  1.00  0.00     0.076 A 
HETATM   23  C   UNL     1      30.234  42.895  55.081  1.00  0.00     0.037 A 
HETATM   24  C   UNL     1      31.117  43.328  56.072  1.00  0.00     0.003 A 
HETATM   25  C   UNL     1      30.969  44.600  56.626  1.00  0.00     0.000 A 
HETATM   26  C   UNL     1      29.945  45.442  56.187  1.00  0.00     0.003 A 
HETATM   27  C   UNL     1      29.065  45.013  55.195  1.00  0.00     0.037 A 
ENDBRANCH  21  22
ENDBRANCH  18  21
ENDBRANCH  11  15
ENDBRANCH   4   9
BRANCH   1  28
HETATM   28  N   UNL     1      18.678  47.838  47.572  1.00  0.00    -0.274 N 
HETATM   29  N   UNL     1      17.528  47.300  48.016  1.00  0.00     0.005 NA
HETATM   30  N   UNL     1      16.548  47.717  47.229  1.00  0.00    -0.161 NA
HETATM   31  C   UNL     1      17.089  48.539  46.277  1.00  0.00     0.095 A 
HETATM   32  C   UNL     1      18.448  48.633  46.481  1.00  0.00     0.139 A 
BRANCH  31  33
HETATM   33  C   UNL     1      16.211  49.176  45.263  1.00  0.00     0.296 C 
BRANCH  33  34
HETATM   34  N   UNL     1      15.390  50.327  45.811  1.00  0.00    -0.066 N 
HETATM   35  C   UNL     1      14.087  50.478  45.083  1.00  0.00     0.270 C 
HETATM   36  H   UNL     1      15.174  50.065  46.783  1.00  0.00     0.280 HD
BRANCH  34  37
HETATM   37  C   UNL     1      16.188  51.610  45.895  1.00  0.00     0.273 C 
BRANCH  37  38
HETATM   38  C   UNL     1      16.811  51.854  47.243  1.00  0.00    -0.033 A 
HETATM   39  C   UNL     1      16.038  51.791  48.413  1.00  0.00     0.009 A 
HETATM   40  C   UNL     1      16.619  52.052  49.656  1.00  0.00     0.001 A 
HETATM   41  C   UNL     1      17.972  52.371  49.744  1.00  0.00     0.000 A 
HETATM   42  C   UNL     1      18.751  52.426  48.591  1.00  0.00     0.001 A 
HETATM   43  C   UNL     1      18.176  52.169  47.346  1.00  0.00     0.009 A 
ENDBRANCH  37  38
ENDBRANCH  34  37
ENDBRANCH  33  34
ENDBRANCH  31  33
ENDBRANCH   1  28
TORSDOF 9
ENDMDL
MODEL 6
REMARK VINA RESULT:      -9.9      3.109     12.800
REMARK  9 active torsions:
REMARK  status: ('A' for Active; 'I' for Inactive)
REMARK    1  A    between atoms: N_2  and  C_4 
REMARK    2  A    between atoms: N_2  and  C_35 
REMARK    3  A    between atoms: C_4  and  C_5 
REMARK    4  A    between atoms: N_8  and  C_9 
REMARK    5  A    between atoms: C_12  and  N_13 
REMARK       I    between atoms: N_13  and  C_14 
REMARK       I    between atoms: C_14  and  N_15 
REMARK    6  A    between atoms: N_15  and  C_16 
REMARK    7  A    between atoms: C_19  and  O_20 
REMARK    8  A    between atoms: O_20  and  C_21 
REMARK    9  A    between atoms: C_35  and  C_36 
ROOT
HETATM    1  C   UNL     1      22.623  45.019  48.343  1.00  0.00     0.161 C 
HETATM    2  C   UNL     1      22.430  43.713  49.105  1.00  0.00     0.179 C 
HETATM    3  C   UNL     1      23.742  43.557  49.855  1.00  0.00     0.177 C 
HETATM    4  C   UNL     1      24.546  42.546  49.043  1.00  0.00     0.141 C 
HETATM    5  C   UNL     1      23.600  42.066  47.947  1.00  0.00     0.196 C 
HETATM    6  O   UNL     1      22.287  42.570  48.249  1.00  0.00    -0.379 OA
HETATM    7  O   UNL     1      24.409  44.832  49.868  1.00  0.00    -0.379 OA
HETATM    8  C   UNL     1      23.528  45.797  49.280  1.00  0.00     0.198 C 
ENDROOT
BRANCH   4   9
HETATM    9  N   UNL     1      25.159  41.504  49.857  1.00  0.00    -0.334 N 
HETATM   10  C   UNL     1      26.179  41.497  50.751  1.00  0.00     0.321 C 
HETATM   11  N   UNL     1      26.627  42.704  51.210  1.00  0.00    -0.309 N 
HETATM   12  O   UNL     1      26.599  40.391  51.079  1.00  0.00    -0.247 OA
HETATM   13  H   UNL     1      26.041  43.506  51.051  1.00  0.00     0.170 HD
HETATM   14  H   UNL     1      24.966  40.549  49.571  1.00  0.00     0.164 HD
BRANCH  11  15
HETATM   15  C   UNL     1      27.656  42.882  52.169  1.00  0.00     0.036 A 
HETATM   16  C   UNL     1      29.014  42.901  51.845  1.00  0.00     0.032 A 
HETATM   17  C   UNL     1      29.983  43.013  52.845  1.00  0.00     0.039 A 
HETATM   18  C   UNL     1      29.614  43.117  54.187  1.00  0.00     0.076 A 
HETATM   19  C   UNL     1      28.259  43.124  54.519  1.00  0.00     0.039 A 
HETATM   20  C   UNL     1      27.286  43.026  53.514  1.00  0.00     0.032 A 
BRANCH  18  21
HETATM   21  O   UNL     1      30.667  43.136  55.073  1.00  0.00    -0.311 OA
BRANCH  21  22
HETATM   22  C   UNL     1      30.672  44.055  56.089  1.00  0.00     0.076 A 
HETATM   23  C   UNL     1      29.838  45.166  55.962  1.00  0.00     0.037 A 
HETATM   24  C   UNL     1      29.738  46.081  57.012  1.00  0.00     0.003 A 
HETATM   25  C   UNL     1      30.460  45.872  58.187  1.00  0.00     0.000 A 
HETATM   26  C   UNL     1      31.277  44.746  58.318  1.00  0.00     0.003 A 
HETATM   27  C   UNL     1      31.376  43.829  57.272  1.00  0.00     0.037 A 
ENDBRANCH  21  22
ENDBRANCH  18  21
ENDBRANCH  11  15
ENDBRANCH   4   9
BRANCH   1  28
HETATM   28  N   UNL     1      21.408  45.712  47.993  1.00  0.00    -0.274 N 
HETATM   29  N   UNL     1      21.369  46.596  46.980  1.00  0.00     0.005 NA
HETATM   30  N   UNL     1      20.116  46.999  46.834  1.00  0.00    -0.161 NA
HETATM   31  C   UNL     1      19.351  46.352  47.767  1.00  0.00     0.095 A 
HETATM   32  C   UNL     1      20.157  45.522  48.515  1.00  0.00     0.139 A 
BRANCH  31  33
HETATM   33  C   UNL     1      17.887  46.598  47.822  1.00  0.00     0.296 C 
BRANCH  33  34
HETATM   34  N   UNL     1      17.480  47.598  48.887  1.00  0.00    -0.066 N 
HETATM   35  C   UNL     1      16.456  48.567  48.378  1.00  0.00     0.270 C 
HETATM   36  H   UNL     1      17.037  47.036  49.628  1.00  0.00     0.280 HD
BRANCH  34  37
HETATM   37  C   UNL     1      18.675  48.265  49.532  1.00  0.00     0.273 C 
BRANCH  37  38
HETATM   38  C   UNL     1      18.808  49.728  49.207  1.00  0.00    -0.033 A 
HETATM   39  C   UNL     1      18.431  50.707  50.141  1.00  0.00     0.009 A 
HETATM   40  C   UNL     1      18.527  52.062  49.818  1.00  0.00     0.001 A 
HETATM   41  C   UNL     1      19.002  52.453  48.569  1.00  0.00     0.000 A 
HETATM   42  C   UNL     1      19.388  51.492  47.638  1.00  0.00     0.001 A 
HETATM   43  C   UNL     1      19.293  50.136  47.954  1.00  0.00     0.009 A 
ENDBRANCH  37  38
ENDBRANCH  34  37
ENDBRANCH  33  34
ENDBRANCH  31  33
ENDBRANCH   1  28
TORSDOF 9
ENDMDL
MODEL 7
REMARK VINA RESULT:      -9.8      2.558     13.145
REMARK  9 active torsions:
REMARK  status: ('A' for Active; 'I' for Inactive)
REMARK    1  A    between atoms: N_2  and  C_4 
REMARK    2  A    between atoms: N_2  and  C_35 
REMARK    3  A    between atoms: C_4  and  C_5 
REMARK    4  A    between atoms: N_8  and  C_9 
REMARK    5  A    between atoms: C_12  and  N_13 
REMARK       I    between atoms: N_13  and  C_14 
REMARK       I    between atoms: C_14  and  N_15 
REMARK    6  A    between atoms: N_15  and  C_16 
REMARK    7  A    between atoms: C_19  and  O_20 
REMARK    8  A    between atoms: O_20  and  C_21 
REMARK    9  A    between atoms: C_35  and  C_36 
ROOT
HETATM    1  C   UNL     1      22.841  46.104  48.583  1.00  0.00     0.161 C 
HETATM    2  C   UNL     1      22.453  44.802  49.275  1.00  0.00     0.179 C 
HETATM    3  C   UNL     1      23.726  44.410  50.006  1.00  0.00     0.177 C 
HETATM    4  C   UNL     1      24.368  43.334  49.133  1.00  0.00     0.141 C 
HETATM    5  C   UNL     1      23.360  43.063  48.021  1.00  0.00     0.196 C 
HETATM    6  O   UNL     1      22.139  43.743  48.360  1.00  0.00    -0.379 OA
HETATM    7  O   UNL     1      24.578  45.566  50.082  1.00  0.00    -0.379 OA
HETATM    8  C   UNL     1      23.854  46.685  49.554  1.00  0.00     0.198 C 
ENDROOT
BRANCH   4   9
HETATM    9  N   UNL     1      24.816  42.170  49.885  1.00  0.00    -0.334 N 
HETATM   10  C   UNL     1      25.839  41.953  50.750  1.00  0.00     0.321 C 
HETATM   11  N   UNL     1      26.490  43.047  51.247  1.00  0.00    -0.309 N 
HETATM   12  O   UNL     1      26.076  40.779  51.019  1.00  0.00    -0.247 OA
HETATM   13  H   UNL     1      26.042  43.941  51.139  1.00  0.00     0.170 HD
HETATM   14  H   UNL     1      24.462  41.274  49.565  1.00  0.00     0.164 HD
BRANCH  11  15
HETATM   15  C   UNL     1      27.553  43.009  52.184  1.00  0.00     0.036 A 
HETATM   16  C   UNL     1      27.360  42.911  53.563  1.00  0.00     0.032 A 
HETATM   17  C   UNL     1      28.448  42.946  54.439  1.00  0.00     0.039 A 
HETATM   18  C   UNL     1      29.750  43.071  53.954  1.00  0.00     0.076 A 
HETATM   19  C   UNL     1      29.956  43.145  52.576  1.00  0.00     0.039 A 
HETATM   20  C   UNL     1      28.865  43.096  51.696  1.00  0.00     0.032 A 
BRANCH  18  21
HETATM   21  O   UNL     1      30.718  43.177  54.926  1.00  0.00    -0.311 OA
BRANCH  21  22
HETATM   22  C   UNL     1      30.511  44.015  55.990  1.00  0.00     0.076 A 
HETATM   23  C   UNL     1      31.238  43.774  57.156  1.00  0.00     0.037 A 
HETATM   24  C   UNL     1      31.131  44.655  58.234  1.00  0.00     0.003 A 
HETATM   25  C   UNL     1      30.310  45.778  58.134  1.00  0.00     0.000 A 
HETATM   26  C   UNL     1      29.600  46.026  56.957  1.00  0.00     0.003 A 
HETATM   27  C   UNL     1      29.708  45.150  55.878  1.00  0.00     0.037 A 
ENDBRANCH  21  22
ENDBRANCH  18  21
ENDBRANCH  11  15
ENDBRANCH   4   9
BRANCH   1  28
HETATM   28  N   UNL     1      21.745  46.991  48.281  1.00  0.00    -0.274 N 
HETATM   29  N   UNL     1      21.406  47.997  49.107  1.00  0.00     0.005 NA
HETATM   30  N   UNL     1      20.436  48.691  48.533  1.00  0.00    -0.161 NA
HETATM   31  C   UNL     1      20.164  48.117  47.320  1.00  0.00     0.095 A 
HETATM   32  C   UNL     1      20.992  47.032  47.139  1.00  0.00     0.139 A 
BRANCH  31  33
HETATM   33  C   UNL     1      19.123  48.706  46.440  1.00  0.00     0.296 C 
BRANCH  33  34
HETATM   34  N   UNL     1      17.722  48.612  47.012  1.00  0.00    -0.066 N 
HETATM   35  C   UNL     1      17.046  47.332  46.622  1.00  0.00     0.270 C 
HETATM   36  H   UNL     1      17.849  48.597  48.034  1.00  0.00     0.280 HD
BRANCH  34  37
HETATM   37  C   UNL     1      16.898  49.845  46.716  1.00  0.00     0.273 C 
BRANCH  37  38
HETATM   38  C   UNL     1      16.946  50.888  47.800  1.00  0.00    -0.033 A 
HETATM   39  C   UNL     1      18.121  51.615  48.045  1.00  0.00     0.009 A 
HETATM   40  C   UNL     1      18.166  52.557  49.075  1.00  0.00     0.001 A 
HETATM   41  C   UNL     1      17.041  52.786  49.864  1.00  0.00     0.000 A 
HETATM   42  C   UNL     1      15.866  52.078  49.624  1.00  0.00     0.001 A 
HETATM   43  C   UNL     1      15.816  51.133  48.598  1.00  0.00     0.009 A 
ENDBRANCH  37  38
ENDBRANCH  34  37
ENDBRANCH  33  34
ENDBRANCH  31  33
ENDBRANCH   1  28
TORSDOF 9
ENDMDL
MODEL 8
REMARK VINA RESULT:      -9.7     13.067     18.782
REMARK  9 active torsions:
REMARK  status: ('A' for Active; 'I' for Inactive)
REMARK    1  A    between atoms: N_2  and  C_4 
REMARK    2  A    between atoms: N_2  and  C_35 
REMARK    3  A    between atoms: C_4  and  C_5 
REMARK    4  A    between atoms: N_8  and  C_9 
REMARK    5  A    between atoms: C_12  and  N_13 
REMARK       I    between atoms: N_13  and  C_14 
REMARK       I    between atoms: C_14  and  N_15 
REMARK    6  A    between atoms: N_15  and  C_16 
REMARK    7  A    between atoms: C_19  and  O_20 
REMARK    8  A    between atoms: O_20  and  C_21 
REMARK    9  A    between atoms: C_35  and  C_36 
ROOT
HETATM    1  C   UNL     1      32.894  49.634  42.138  1.00  0.00     0.161 C 
HETATM    2  C   UNL     1      33.094  51.137  41.979  1.00  0.00     0.179 C 
HETATM    3  C   UNL     1      34.593  51.262  41.767  1.00  0.00     0.177 C 
HETATM    4  C   UNL     1      35.150  51.695  43.121  1.00  0.00     0.141 C 
HETATM    5  C   UNL     1      33.928  51.934  44.002  1.00  0.00     0.196 C 
HETATM    6  O   UNL     1      32.764  51.883  43.159  1.00  0.00    -0.379 OA
HETATM    7  O   UNL     1      35.109  49.968  41.406  1.00  0.00    -0.379 OA
HETATM    8  C   UNL     1      33.997  49.076  41.257  1.00  0.00     0.198 C 
ENDROOT
BRANCH   4   9
HETATM    9  N   UNL     1      36.097  52.799  43.032  1.00  0.00    -0.334 N 
HETATM   10  C   UNL     1      37.024  53.306  43.884  1.00  0.00     0.321 C 
HETATM   11  N   UNL     1      37.362  52.552  44.973  1.00  0.00    -0.309 N 
HETATM   12  O   UNL     1      37.489  54.401  43.583  1.00  0.00    -0.247 OA
HETATM   13  H   UNL     1      37.093  51.583  44.967  1.00  0.00     0.170 HD
HETATM   14  H   UNL     1      35.913  53.482  42.304  1.00  0.00     0.164 HD
BRANCH  11  15
HETATM   15  C   UNL     1      38.332  52.908  45.943  1.00  0.00     0.036 A 
HETATM   16  C   UNL     1      38.015  53.503  47.166  1.00  0.00     0.032 A 
HETATM   17  C   UNL     1      39.023  53.893  48.051  1.00  0.00     0.039 A 
HETATM   18  C   UNL     1      40.366  53.687  47.737  1.00  0.00     0.076 A 
HETATM   19  C   UNL     1      40.694  53.071  46.529  1.00  0.00     0.039 A 
HETATM   20  C   UNL     1      39.681  52.667  45.646  1.00  0.00     0.032 A 
BRANCH  18  21
HETATM   21  O   UNL     1      41.256  54.192  48.657  1.00  0.00    -0.311 OA
BRANCH  21  22
HETATM   22  C   UNL     1      42.530  54.500  48.258  1.00  0.00     0.076 A 
HETATM   23  C   UNL     1      43.493  53.492  48.327  1.00  0.00     0.037 A 
HETATM   24  C   UNL     1      44.781  53.729  47.845  1.00  0.00     0.003 A 
HETATM   25  C   UNL     1      45.095  54.967  47.283  1.00  0.00     0.000 A 
HETATM   26  C   UNL     1      44.123  55.966  47.197  1.00  0.00     0.003 A 
HETATM   27  C   UNL     1      42.835  55.730  47.675  1.00  0.00     0.037 A 
ENDBRANCH  21  22
ENDBRANCH  18  21
ENDBRANCH  11  15
ENDBRANCH   4   9
BRANCH   1  28
HETATM   28  N   UNL     1      31.577  49.150  41.804  1.00  0.00    -0.274 N 
HETATM   29  N   UNL     1      30.636  48.965  42.747  1.00  0.00     0.005 NA
HETATM   30  N   UNL     1      29.514  48.608  42.143  1.00  0.00    -0.161 NA
HETATM   31  C   UNL     1      29.749  48.576  40.794  1.00  0.00     0.095 A 
HETATM   32  C   UNL     1      31.061  48.924  40.557  1.00  0.00     0.139 A 
BRANCH  31  33
HETATM   33  C   UNL     1      28.650  48.225  39.860  1.00  0.00     0.296 C 
BRANCH  33  34
HETATM   34  N   UNL     1      27.287  48.704  40.321  1.00  0.00    -0.066 N 
HETATM   35  C   UNL     1      26.305  47.575  40.420  1.00  0.00     0.270 C 
HETATM   36  H   UNL     1      27.438  49.069  41.272  1.00  0.00     0.280 HD
BRANCH  34  37
HETATM   37  C   UNL     1      26.784  49.873  39.503  1.00  0.00     0.273 C 
BRANCH  37  38
HETATM   38  C   UNL     1      27.584  51.135  39.684  1.00  0.00    -0.033 A 
HETATM   39  C   UNL     1      28.186  51.766  38.584  1.00  0.00     0.009 A 
HETATM   40  C   UNL     1      28.953  52.918  38.767  1.00  0.00     0.001 A 
HETATM   41  C   UNL     1      29.124  53.453  40.042  1.00  0.00     0.000 A 
HETATM   42  C   UNL     1      28.523  52.841  41.140  1.00  0.00     0.001 A 
HETATM   43  C   UNL     1      27.757  51.688  40.964  1.00  0.00     0.009 A 
ENDBRANCH  37  38
ENDBRANCH  34  37
ENDBRANCH  33  34
ENDBRANCH  31  33
ENDBRANCH   1  28
TORSDOF 9
ENDMDL
MODEL 9
REMARK VINA RESULT:      -9.7      3.030      5.833
REMARK  9 active torsions:
REMARK  status: ('A' for Active; 'I' for Inactive)
REMARK    1  A    between atoms: N_2  and  C_4 
REMARK    2  A    between atoms: N_2  and  C_35 
REMARK    3  A    between atoms: C_4  and  C_5 
REMARK    4  A    between atoms: N_8  and  C_9 
REMARK    5  A    between atoms: C_12  and  N_13 
REMARK       I    between atoms: N_13  and  C_14 
REMARK       I    between atoms: C_14  and  N_15 
REMARK    6  A    between atoms: N_15  and  C_16 
REMARK    7  A    between atoms: C_19  and  O_20 
REMARK    8  A    between atoms: O_20  and  C_21 
REMARK    9  A    between atoms: C_35  and  C_36 
ROOT
HETATM    1  C   UNL     1      21.769  49.159  48.908  1.00  0.00     0.161 C 
HETATM    2  C   UNL     1      20.553  48.395  48.399  1.00  0.00     0.179 C 
HETATM    3  C   UNL     1      19.837  49.423  47.539  1.00  0.00     0.177 C 
HETATM    4  C   UNL     1      18.696  49.943  48.410  1.00  0.00     0.141 C 
HETATM    5  C   UNL     1      18.729  49.085  49.671  1.00  0.00     0.196 C 
HETATM    6  O   UNL     1      19.649  48.004  49.442  1.00  0.00    -0.379 OA
HETATM    7  O   UNL     1      20.761  50.485  47.240  1.00  0.00    -0.379 OA
HETATM    8  C   UNL     1      22.045  50.112  47.758  1.00  0.00     0.198 C 
ENDROOT
BRANCH   4   9
HETATM    9  N   UNL     1      17.418  50.005  47.714  1.00  0.00    -0.334 N 
HETATM   10  C   UNL     1      16.282  50.722  47.907  1.00  0.00     0.321 C 
HETATM   11  N   UNL     1      16.345  51.787  48.762  1.00  0.00    -0.309 N 
HETATM   12  O   UNL     1      15.298  50.352  47.275  1.00  0.00    -0.247 OA
HETATM   13  H   UNL     1      17.258  52.123  49.017  1.00  0.00     0.170 HD
HETATM   14  H   UNL     1      17.211  49.224  47.098  1.00  0.00     0.164 HD
BRANCH  11  15
HETATM   15  C   UNL     1      15.270  52.664  49.054  1.00  0.00     0.036 A 
HETATM   16  C   UNL     1      14.752  53.579  48.134  1.00  0.00     0.032 A 
HETATM   17  C   UNL     1      13.736  54.463  48.505  1.00  0.00     0.039 A 
HETATM   18  C   UNL     1      13.212  54.445  49.797  1.00  0.00     0.076 A 
HETATM   19  C   UNL     1      13.704  53.519  50.716  1.00  0.00     0.039 A 
HETATM   20  C   UNL     1      14.715  52.621  50.340  1.00  0.00     0.032 A 
BRANCH  18  21
HETATM   21  O   UNL     1      12.277  55.423  50.052  1.00  0.00    -0.311 OA
BRANCH  21  22
HETATM   22  C   UNL     1      12.516  56.335  51.046  1.00  0.00     0.076 A 
HETATM   23  C   UNL     1      11.733  56.260  52.198  1.00  0.00     0.037 A 
HETATM   24  C   UNL     1      12.000  57.107  53.275  1.00  0.00     0.003 A 
HETATM   25  C   UNL     1      13.058  58.013  53.200  1.00  0.00     0.000 A 
HETATM   26  C   UNL     1      13.854  58.070  52.053  1.00  0.00     0.003 A 
HETATM   27  C   UNL     1      13.590  57.223  50.977  1.00  0.00     0.037 A 
ENDBRANCH  21  22
ENDBRANCH  18  21
ENDBRANCH  11  15
ENDBRANCH   4   9
BRANCH   1  28
HETATM   28  N   UNL     1      22.900  48.343  49.275  1.00  0.00    -0.274 N 
HETATM   29  N   UNL     1      23.936  48.848  49.967  1.00  0.00     0.005 NA
HETATM   30  N   UNL     1      24.772  47.857  50.237  1.00  0.00    -0.161 NA
HETATM   31  C   UNL     1      24.248  46.706  49.713  1.00  0.00     0.095 A 
HETATM   32  C   UNL     1      23.050  46.994  49.098  1.00  0.00     0.139 A 
BRANCH  31  33
HETATM   33  C   UNL     1      24.969  45.419  49.886  1.00  0.00     0.296 C 
BRANCH  33  34
HETATM   34  N   UNL     1      26.135  45.504  50.853  1.00  0.00    -0.066 N 
HETATM   35  C   UNL     1      27.345  44.790  50.330  1.00  0.00     0.270 C 
HETATM   36  H   UNL     1      26.365  46.507  50.909  1.00  0.00     0.280 HD
BRANCH  34  37
HETATM   37  C   UNL     1      25.747  45.090  52.255  1.00  0.00     0.273 C 
BRANCH  37  38
HETATM   38  C   UNL     1      26.622  45.676  53.330  1.00  0.00    -0.033 A 
HETATM   39  C   UNL     1      26.577  47.048  53.622  1.00  0.00     0.009 A 
HETATM   40  C   UNL     1      27.417  47.588  54.599  1.00  0.00     0.001 A 
HETATM   41  C   UNL     1      28.302  46.768  55.294  1.00  0.00     0.000 A 
HETATM   42  C   UNL     1      28.348  45.403  55.020  1.00  0.00     0.001 A 
HETATM   43  C   UNL     1      27.513  44.858  54.044  1.00  0.00     0.009 A 
ENDBRANCH  37  38
ENDBRANCH  34  37
ENDBRANCH  33  34
ENDBRANCH  31  33
ENDBRANCH   1  28
TORSDOF 9
ENDMDL
MODEL 10
REMARK VINA RESULT:      -9.5      2.671     13.501
REMARK  9 active torsions:
REMARK  status: ('A' for Active; 'I' for Inactive)
REMARK    1  A    between atoms: N_2  and  C_4 
REMARK    2  A    between atoms: N_2  and  C_35 
REMARK    3  A    between atoms: C_4  and  C_5 
REMARK    4  A    between atoms: N_8  and  C_9 
REMARK    5  A    between atoms: C_12  and  N_13 
REMARK       I    between atoms: N_13  and  C_14 
REMARK       I    between atoms: C_14  and  N_15 
REMARK    6  A    between atoms: N_15  and  C_16 
REMARK    7  A    between atoms: C_19  and  O_20 
REMARK    8  A    between atoms: O_20  and  C_21 
REMARK    9  A    between atoms: C_35  and  C_36 
ROOT
HETATM    1  C   UNL     1      18.857  48.955  48.322  1.00  0.00     0.161 C 
HETATM    2  C   UNL     1      20.130  49.278  47.548  1.00  0.00     0.179 C 
HETATM    3  C   UNL     1      21.163  48.368  48.191  1.00  0.00     0.177 C 
HETATM    4  C   UNL     1      21.944  49.268  49.145  1.00  0.00     0.141 C 
HETATM    5  C   UNL     1      21.414  50.676  48.896  1.00  0.00     0.196 C 
HETATM    6  O   UNL     1      20.577  50.629  47.728  1.00  0.00    -0.379 OA
HETATM    7  O   UNL     1      20.469  47.344  48.925  1.00  0.00    -0.379 OA
HETATM    8  C   UNL     1      19.066  47.491  48.670  1.00  0.00     0.198 C 
ENDROOT
BRANCH   4   9
HETATM    9  N   UNL     1      23.388  49.103  49.045  1.00  0.00    -0.334 N 
HETATM   10  C   UNL     1      24.270  48.233  49.599  1.00  0.00     0.321 C 
HETATM   11  N   UNL     1      23.763  47.116  50.202  1.00  0.00    -0.309 N 
HETATM   12  O   UNL     1      25.457  48.528  49.491  1.00  0.00    -0.247 OA
HETATM   13  H   UNL     1      22.806  46.878  50.006  1.00  0.00     0.170 HD
HETATM   14  H   UNL     1      23.900  49.900  48.680  1.00  0.00     0.164 HD
BRANCH  11  15
HETATM   15  C   UNL     1      24.536  46.088  50.799  1.00  0.00     0.036 A 
HETATM   16  C   UNL     1      24.382  44.734  50.492  1.00  0.00     0.032 A 
HETATM   17  C   UNL     1      25.128  43.763  51.165  1.00  0.00     0.039 A 
HETATM   18  C   UNL     1      26.047  44.125  52.150  1.00  0.00     0.076 A 
HETATM   19  C   UNL     1      26.226  45.477  52.447  1.00  0.00     0.039 A 
HETATM   20  C   UNL     1      25.487  46.453  51.762  1.00  0.00     0.032 A 
BRANCH  18  21
HETATM   21  O   UNL     1      26.651  43.068  52.790  1.00  0.00    -0.311 OA
BRANCH  21  22
HETATM   22  C   UNL     1      27.935  43.205  53.247  1.00  0.00     0.076 A 
HETATM   23  C   UNL     1      28.118  43.773  54.507  1.00  0.00     0.037 A 
HETATM   24  C   UNL     1      29.400  43.848  55.055  1.00  0.00     0.003 A 
HETATM   25  C   UNL     1      30.489  43.341  54.345  1.00  0.00     0.000 A 
HETATM   26  C   UNL     1      30.299  42.754  53.093  1.00  0.00     0.003 A 
HETATM   27  C   UNL     1      29.019  42.675  52.545  1.00  0.00     0.037 A 
ENDBRANCH  21  22
ENDBRANCH  18  21
ENDBRANCH  11  15
ENDBRANCH   4   9
BRANCH   1  28
HETATM   28  N   UNL     1      17.626  49.219  47.619  1.00  0.00    -0.274 N 
HETATM   29  N   UNL     1      16.434  48.873  48.136  1.00  0.00     0.005 NA
HETATM   30  N   UNL     1      15.489  49.318  47.323  1.00  0.00    -0.161 NA
HETATM   31  C   UNL     1      16.096  49.964  46.279  1.00  0.00     0.095 A 
HETATM   32  C   UNL     1      17.462  49.915  46.453  1.00  0.00     0.139 A 
BRANCH  31  33
HETATM   33  C   UNL     1      15.271  50.590  45.215  1.00  0.00     0.296 C 
BRANCH  33  34
HETATM   34  N   UNL     1      14.561  51.852  45.664  1.00  0.00    -0.066 N 
HETATM   35  C   UNL     1      13.874  52.541  44.523  1.00  0.00     0.270 C 
HETATM   36  H   UNL     1      13.832  51.533  46.319  1.00  0.00     0.280 HD
BRANCH  34  37
HETATM   37  C   UNL     1      15.465  52.764  46.464  1.00  0.00     0.273 C 
BRANCH  37  38
HETATM   38  C   UNL     1      14.924  53.125  47.821  1.00  0.00    -0.033 A 
HETATM   39  C   UNL     1      13.970  54.146  47.964  1.00  0.00     0.009 A 
HETATM   40  C   UNL     1      13.498  54.496  49.230  1.00  0.00     0.001 A 
HETATM   41  C   UNL     1      13.966  53.831  50.361  1.00  0.00     0.000 A 
HETATM   42  C   UNL     1      14.904  52.810  50.231  1.00  0.00     0.001 A 
HETATM   43  C   UNL     1      15.382  52.457  48.968  1.00  0.00     0.009 A 
ENDBRANCH  37  38
ENDBRANCH  34  37
ENDBRANCH  33  34
ENDBRANCH  31  33
ENDBRANCH   1  28
TORSDOF 9
ENDMDL
