MODEL 1
REMARK VINA RESULT:     -10.8      0.000      0.000
REMARK  8 active torsions:
REMARK  status: ('A' for Active; 'I' for Inactive)
REMARK    1  A    between atoms: C_4  and  N_5 
REMARK       I    between atoms: N_5  and  C_6 
REMARK       I    between atoms: C_6  and  N_7 
REMARK    2  A    between atoms: N_7  and  C_8 
REMARK    3  A    between atoms: C_8  and  C_9 
REMARK    4  A    between atoms: C_9  and  C_10 
REMARK    5  A    between atoms: C_14  and  O_15 
REMARK       I    between atoms: N_22  and  C_23 
REMARK    6  A    between atoms: C_23  and  C_24 
REMARK    7  A    between atoms: C_24  and  N_25 
REMARK    8  A    between atoms: N_29  and  C_30 
ROOT
HETATM    1  N   UNL     1      23.507  44.322  49.557  1.00  0.00    -0.017 N 
HETATM    2  C   UNL     1      24.193  45.455  49.875  1.00  0.00     0.718 C 
HETATM    3  N   UNL     1      25.257  45.215  50.709  1.00  0.00    -0.223 N 
HETATM    4  N   UNL     1      23.831  46.624  49.449  1.00  0.00    -0.026 NA
HETATM    5  C   UNL     1      24.500  47.764  49.775  1.00  0.00     0.286 C 
HETATM    6  O   UNL     1      25.463  47.883  50.535  1.00  0.00    -0.269 OA
HETATM    7  H   UNL     1      23.339  43.664  50.301  1.00  0.00     0.203 HD
HETATM    8  H   UNL     1      25.824  46.049  50.876  1.00  0.00     0.177 HD
ENDROOT
BRANCH   1   9
HETATM    9  C   UNL     1      22.497  44.209  48.608  1.00  0.00     0.741 A 
HETATM   10  N   UNL     1      21.275  44.729  48.824  1.00  0.00    -0.067 NA
HETATM   11  C   UNL     1      20.371  44.641  47.826  1.00  0.00     0.051 A 
HETATM   12  C   UNL     1      19.020  45.242  48.066  1.00  0.00     0.071 C 
HETATM   13  C   UNL     1      20.656  44.028  46.625  1.00  0.00     0.054 A 
HETATM   14  C   UNL     1      21.931  43.526  46.480  1.00  0.00     0.051 A 
HETATM   15  N   UNL     1      22.858  43.621  47.456  1.00  0.00    -0.067 NA
HETATM   16  C   UNL     1      22.329  42.823  45.217  1.00  0.00     0.071 C 
ENDBRANCH   1   9
BRANCH   3  17
HETATM   17  C   UNL     1      26.093  44.013  50.669  1.00  0.00     0.142 C 
BRANCH  17  18
HETATM   18  C   UNL     1      26.122  43.252  52.002  1.00  0.00     0.061 C 
BRANCH  18  19
HETATM   19  C   UNL     1      27.504  42.905  52.469  1.00  0.00    -0.029 A 
HETATM   20  C   UNL     1      28.233  43.525  53.535  1.00  0.00    -0.002 A 
HETATM   21  C   UNL     1      29.469  42.887  53.621  1.00  0.00     0.045 A 
HETATM   22  C   UNL     1      27.958  44.575  54.436  1.00  0.00     0.017 A 
HETATM   23  C   UNL     1      30.434  43.234  54.576  1.00  0.00     0.067 A 
HETATM   24  N   UNL     1      29.510  41.943  52.622  1.00  0.00    -0.365 N 
HETATM   25  C   UNL     1      30.138  44.277  55.462  1.00  0.00     0.070 A 
HETATM   26  C   UNL     1      28.915  44.943  55.392  1.00  0.00     0.038 A 
HETATM   27  H   UNL     1      30.305  41.350  52.419  1.00  0.00     0.165 HD
HETATM   28  C   UNL     1      28.330  41.937  51.930  1.00  0.00     0.096 A 
BRANCH  25  29
HETATM   29  O   UNL     1      31.099  44.507  56.411  1.00  0.00    -0.356 OA
HETATM   30  C   UNL     1      31.705  43.347  56.975  1.00  0.00     0.210 C 
ENDBRANCH  25  29
ENDBRANCH  18  19
ENDBRANCH  17  18
ENDBRANCH   3  17
BRANCH   5  31
HETATM   31  C   UNL     1      23.887  49.001  49.117  1.00  0.00     0.340 C 
BRANCH  31  32
HETATM   32  N   UNL     1      22.432  49.247  49.534  1.00  0.00    -0.060 N 
HETATM   33  H   UNL     1      22.313  48.767  50.439  1.00  0.00     0.280 HD
HETATM   34  C   UNL     1      22.174  50.729  49.801  1.00  0.00     0.255 C 
HETATM   35  C   UNL     1      20.702  50.983  50.185  1.00  0.00     0.150 C 
HETATM   36  N   UNL     1      19.798  50.396  49.167  1.00  0.00    -0.378 N 
HETATM   37  C   UNL     1      19.997  48.951  48.950  1.00  0.00     0.150 C 
HETATM   38  C   UNL     1      21.453  48.680  48.524  1.00  0.00     0.255 C 
BRANCH  36  39
HETATM   39  C   UNL     1      18.483  50.881  49.218  1.00  0.00     0.030 A 
HETATM   40  C   UNL     1      18.229  52.124  49.830  1.00  0.00     0.032 A 
HETATM   41  C   UNL     1      16.943  52.667  49.883  1.00  0.00     0.044 A 
HETATM   42  C   UNL     1      15.887  51.972  49.316  1.00  0.00     0.116 A 
HETATM   43  F   UNL     1      14.653  52.488  49.359  1.00  0.00    -0.206 F 
HETATM   44  C   UNL     1      16.097  50.748  48.698  1.00  0.00     0.044 A 
HETATM   45  C   UNL     1      17.388  50.210  48.647  1.00  0.00     0.032 A 
ENDBRANCH  36  39
ENDBRANCH  31  32
ENDBRANCH   5  31
TORSDOF 8
ENDMDL
MODEL 2
REMARK VINA RESULT:     -10.7      1.223      1.852
REMARK  8 active torsions:
REMARK  status: ('A' for Active; 'I' for Inactive)
REMARK    1  A    between atoms: C_4  and  N_5 
REMARK       I    between atoms: N_5  and  C_6 
REMARK       I    between atoms: C_6  and  N_7 
REMARK    2  A    between atoms: N_7  and  C_8 
REMARK    3  A    between atoms: C_8  and  C_9 
REMARK    4  A    between atoms: C_9  and  C_10 
REMARK    5  A    between atoms: C_14  and  O_15 
REMARK       I    between atoms: N_22  and  C_23 
REMARK    6  A    between atoms: C_23  and  C_24 
REMARK    7  A    between atoms: C_24  and  N_25 
REMARK    8  A    between atoms: N_29  and  C_30 
ROOT
HETATM    1  N   UNL     1      23.798  43.581  49.822  1.00  0.00    -0.017 N 
HETATM    2  C   UNL     1      24.184  44.798  50.297  1.00  0.00     0.718 C 
HETATM    3  N   UNL     1      24.910  44.708  51.459  1.00  0.00    -0.223 N 
HETATM    4  N   UNL     1      23.854  45.905  49.709  1.00  0.00    -0.026 NA
HETATM    5  C   UNL     1      24.221  47.126  50.185  1.00  0.00     0.286 C 
HETATM    6  O   UNL     1      24.835  47.379  51.224  1.00  0.00    -0.269 OA
HETATM    7  H   UNL     1      23.462  42.912  50.497  1.00  0.00     0.203 HD
HETATM    8  H   UNL     1      25.276  45.612  51.766  1.00  0.00     0.177 HD
ENDROOT
BRANCH   1   9
HETATM    9  C   UNL     1      23.206  43.327  48.590  1.00  0.00     0.741 A 
HETATM   10  N   UNL     1      21.991  43.817  48.285  1.00  0.00    -0.067 NA
HETATM   11  C   UNL     1      21.516  43.588  47.043  1.00  0.00     0.051 A 
HETATM   12  C   UNL     1      20.172  44.156  46.703  1.00  0.00     0.071 C 
HETATM   13  C   UNL     1      22.220  42.862  46.106  1.00  0.00     0.054 A 
HETATM   14  C   UNL     1      23.458  42.398  46.495  1.00  0.00     0.051 A 
HETATM   15  N   UNL     1      23.963  42.634  47.724  1.00  0.00    -0.067 NA
HETATM   16  C   UNL     1      24.291  41.581  45.553  1.00  0.00     0.071 C 
ENDBRANCH   1   9
BRANCH   3  17
HETATM   17  C   UNL     1      25.847  43.629  51.776  1.00  0.00     0.142 C 
BRANCH  17  18
HETATM   18  C   UNL     1      27.309  44.094  51.828  1.00  0.00     0.061 C 
BRANCH  18  19
HETATM   19  C   UNL     1      27.696  44.722  53.133  1.00  0.00    -0.029 A 
HETATM   20  C   UNL     1      28.767  44.324  53.996  1.00  0.00    -0.002 A 
HETATM   21  C   UNL     1      28.762  45.185  55.093  1.00  0.00     0.045 A 
HETATM   22  C   UNL     1      29.742  43.305  53.950  1.00  0.00     0.017 A 
HETATM   23  C   UNL     1      29.696  45.089  56.133  1.00  0.00     0.067 A 
HETATM   24  N   UNL     1      27.706  46.049  54.927  1.00  0.00    -0.365 N 
HETATM   25  C   UNL     1      30.656  44.074  56.065  1.00  0.00     0.070 A 
HETATM   26  C   UNL     1      30.678  43.188  54.987  1.00  0.00     0.038 A 
HETATM   27  H   UNL     1      27.433  46.764  55.590  1.00  0.00     0.165 HD
HETATM   28  C   UNL     1      27.064  45.787  53.746  1.00  0.00     0.096 A 
BRANCH  25  29
HETATM   29  O   UNL     1      31.578  44.091  57.078  1.00  0.00    -0.356 OA
HETATM   30  C   UNL     1      31.181  44.772  58.266  1.00  0.00     0.210 C 
ENDBRANCH  25  29
ENDBRANCH  18  19
ENDBRANCH  17  18
ENDBRANCH   3  17
BRANCH   5  31
HETATM   31  C   UNL     1      23.731  48.266  49.290  1.00  0.00     0.340 C 
BRANCH  31  32
HETATM   32  N   UNL     1      22.352  48.801  49.696  1.00  0.00    -0.060 N 
HETATM   33  H   UNL     1      22.242  48.565  50.694  1.00  0.00     0.280 HD
HETATM   34  C   UNL     1      22.301  50.325  49.610  1.00  0.00     0.255 C 
HETATM   35  C   UNL     1      20.905  50.863  49.983  1.00  0.00     0.150 C 
HETATM   36  N   UNL     1      19.862  50.186  49.175  1.00  0.00    -0.378 N 
HETATM   37  C   UNL     1      19.864  48.717  49.303  1.00  0.00     0.150 C 
HETATM   38  C   UNL     1      21.239  48.155  48.895  1.00  0.00     0.255 C 
BRANCH  36  39
HETATM   39  C   UNL     1      18.625  50.847  49.163  1.00  0.00     0.030 A 
HETATM   40  C   UNL     1      17.510  50.212  48.581  1.00  0.00     0.032 A 
HETATM   41  C   UNL     1      16.249  50.813  48.567  1.00  0.00     0.044 A 
HETATM   42  C   UNL     1      16.083  52.063  49.143  1.00  0.00     0.116 A 
HETATM   43  F   UNL     1      14.877  52.642  49.136  1.00  0.00    -0.206 F 
HETATM   44  C   UNL     1      17.155  52.716  49.731  1.00  0.00     0.044 A 
HETATM   45  C   UNL     1      18.417  52.109  49.743  1.00  0.00     0.032 A 
ENDBRANCH  36  39
ENDBRANCH  31  32
ENDBRANCH   5  31
TORSDOF 8
ENDMDL
MODEL 3
REMARK VINA RESULT:     -10.7      4.014     11.409
REMARK  8 active torsions:
REMARK  status: ('A' for Active; 'I' for Inactive)
REMARK    1  A    between atoms: C_4  and  N_5 
REMARK       I    between atoms: N_5  and  C_6 
REMARK       I    between atoms: C_6  and  N_7 
REMARK    2  A    between atoms: N_7  and  C_8 
REMARK    3  A    between atoms: C_8  and  C_9 
REMARK    4  A    between atoms: C_9  and  C_10 
REMARK    5  A    between atoms: C_14  and  O_15 
REMARK       I    between atoms: N_22  and  C_23 
REMARK    6  A    between atoms: C_23  and  C_24 
REMARK    7  A    between atoms: C_24  and  N_25 
REMARK    8  A    between atoms: N_29  and  C_30 
ROOT
HETATM    1  N   UNL     1      21.671  48.203  47.764  1.00  0.00    -0.017 N 
HETATM    2  C   UNL     1      22.738  48.245  48.611  1.00  0.00     0.718 C 
HETATM    3  N   UNL     1      23.308  49.492  48.684  1.00  0.00    -0.223 N 
HETATM    4  N   UNL     1      23.165  47.194  49.237  1.00  0.00    -0.026 NA
HETATM    5  C   UNL     1      24.240  47.223  50.072  1.00  0.00     0.286 C 
HETATM    6  O   UNL     1      24.984  48.176  50.312  1.00  0.00    -0.269 OA
HETATM    7  H   UNL     1      21.761  48.694  46.889  1.00  0.00     0.203 HD
HETATM    8  H   UNL     1      24.050  49.546  49.385  1.00  0.00     0.177 HD
ENDROOT
BRANCH   1   9
HETATM    9  C   UNL     1      20.787  47.142  47.606  1.00  0.00     0.741 A 
HETATM   10  N   UNL     1      21.186  45.974  47.069  1.00  0.00    -0.067 NA
HETATM   11  C   UNL     1      20.288  44.969  47.016  1.00  0.00     0.051 A 
HETATM   12  C   UNL     1      20.746  43.665  46.438  1.00  0.00     0.071 C 
HETATM   13  C   UNL     1      18.993  45.112  47.468  1.00  0.00     0.054 A 
HETATM   14  C   UNL     1      18.665  46.336  48.008  1.00  0.00     0.051 A 
HETATM   15  N   UNL     1      19.553  47.349  48.092  1.00  0.00    -0.067 NA
HETATM   16  C   UNL     1      17.275  46.595  48.508  1.00  0.00     0.071 C 
ENDBRANCH   1   9
BRANCH   3  17
HETATM   17  C   UNL     1      22.567  50.753  48.606  1.00  0.00     0.142 C 
BRANCH  17  18
HETATM   18  C   UNL     1      21.832  51.103  49.907  1.00  0.00     0.061 C 
BRANCH  18  19
HETATM   19  C   UNL     1      20.387  50.699  49.911  1.00  0.00    -0.029 A 
HETATM   20  C   UNL     1      19.321  51.311  49.175  1.00  0.00    -0.002 A 
HETATM   21  C   UNL     1      18.153  50.613  49.476  1.00  0.00     0.045 A 
HETATM   22  C   UNL     1      19.239  52.399  48.281  1.00  0.00     0.017 A 
HETATM   23  C   UNL     1      16.913  50.938  48.912  1.00  0.00     0.067 A 
HETATM   24  N   UNL     1      18.484  49.640  50.390  1.00  0.00    -0.365 N 
HETATM   25  C   UNL     1      16.855  52.018  48.025  1.00  0.00     0.070 A 
HETATM   26  C   UNL     1      18.004  52.744  47.714  1.00  0.00     0.038 A 
HETATM   27  H   UNL     1      17.826  49.002  50.819  1.00  0.00     0.165 HD
HETATM   28  C   UNL     1      19.827  49.676  50.650  1.00  0.00     0.096 A 
BRANCH  25  29
HETATM   29  O   UNL     1      15.625  52.226  47.458  1.00  0.00    -0.356 OA
HETATM   30  C   UNL     1      15.584  52.195  46.034  1.00  0.00     0.210 C 
ENDBRANCH  25  29
ENDBRANCH  18  19
ENDBRANCH  17  18
ENDBRANCH   3  17
BRANCH   5  31
HETATM   31  C   UNL     1      24.515  45.859  50.707  1.00  0.00     0.340 C 
BRANCH  31  32
HETATM   32  N   UNL     1      25.873  45.786  51.415  1.00  0.00    -0.060 N 
HETATM   33  H   UNL     1      26.468  46.493  50.956  1.00  0.00     0.280 HD
HETATM   34  C   UNL     1      25.760  46.208  52.878  1.00  0.00     0.255 C 
HETATM   35  C   UNL     1      27.117  46.100  53.602  1.00  0.00     0.150 C 
HETATM   36  N   UNL     1      27.691  44.746  53.416  1.00  0.00    -0.378 N 
HETATM   37  C   UNL     1      27.864  44.356  52.005  1.00  0.00     0.150 C 
HETATM   38  C   UNL     1      26.509  44.417  51.273  1.00  0.00     0.255 C 
BRANCH  36  39
HETATM   39  C   UNL     1      28.715  44.426  54.320  1.00  0.00     0.030 A 
HETATM   40  C   UNL     1      29.398  43.203  54.183  1.00  0.00     0.032 A 
HETATM   41  C   UNL     1      30.445  42.847  55.038  1.00  0.00     0.044 A 
HETATM   42  C   UNL     1      30.828  43.719  56.045  1.00  0.00     0.116 A 
HETATM   43  F   UNL     1      31.832  43.386  56.865  1.00  0.00    -0.206 F 
HETATM   44  C   UNL     1      30.183  44.936  56.207  1.00  0.00     0.044 A 
HETATM   45  C   UNL     1      29.136  45.287  55.347  1.00  0.00     0.032 A 
ENDBRANCH  36  39
ENDBRANCH  31  32
ENDBRANCH   5  31
TORSDOF 8
ENDMDL
MODEL 4
REMARK VINA RESULT:     -10.5      2.021      3.988
REMARK  8 active torsions:
REMARK  status: ('A' for Active; 'I' for Inactive)
REMARK    1  A    between atoms: C_4  and  N_5 
REMARK       I    between atoms: N_5  and  C_6 
REMARK       I    between atoms: C_6  and  N_7 
REMARK    2  A    between atoms: N_7  and  C_8 
REMARK    3  A    between atoms: C_8  and  C_9 
REMARK    4  A    between atoms: C_9  and  C_10 
REMARK    5  A    between atoms: C_14  and  O_15 
REMARK       I    between atoms: N_22  and  C_23 
REMARK    6  A    between atoms: C_23  and  C_24 
REMARK    7  A    between atoms: C_24  and  N_25 
REMARK    8  A    between atoms: N_29  and  C_30 
ROOT
HETATM    1  N   UNL     1      24.973  46.373  50.048  1.00  0.00    -0.017 N 
HETATM    2  C   UNL     1      24.033  45.423  49.786  1.00  0.00     0.718 C 
HETATM    3  N   UNL     1      24.041  44.402  50.704  1.00  0.00    -0.223 N 
HETATM    4  N   UNL     1      23.256  45.487  48.751  1.00  0.00    -0.026 NA
HETATM    5  C   UNL     1      22.325  44.533  48.472  1.00  0.00     0.286 C 
HETATM    6  O   UNL     1      22.118  43.480  49.078  1.00  0.00    -0.269 OA
HETATM    7  H   UNL     1      25.884  46.051  50.335  1.00  0.00     0.203 HD
HETATM    8  H   UNL     1      23.279  43.736  50.560  1.00  0.00     0.177 HD
ENDROOT
BRANCH   1   9
HETATM    9  C   UNL     1      25.102  47.603  49.411  1.00  0.00     0.741 A 
HETATM   10  N   UNL     1      24.035  48.230  48.883  1.00  0.00    -0.067 NA
HETATM   11  C   UNL     1      24.229  49.452  48.346  1.00  0.00     0.051 A 
HETATM   12  C   UNL     1      23.032  50.154  47.779  1.00  0.00     0.071 C 
HETATM   13  C   UNL     1      25.469  50.052  48.306  1.00  0.00     0.054 A 
HETATM   14  C   UNL     1      26.509  49.347  48.872  1.00  0.00     0.051 A 
HETATM   15  N   UNL     1      26.334  48.133  49.435  1.00  0.00    -0.067 NA
HETATM   16  C   UNL     1      27.899  49.908  48.859  1.00  0.00     0.071 C 
ENDBRANCH   1   9
BRANCH   3  17
HETATM   17  C   UNL     1      24.332  44.565  52.130  1.00  0.00     0.142 C 
BRANCH  17  18
HETATM   18  C   UNL     1      25.616  43.849  52.571  1.00  0.00     0.061 C 
BRANCH  18  19
HETATM   19  C   UNL     1      26.465  44.656  53.508  1.00  0.00    -0.029 A 
HETATM   20  C   UNL     1      27.727  44.277  54.068  1.00  0.00    -0.002 A 
HETATM   21  C   UNL     1      28.157  45.326  54.879  1.00  0.00     0.045 A 
HETATM   22  C   UNL     1      28.547  43.133  53.965  1.00  0.00     0.017 A 
HETATM   23  C   UNL     1      29.373  45.296  55.573  1.00  0.00     0.067 A 
HETATM   24  N   UNL     1      27.178  46.291  54.847  1.00  0.00    -0.365 N 
HETATM   25  C   UNL     1      30.171  44.153  55.453  1.00  0.00     0.070 A 
HETATM   26  C   UNL     1      29.763  43.081  54.661  1.00  0.00     0.038 A 
HETATM   27  H   UNL     1      27.199  47.155  55.375  1.00  0.00     0.165 HD
HETATM   28  C   UNL     1      26.160  45.903  54.018  1.00  0.00     0.096 A 
BRANCH  25  29
HETATM   29  O   UNL     1      31.377  44.229  56.100  1.00  0.00    -0.356 OA
HETATM   30  C   UNL     1      31.555  43.327  57.189  1.00  0.00     0.210 C 
ENDBRANCH  25  29
ENDBRANCH  18  19
ENDBRANCH  17  18
ENDBRANCH   3  17
BRANCH   5  31
HETATM   31  C   UNL     1      21.519  44.864  47.215  1.00  0.00     0.340 C 
BRANCH  31  32
HETATM   32  N   UNL     1      20.502  45.990  47.430  1.00  0.00    -0.060 N 
HETATM   33  H   UNL     1      19.593  45.610  47.125  1.00  0.00     0.280 HD
HETATM   34  C   UNL     1      20.349  46.326  48.912  1.00  0.00     0.255 C 
HETATM   35  C   UNL     1      19.353  47.483  49.127  1.00  0.00     0.150 C 
HETATM   36  N   UNL     1      19.731  48.647  48.289  1.00  0.00    -0.378 N 
HETATM   37  C   UNL     1      19.817  48.346  46.849  1.00  0.00     0.150 C 
HETATM   38  C   UNL     1      20.840  47.219  46.607  1.00  0.00     0.255 C 
BRANCH  36  39
HETATM   39  C   UNL     1      19.130  49.854  48.677  1.00  0.00     0.030 A 
HETATM   40  C   UNL     1      19.646  51.069  48.187  1.00  0.00     0.032 A 
HETATM   41  C   UNL     1      19.068  52.298  48.519  1.00  0.00     0.044 A 
HETATM   42  C   UNL     1      17.958  52.327  49.347  1.00  0.00     0.116 A 
HETATM   43  F   UNL     1      17.398  53.500  49.665  1.00  0.00    -0.206 F 
HETATM   44  C   UNL     1      17.417  51.151  49.844  1.00  0.00     0.044 A 
HETATM   45  C   UNL     1      17.999  49.923  49.508  1.00  0.00     0.032 A 
ENDBRANCH  36  39
ENDBRANCH  31  32
ENDBRANCH   5  31
TORSDOF 8
ENDMDL
MODEL 5
REMARK VINA RESULT:     -10.4      3.997     10.988
REMARK  8 active torsions:
REMARK  status: ('A' for Active; 'I' for Inactive)
REMARK    1  A    between atoms: C_4  and  N_5 
REMARK       I    between atoms: N_5  and  C_6 
REMARK       I    between atoms: C_6  and  N_7 
REMARK    2  A    between atoms: N_7  and  C_8 
REMARK    3  A    between atoms: C_8  and  C_9 
REMARK    4  A    between atoms: C_9  and  C_10 
REMARK    5  A    between atoms: C_14  and  O_15 
REMARK       I    between atoms: N_22  and  C_23 
REMARK    6  A    between atoms: C_23  and  C_24 
REMARK    7  A    between atoms: C_24  and  N_25 
REMARK    8  A    between atoms: N_29  and  C_30 
ROOT
HETATM    1  N   UNL     1      21.935  46.562  48.804  1.00  0.00    -0.017 N 
HETATM    2  C   UNL     1      22.023  45.210  48.661  1.00  0.00     0.718 C 
HETATM    3  N   UNL     1      20.816  44.629  48.359  1.00  0.00    -0.223 N 
HETATM    4  N   UNL     1      23.135  44.567  48.836  1.00  0.00    -0.026 NA
HETATM    5  C   UNL     1      23.228  43.215  48.712  1.00  0.00     0.286 C 
HETATM    6  O   UNL     1      22.320  42.412  48.491  1.00  0.00    -0.269 OA
HETATM    7  H   UNL     1      21.139  46.918  49.309  1.00  0.00     0.203 HD
HETATM    8  H   UNL     1      20.898  43.629  48.163  1.00  0.00     0.177 HD
ENDROOT
BRANCH   1   9
HETATM    9  C   UNL     1      22.999  47.447  48.940  1.00  0.00     0.741 A 
HETATM   10  N   UNL     1      24.131  47.085  49.571  1.00  0.00    -0.067 NA
HETATM   11  C   UNL     1      25.145  47.975  49.598  1.00  0.00     0.051 A 
HETATM   12  C   UNL     1      26.410  47.558  50.284  1.00  0.00     0.071 C 
HETATM   13  C   UNL     1      25.044  49.225  49.026  1.00  0.00     0.054 A 
HETATM   14  C   UNL     1      23.855  49.516  48.395  1.00  0.00     0.051 A 
HETATM   15  N   UNL     1      22.835  48.634  48.336  1.00  0.00    -0.067 NA
HETATM   16  C   UNL     1      23.643  50.859  47.761  1.00  0.00     0.071 C 
ENDBRANCH   1   9
BRANCH   3  17
HETATM   17  C   UNL     1      19.781  45.243  47.524  1.00  0.00     0.142 C 
BRANCH  17  18
HETATM   18  C   UNL     1      18.446  45.431  48.257  1.00  0.00     0.061 C 
BRANCH  18  19
HETATM   19  C   UNL     1      17.832  46.784  48.055  1.00  0.00    -0.029 A 
HETATM   20  C   UNL     1      18.062  47.959  48.840  1.00  0.00    -0.002 A 
HETATM   21  C   UNL     1      17.289  48.984  48.296  1.00  0.00     0.045 A 
HETATM   22  C   UNL     1      18.855  48.249  49.971  1.00  0.00     0.017 A 
HETATM   23  C   UNL     1      17.287  50.285  48.813  1.00  0.00     0.067 A 
HETATM   24  N   UNL     1      16.585  48.447  47.243  1.00  0.00    -0.365 N 
HETATM   25  C   UNL     1      18.083  50.551  49.933  1.00  0.00     0.070 A 
HETATM   26  C   UNL     1      18.857  49.543  50.509  1.00  0.00     0.038 A 
HETATM   27  H   UNL     1      15.911  48.950  46.681  1.00  0.00     0.165 HD
HETATM   28  C   UNL     1      16.912  47.127  47.083  1.00  0.00     0.096 A 
BRANCH  25  29
HETATM   29  O   UNL     1      18.085  51.861  50.334  1.00  0.00    -0.356 OA
HETATM   30  C   UNL     1      17.206  52.729  49.622  1.00  0.00     0.210 C 
ENDBRANCH  25  29
ENDBRANCH  18  19
ENDBRANCH  17  18
ENDBRANCH   3  17
BRANCH   5  31
HETATM   31  C   UNL     1      24.655  42.712  48.937  1.00  0.00     0.340 C 
BRANCH  31  32
HETATM   32  N   UNL     1      25.420  43.522  49.991  1.00  0.00    -0.060 N 
HETATM   33  H   UNL     1      25.186  44.510  49.812  1.00  0.00     0.280 HD
HETATM   34  C   UNL     1      24.918  43.213  51.400  1.00  0.00     0.255 C 
HETATM   35  C   UNL     1      25.711  43.999  52.464  1.00  0.00     0.150 C 
HETATM   36  N   UNL     1      27.166  43.775  52.289  1.00  0.00    -0.378 N 
HETATM   37  C   UNL     1      27.671  44.132  50.950  1.00  0.00     0.150 C 
HETATM   38  C   UNL     1      26.920  43.326  49.873  1.00  0.00     0.255 C 
BRANCH  36  39
HETATM   39  C   UNL     1      27.941  44.129  53.403  1.00  0.00     0.030 A 
HETATM   40  C   UNL     1      29.072  43.357  53.730  1.00  0.00     0.032 A 
HETATM   41  C   UNL     1      29.895  43.682  54.812  1.00  0.00     0.044 A 
HETATM   42  C   UNL     1      29.598  44.794  55.583  1.00  0.00     0.116 A 
HETATM   43  F   UNL     1      30.384  45.113  56.618  1.00  0.00    -0.206 F 
HETATM   44  C   UNL     1      28.496  45.583  55.289  1.00  0.00     0.044 A 
HETATM   45  C   UNL     1      27.676  45.254  54.203  1.00  0.00     0.032 A 
ENDBRANCH  36  39
ENDBRANCH  31  32
ENDBRANCH   5  31
TORSDOF 8
ENDMDL
MODEL 6
REMARK VINA RESULT:     -10.3      4.019     11.014
REMARK  8 active torsions:
REMARK  status: ('A' for Active; 'I' for Inactive)
REMARK    1  A    between atoms: C_4  and  N_5 
REMARK       I    between atoms: N_5  and  C_6 
REMARK       I    between atoms: C_6  and  N_7 
REMARK    2  A    between atoms: N_7  and  C_8 
REMARK    3  A    between atoms: C_8  and  C_9 
REMARK    4  A    between atoms: C_9  and  C_10 
REMARK    5  A    between atoms: C_14  and  O_15 
REMARK       I    between atoms: N_22  and  C_23 
REMARK    6  A    between atoms: C_23  and  C_24 
REMARK    7  A    between atoms: C_24  and  N_25 
REMARK    8  A    between atoms: N_29  and  C_30 
ROOT
HETATM    1  N   UNL     1      21.948  46.548  48.726  1.00  0.00    -0.017 N 
HETATM    2  C   UNL     1      21.979  45.193  48.588  1.00  0.00     0.718 C 
HETATM    3  N   UNL     1      20.744  44.659  48.313  1.00  0.00    -0.223 N 
HETATM    4  N   UNL     1      23.069  44.508  48.742  1.00  0.00    -0.026 NA
HETATM    5  C   UNL     1      23.106  43.152  48.622  1.00  0.00     0.286 C 
HETATM    6  O   UNL     1      22.162  42.385  48.425  1.00  0.00    -0.269 OA
HETATM    7  H   UNL     1      21.178  46.938  49.246  1.00  0.00     0.203 HD
HETATM    8  H   UNL     1      20.782  43.655  48.121  1.00  0.00     0.177 HD
ENDROOT
BRANCH   1   9
HETATM    9  C   UNL     1      23.048  47.391  48.835  1.00  0.00     0.741 A 
HETATM   10  N   UNL     1      23.112  48.548  48.151  1.00  0.00    -0.067 NA
HETATM   11  C   UNL     1      24.179  49.345  48.365  1.00  0.00     0.051 A 
HETATM   12  C   UNL     1      24.232  50.641  47.616  1.00  0.00     0.071 C 
HETATM   13  C   UNL     1      25.194  49.001  49.232  1.00  0.00     0.054 A 
HETATM   14  C   UNL     1      25.052  47.803  49.898  1.00  0.00     0.051 A 
HETATM   15  N   UNL     1      23.982  47.000  49.716  1.00  0.00    -0.067 NA
HETATM   16  C   UNL     1      26.114  47.333  50.847  1.00  0.00     0.071 C 
ENDBRANCH   1   9
BRANCH   3  17
HETATM   17  C   UNL     1      19.717  45.310  47.497  1.00  0.00     0.142 C 
BRANCH  17  18
HETATM   18  C   UNL     1      18.369  45.446  48.219  1.00  0.00     0.061 C 
BRANCH  18  19
HETATM   19  C   UNL     1      17.733  46.795  48.058  1.00  0.00    -0.029 A 
HETATM   20  C   UNL     1      17.999  47.970  48.832  1.00  0.00    -0.002 A 
HETATM   21  C   UNL     1      17.186  48.989  48.339  1.00  0.00     0.045 A 
HETATM   22  C   UNL     1      18.856  48.262  49.915  1.00  0.00     0.017 A 
HETATM   23  C   UNL     1      17.204  50.289  48.860  1.00  0.00     0.067 A 
HETATM   24  N   UNL     1      16.425  48.448  47.329  1.00  0.00    -0.365 N 
HETATM   25  C   UNL     1      18.064  50.558  49.930  1.00  0.00     0.070 A 
HETATM   26  C   UNL     1      18.880  49.556  50.455  1.00  0.00     0.038 A 
HETATM   27  H   UNL     1      15.713  48.948  46.810  1.00  0.00     0.165 HD
HETATM   28  C   UNL     1      16.753  47.132  47.145  1.00  0.00     0.096 A 
BRANCH  25  29
HETATM   29  O   UNL     1      18.079  51.867  50.335  1.00  0.00    -0.356 OA
HETATM   30  C   UNL     1      17.208  52.745  49.627  1.00  0.00     0.210 C 
ENDBRANCH  25  29
ENDBRANCH  18  19
ENDBRANCH  17  18
ENDBRANCH   3  17
BRANCH   5  31
HETATM   31  C   UNL     1      24.516  42.594  48.820  1.00  0.00     0.340 C 
BRANCH  31  32
HETATM   32  N   UNL     1      25.328  43.365  49.868  1.00  0.00    -0.060 N 
HETATM   33  H   UNL     1      25.045  44.352  49.774  1.00  0.00     0.280 HD
HETATM   34  C   UNL     1      24.945  42.945  51.286  1.00  0.00     0.255 C 
HETATM   35  C   UNL     1      25.786  43.692  52.341  1.00  0.00     0.150 C 
HETATM   36  N   UNL     1      27.231  43.541  52.045  1.00  0.00    -0.378 N 
HETATM   37  C   UNL     1      27.620  44.005  50.701  1.00  0.00     0.150 C 
HETATM   38  C   UNL     1      26.821  43.240  49.629  1.00  0.00     0.255 C 
BRANCH  36  39
HETATM   39  C   UNL     1      28.074  43.854  53.122  1.00  0.00     0.030 A 
HETATM   40  C   UNL     1      27.764  44.957  53.942  1.00  0.00     0.032 A 
HETATM   41  C   UNL     1      28.553  45.296  55.044  1.00  0.00     0.044 A 
HETATM   42  C   UNL     1      29.667  44.529  55.346  1.00  0.00     0.116 A 
HETATM   43  F   UNL     1      30.425  44.846  56.402  1.00  0.00    -0.206 F 
HETATM   44  C   UNL     1      30.001  43.432  54.566  1.00  0.00     0.044 A 
HETATM   45  C   UNL     1      29.207  43.097  53.463  1.00  0.00     0.032 A 
ENDBRANCH  36  39
ENDBRANCH  31  32
ENDBRANCH   5  31
TORSDOF 8
ENDMDL
MODEL 7
REMARK VINA RESULT:     -10.2      3.125      4.553
REMARK  8 active torsions:
REMARK  status: ('A' for Active; 'I' for Inactive)
REMARK    1  A    between atoms: C_4  and  N_5 
REMARK       I    between atoms: N_5  and  C_6 
REMARK       I    between atoms: C_6  and  N_7 
REMARK    2  A    between atoms: N_7  and  C_8 
REMARK    3  A    between atoms: C_8  and  C_9 
REMARK    4  A    between atoms: C_9  and  C_10 
REMARK    5  A    between atoms: C_14  and  O_15 
REMARK       I    between atoms: N_22  and  C_23 
REMARK    6  A    between atoms: C_23  and  C_24 
REMARK    7  A    between atoms: C_24  and  N_25 
REMARK    8  A    between atoms: N_29  and  C_30 
ROOT
HETATM    1  N   UNL     1      26.272  40.405  49.488  1.00  0.00    -0.017 N 
HETATM    2  C   UNL     1      25.506  41.400  50.017  1.00  0.00     0.718 C 
HETATM    3  N   UNL     1      25.827  41.678  51.323  1.00  0.00    -0.223 N 
HETATM    4  N   UNL     1      24.558  41.975  49.345  1.00  0.00    -0.026 NA
HETATM    5  C   UNL     1      23.778  42.958  49.872  1.00  0.00     0.286 C 
HETATM    6  O   UNL     1      23.790  43.397  51.023  1.00  0.00    -0.269 OA
HETATM    7  H   UNL     1      26.453  39.606  50.073  1.00  0.00     0.203 HD
HETATM    8  H   UNL     1      25.316  42.483  51.692  1.00  0.00     0.177 HD
ENDROOT
BRANCH   1   9
HETATM    9  C   UNL     1      26.307  40.014  48.153  1.00  0.00     0.741 A 
HETATM   10  N   UNL     1      25.449  39.096  47.672  1.00  0.00    -0.067 NA
HETATM   11  C   UNL     1      25.499  38.824  46.352  1.00  0.00     0.051 A 
HETATM   12  C   UNL     1      24.526  37.817  45.819  1.00  0.00     0.071 C 
HETATM   13  C   UNL     1      26.401  39.434  45.506  1.00  0.00     0.054 A 
HETATM   14  C   UNL     1      27.241  40.365  46.076  1.00  0.00     0.051 A 
HETATM   15  N   UNL     1      27.195  40.670  47.390  1.00  0.00    -0.067 NA
HETATM   16  C   UNL     1      28.271  41.066  45.241  1.00  0.00     0.071 C 
ENDBRANCH   1   9
BRANCH   3  17
HETATM   17  C   UNL     1      27.180  41.617  51.880  1.00  0.00     0.142 C 
BRANCH  17  18
HETATM   18  C   UNL     1      28.006  42.881  51.601  1.00  0.00     0.061 C 
BRANCH  18  19
HETATM   19  C   UNL     1      28.003  43.865  52.734  1.00  0.00    -0.029 A 
HETATM   20  C   UNL     1      28.915  43.909  53.837  1.00  0.00    -0.002 A 
HETATM   21  C   UNL     1      28.543  44.983  54.644  1.00  0.00     0.045 A 
HETATM   22  C   UNL     1      30.025  43.130  54.229  1.00  0.00     0.017 A 
HETATM   23  C   UNL     1      29.238  45.328  55.810  1.00  0.00     0.067 A 
HETATM   24  N   UNL     1      27.425  45.548  54.077  1.00  0.00    -0.365 N 
HETATM   25  C   UNL     1      30.337  44.544  56.178  1.00  0.00     0.070 A 
HETATM   26  C   UNL     1      30.726  43.455  55.399  1.00  0.00     0.038 A 
HETATM   27  H   UNL     1      26.909  46.327  54.468  1.00  0.00     0.165 HD
HETATM   28  C   UNL     1      27.098  44.891  52.923  1.00  0.00     0.096 A 
BRANCH  25  29
HETATM   29  O   UNL     1      31.008  44.989  57.288  1.00  0.00    -0.356 OA
HETATM   30  C   UNL     1      30.292  45.892  58.126  1.00  0.00     0.210 C 
ENDBRANCH  25  29
ENDBRANCH  18  19
ENDBRANCH  17  18
ENDBRANCH   3  17
BRANCH   5  31
HETATM   31  C   UNL     1      22.759  43.488  48.862  1.00  0.00     0.340 C 
BRANCH  31  32
HETATM   32  N   UNL     1      22.230  44.883  49.215  1.00  0.00    -0.060 N 
HETATM   33  H   UNL     1      22.158  44.905  50.244  1.00  0.00     0.280 HD
HETATM   34  C   UNL     1      23.233  45.970  48.834  1.00  0.00     0.255 C 
HETATM   35  C   UNL     1      22.687  47.376  49.155  1.00  0.00     0.150 C 
HETATM   36  N   UNL     1      21.350  47.560  48.542  1.00  0.00    -0.378 N 
HETATM   37  C   UNL     1      20.357  46.551  48.956  1.00  0.00     0.150 C 
HETATM   38  C   UNL     1      20.865  45.139  48.606  1.00  0.00     0.255 C 
BRANCH  36  39
HETATM   39  C   UNL     1      20.935  48.897  48.455  1.00  0.00     0.030 A 
HETATM   40  C   UNL     1      19.566  49.186  48.299  1.00  0.00     0.032 A 
HETATM   41  C   UNL     1      19.096  50.501  48.235  1.00  0.00     0.044 A 
HETATM   42  C   UNL     1      19.995  51.551  48.332  1.00  0.00     0.116 A 
HETATM   43  F   UNL     1      19.551  52.812  48.275  1.00  0.00    -0.206 F 
HETATM   44  C   UNL     1      21.351  51.306  48.492  1.00  0.00     0.044 A 
HETATM   45  C   UNL     1      21.816  49.988  48.557  1.00  0.00     0.032 A 
ENDBRANCH  36  39
ENDBRANCH  31  32
ENDBRANCH   5  31
TORSDOF 8
ENDMDL
MODEL 8
REMARK VINA RESULT:     -10.2      4.183     11.596
REMARK  8 active torsions:
REMARK  status: ('A' for Active; 'I' for Inactive)
REMARK    1  A    between atoms: C_4  and  N_5 
REMARK       I    between atoms: N_5  and  C_6 
REMARK       I    between atoms: C_6  and  N_7 
REMARK    2  A    between atoms: N_7  and  C_8 
REMARK    3  A    between atoms: C_8  and  C_9 
REMARK    4  A    between atoms: C_9  and  C_10 
REMARK    5  A    between atoms: C_14  and  O_15 
REMARK       I    between atoms: N_22  and  C_23 
REMARK    6  A    between atoms: C_23  and  C_24 
REMARK    7  A    between atoms: C_24  and  N_25 
REMARK    8  A    between atoms: N_29  and  C_30 
ROOT
HETATM    1  N   UNL     1      22.254  47.359  49.018  1.00  0.00    -0.017 N 
HETATM    2  C   UNL     1      21.878  46.117  48.602  1.00  0.00     0.718 C 
HETATM    3  N   UNL     1      20.570  46.072  48.184  1.00  0.00    -0.223 N 
HETATM    4  N   UNL     1      22.681  45.101  48.644  1.00  0.00    -0.026 NA
HETATM    5  C   UNL     1      22.308  43.854  48.246  1.00  0.00     0.286 C 
HETATM    6  O   UNL     1      21.197  43.483  47.864  1.00  0.00    -0.269 OA
HETATM    7  H   UNL     1      21.596  47.872  49.583  1.00  0.00     0.203 HD
HETATM    8  H   UNL     1      20.314  45.164  47.788  1.00  0.00     0.177 HD
ENDROOT
BRANCH   1   9
HETATM    9  C   UNL     1      23.545  47.766  49.334  1.00  0.00     0.741 A 
HETATM   10  N   UNL     1      24.227  47.200  50.347  1.00  0.00    -0.067 NA
HETATM   11  C   UNL     1      25.500  47.598  50.545  1.00  0.00     0.051 A 
HETATM   12  C   UNL     1      26.260  46.949  51.662  1.00  0.00     0.071 C 
HETATM   13  C   UNL     1      26.101  48.564  49.766  1.00  0.00     0.054 A 
HETATM   14  C   UNL     1      25.338  49.090  48.747  1.00  0.00     0.051 A 
HETATM   15  N   UNL     1      24.070  48.691  48.516  1.00  0.00    -0.067 NA
HETATM   16  C   UNL     1      25.897  50.160  47.857  1.00  0.00     0.071 C 
ENDBRANCH   1   9
BRANCH   3  17
HETATM   17  C   UNL     1      19.878  47.160  47.490  1.00  0.00     0.142 C 
BRANCH  17  18
HETATM   18  C   UNL     1      18.486  47.455  48.066  1.00  0.00     0.061 C 
BRANCH  18  19
HETATM   19  C   UNL     1      18.429  48.703  48.896  1.00  0.00    -0.029 A 
HETATM   20  C   UNL     1      17.520  49.799  48.741  1.00  0.00    -0.002 A 
HETATM   21  C   UNL     1      17.825  50.737  49.726  1.00  0.00     0.045 A 
HETATM   22  C   UNL     1      16.465  50.084  47.850  1.00  0.00     0.017 A 
HETATM   23  C   UNL     1      17.114  51.935  49.875  1.00  0.00     0.067 A 
HETATM   24  N   UNL     1      18.903  50.252  50.429  1.00  0.00    -0.365 N 
HETATM   25  C   UNL     1      16.069  52.195  48.982  1.00  0.00     0.070 A 
HETATM   26  C   UNL     1      15.749  51.283  47.978  1.00  0.00     0.038 A 
HETATM   27  H   UNL     1      19.369  50.741  51.184  1.00  0.00     0.165 HD
HETATM   28  C   UNL     1      19.268  49.025  49.946  1.00  0.00     0.096 A 
BRANCH  25  29
HETATM   29  O   UNL     1      15.375  53.349  49.238  1.00  0.00    -0.356 OA
HETATM   30  C   UNL     1      15.280  53.725  50.610  1.00  0.00     0.210 C 
ENDBRANCH  25  29
ENDBRANCH  18  19
ENDBRANCH  17  18
ENDBRANCH   3  17
BRANCH   5  31
HETATM   31  C   UNL     1      23.451  42.845  48.367  1.00  0.00     0.340 C 
BRANCH  31  32
HETATM   32  N   UNL     1      24.570  43.311  49.306  1.00  0.00    -0.060 N 
HETATM   33  H   UNL     1      24.651  44.329  49.164  1.00  0.00     0.280 HD
HETATM   34  C   UNL     1      24.185  43.113  50.771  1.00  0.00     0.255 C 
HETATM   35  C   UNL     1      25.323  43.547  51.716  1.00  0.00     0.150 C 
HETATM   36  N   UNL     1      26.588  42.873  51.338  1.00  0.00    -0.378 N 
HETATM   37  C   UNL     1      27.002  43.112  49.943  1.00  0.00     0.150 C 
HETATM   38  C   UNL     1      25.894  42.646  48.979  1.00  0.00     0.255 C 
BRANCH  36  39
HETATM   39  C   UNL     1      27.576  42.903  52.334  1.00  0.00     0.030 A 
HETATM   40  C   UNL     1      28.761  42.165  52.152  1.00  0.00     0.032 A 
HETATM   41  C   UNL     1      29.789  42.182  53.099  1.00  0.00     0.044 A 
HETATM   42  C   UNL     1      29.645  42.947  54.246  1.00  0.00     0.116 A 
HETATM   43  F   UNL     1      30.627  42.970  55.155  1.00  0.00    -0.206 F 
HETATM   44  C   UNL     1      28.495  43.692  54.457  1.00  0.00     0.044 A 
HETATM   45  C   UNL     1      27.470  43.672  53.505  1.00  0.00     0.032 A 
ENDBRANCH  36  39
ENDBRANCH  31  32
ENDBRANCH   5  31
TORSDOF 8
ENDMDL
MODEL 9
REMARK VINA RESULT:      -9.7      4.107     11.319
REMARK  8 active torsions:
REMARK  status: ('A' for Active; 'I' for Inactive)
REMARK    1  A    between atoms: C_4  and  N_5 
REMARK       I    between atoms: N_5  and  C_6 
REMARK       I    between atoms: C_6  and  N_7 
REMARK    2  A    between atoms: N_7  and  C_8 
REMARK    3  A    between atoms: C_8  and  C_9 
REMARK    4  A    between atoms: C_9  and  C_10 
REMARK    5  A    between atoms: C_14  and  O_15 
REMARK       I    between atoms: N_22  and  C_23 
REMARK    6  A    between atoms: C_23  and  C_24 
REMARK    7  A    between atoms: C_24  and  N_25 
REMARK    8  A    between atoms: N_29  and  C_30 
ROOT
HETATM    1  N   UNL     1      23.492  45.571  49.783  1.00  0.00    -0.017 N 
HETATM    2  C   UNL     1      23.497  44.240  49.491  1.00  0.00     0.718 C 
HETATM    3  N   UNL     1      22.345  43.830  48.866  1.00  0.00    -0.223 N 
HETATM    4  N   UNL     1      24.484  43.465  49.816  1.00  0.00    -0.026 NA
HETATM    5  C   UNL     1      24.489  42.131  49.544  1.00  0.00     0.286 C 
HETATM    6  O   UNL     1      23.590  41.460  49.034  1.00  0.00    -0.269 OA
HETATM    7  H   UNL     1      22.636  45.957  50.147  1.00  0.00     0.203 HD
HETATM    8  H   UNL     1      22.385  42.854  48.567  1.00  0.00     0.177 HD
ENDROOT
BRANCH   1   9
HETATM    9  C   UNL     1      24.569  46.315  50.254  1.00  0.00     0.741 A 
HETATM   10  N   UNL     1      25.379  46.981  49.411  1.00  0.00    -0.067 NA
HETATM   11  C   UNL     1      26.357  47.738  49.950  1.00  0.00     0.051 A 
HETATM   12  C   UNL     1      27.242  48.494  49.007  1.00  0.00     0.071 C 
HETATM   13  C   UNL     1      26.556  47.827  51.311  1.00  0.00     0.054 A 
HETATM   14  C   UNL     1      25.682  47.119  52.106  1.00  0.00     0.051 A 
HETATM   15  N   UNL     1      24.682  46.373  51.590  1.00  0.00    -0.067 NA
HETATM   16  C   UNL     1      25.830  47.137  53.598  1.00  0.00     0.071 C 
ENDBRANCH   1   9
BRANCH   3  17
HETATM   17  C   UNL     1      21.580  44.639  47.915  1.00  0.00     0.142 C 
BRANCH  17  18
HETATM   18  C   UNL     1      20.343  45.299  48.540  1.00  0.00     0.061 C 
BRANCH  18  19
HETATM   19  C   UNL     1      19.961  46.598  47.895  1.00  0.00    -0.029 A 
HETATM   20  C   UNL     1      19.497  47.781  48.553  1.00  0.00    -0.002 A 
HETATM   21  C   UNL     1      19.264  48.742  47.571  1.00  0.00     0.045 A 
HETATM   22  C   UNL     1      19.247  48.126  49.899  1.00  0.00     0.017 A 
HETATM   23  C   UNL     1      18.815  50.035  47.869  1.00  0.00     0.067 A 
HETATM   24  N   UNL     1      19.537  48.157  46.357  1.00  0.00    -0.365 N 
HETATM   25  C   UNL     1      18.577  50.356  49.210  1.00  0.00     0.070 A 
HETATM   26  C   UNL     1      18.787  49.413  50.215  1.00  0.00     0.038 A 
HETATM   27  H   UNL     1      19.420  48.607  45.458  1.00  0.00     0.165 HD
HETATM   28  C   UNL     1      19.968  46.871  46.540  1.00  0.00     0.096 A 
BRANCH  25  29
HETATM   29  O   UNL     1      18.212  51.659  49.428  1.00  0.00    -0.356 OA
HETATM   30  C   UNL     1      16.863  51.865  49.841  1.00  0.00     0.210 C 
ENDBRANCH  25  29
ENDBRANCH  18  19
ENDBRANCH  17  18
ENDBRANCH   3  17
BRANCH   5  31
HETATM   31  C   UNL     1      25.781  41.454  50.003  1.00  0.00     0.340 C 
BRANCH  31  32
HETATM   32  N   UNL     1      26.252  41.926  51.384  1.00  0.00    -0.060 N 
HETATM   33  H   UNL     1      25.473  41.726  52.030  1.00  0.00     0.280 HD
HETATM   34  C   UNL     1      27.439  41.102  51.878  1.00  0.00     0.255 C 
HETATM   35  C   UNL     1      27.937  41.599  53.250  1.00  0.00     0.150 C 
HETATM   36  N   UNL     1      28.203  43.057  53.202  1.00  0.00    -0.378 N 
HETATM   37  C   UNL     1      27.042  43.865  52.788  1.00  0.00     0.150 C 
HETATM   38  C   UNL     1      26.555  43.412  51.398  1.00  0.00     0.255 C 
BRANCH  36  39
HETATM   39  C   UNL     1      28.997  43.531  54.257  1.00  0.00     0.030 A 
HETATM   40  C   UNL     1      30.103  42.772  54.683  1.00  0.00     0.032 A 
HETATM   41  C   UNL     1      30.943  43.212  55.710  1.00  0.00     0.044 A 
HETATM   42  C   UNL     1      30.689  44.427  56.325  1.00  0.00     0.116 A 
HETATM   43  F   UNL     1      31.492  44.856  57.306  1.00  0.00    -0.206 F 
HETATM   44  C   UNL     1      29.612  45.206  55.928  1.00  0.00     0.044 A 
HETATM   45  C   UNL     1      28.775  44.762  54.899  1.00  0.00     0.032 A 
ENDBRANCH  36  39
ENDBRANCH  31  32
ENDBRANCH   5  31
TORSDOF 8
ENDMDL
MODEL 10
REMARK VINA RESULT:      -9.7      6.003     13.390
REMARK  8 active torsions:
REMARK  status: ('A' for Active; 'I' for Inactive)
REMARK    1  A    between atoms: C_4  and  N_5 
REMARK       I    between atoms: N_5  and  C_6 
REMARK       I    between atoms: C_6  and  N_7 
REMARK    2  A    between atoms: N_7  and  C_8 
REMARK    3  A    between atoms: C_8  and  C_9 
REMARK    4  A    between atoms: C_9  and  C_10 
REMARK    5  A    between atoms: C_14  and  O_15 
REMARK       I    between atoms: N_22  and  C_23 
REMARK    6  A    between atoms: C_23  and  C_24 
REMARK    7  A    between atoms: C_24  and  N_25 
REMARK    8  A    between atoms: N_29  and  C_30 
ROOT
HETATM    1  N   UNL     1      15.493  53.032  47.245  1.00  0.00    -0.017 N 
HETATM    2  C   UNL     1      16.162  52.320  48.194  1.00  0.00     0.718 C 
HETATM    3  N   UNL     1      15.890  52.750  49.470  1.00  0.00    -0.223 N 
HETATM    4  N   UNL     1      16.989  51.370  47.890  1.00  0.00    -0.026 NA
HETATM    5  C   UNL     1      17.675  50.665  48.831  1.00  0.00     0.286 C 
HETATM    6  O   UNL     1      17.679  50.839  50.051  1.00  0.00    -0.269 OA
HETATM    7  H   UNL     1      15.446  54.031  47.369  1.00  0.00     0.203 HD
HETATM    8  H   UNL     1      16.320  52.160  50.185  1.00  0.00     0.177 HD
ENDROOT
BRANCH   1   9
HETATM    9  C   UNL     1      15.424  52.735  45.888  1.00  0.00     0.741 A 
HETATM   10  N   UNL     1      16.266  53.302  45.005  1.00  0.00    -0.067 NA
HETATM   11  C   UNL     1      16.184  52.908  43.718  1.00  0.00     0.051 A 
HETATM   12  C   UNL     1      17.139  53.528  42.745  1.00  0.00     0.071 C 
HETATM   13  C   UNL     1      15.265  51.974  43.290  1.00  0.00     0.054 A 
HETATM   14  C   UNL     1      14.442  51.437  44.256  1.00  0.00     0.051 A 
HETATM   15  N   UNL     1      14.521  51.799  45.553  1.00  0.00    -0.067 NA
HETATM   16  C   UNL     1      13.396  50.428  43.885  1.00  0.00     0.071 C 
ENDBRANCH   1   9
BRANCH   3  17
HETATM   17  C   UNL     1      14.591  53.255  49.919  1.00  0.00     0.142 C 
BRANCH  17  18
HETATM   18  C   UNL     1      14.666  54.018  51.250  1.00  0.00     0.061 C 
BRANCH  18  19
HETATM   19  C   UNL     1      14.827  55.500  51.087  1.00  0.00    -0.029 A 
HETATM   20  C   UNL     1      14.933  56.473  52.132  1.00  0.00    -0.002 A 
HETATM   21  C   UNL     1      15.070  57.722  51.527  1.00  0.00     0.045 A 
HETATM   22  C   UNL     1      14.919  56.411  53.541  1.00  0.00     0.017 A 
HETATM   23  C   UNL     1      15.216  58.905  52.261  1.00  0.00     0.067 A 
HETATM   24  N   UNL     1      15.012  57.523  50.167  1.00  0.00    -0.365 N 
HETATM   25  C   UNL     1      15.203  58.820  53.658  1.00  0.00     0.070 A 
HETATM   26  C   UNL     1      15.053  57.587  54.293  1.00  0.00     0.038 A 
HETATM   27  H   UNL     1      15.046  58.260  49.473  1.00  0.00     0.165 HD
HETATM   28  C   UNL     1      14.877  56.190  49.891  1.00  0.00     0.096 A 
BRANCH  25  29
HETATM   29  O   UNL     1      15.425  60.008  54.304  1.00  0.00    -0.356 OA
HETATM   30  C   UNL     1      16.138  59.920  55.535  1.00  0.00     0.210 C 
ENDBRANCH  25  29
ENDBRANCH  18  19
ENDBRANCH  17  18
ENDBRANCH   3  17
BRANCH   5  31
HETATM   31  C   UNL     1      18.558  49.581  48.210  1.00  0.00     0.340 C 
BRANCH  31  32
HETATM   32  N   UNL     1      19.975  49.549  48.795  1.00  0.00    -0.060 N 
HETATM   33  H   UNL     1      19.858  49.606  49.819  1.00  0.00     0.280 HD
HETATM   34  C   UNL     1      20.659  48.212  48.518  1.00  0.00     0.255 C 
HETATM   35  C   UNL     1      22.098  48.191  49.074  1.00  0.00     0.150 C 
HETATM   36  N   UNL     1      22.857  49.363  48.576  1.00  0.00    -0.378 N 
HETATM   37  C   UNL     1      22.235  50.660  48.897  1.00  0.00     0.150 C 
HETATM   38  C   UNL     1      20.810  50.719  48.313  1.00  0.00     0.255 C 
BRANCH  36  39
HETATM   39  C   UNL     1      24.249  49.246  48.711  1.00  0.00     0.030 A 
HETATM   40  C   UNL     1      24.780  48.203  49.495  1.00  0.00     0.032 A 
HETATM   41  C   UNL     1      26.159  48.024  49.639  1.00  0.00     0.044 A 
HETATM   42  C   UNL     1      27.029  48.887  48.994  1.00  0.00     0.116 A 
HETATM   43  F   UNL     1      28.350  48.719  49.125  1.00  0.00    -0.206 F 
HETATM   44  C   UNL     1      26.544  49.922  48.208  1.00  0.00     0.044 A 
HETATM   45  C   UNL     1      25.162  50.097  48.066  1.00  0.00     0.032 A 
ENDBRANCH  36  39
ENDBRANCH  31  32
ENDBRANCH   5  31
TORSDOF 8
ENDMDL
