MODEL 1
REMARK VINA RESULT:      -9.1      0.000      0.000
REMARK  11 active torsions:
REMARK  status: ('A' for Active; 'I' for Inactive)
REMARK    1  A    between atoms: C_2  and  O_3 
REMARK    2  A    between atoms: O_3  and  C_4 
REMARK    3  A    between atoms: C_5  and  O_6 
REMARK    4  A    between atoms: C_9  and  C_10 
REMARK    5  A    between atoms: N_11  and  C_12 
REMARK    6  A    between atoms: C_12  and  C_13 
REMARK    7  A    between atoms: C_13  and  C_14 
REMARK    8  A    between atoms: C_14  and  N_15 
REMARK    9  A    between atoms: C_27  and  O_28 
REMARK   10  A    between atoms: C_27  and  C_29 
REMARK   11  A    between atoms: C_30  and  C_31 
ROOT
HETATM    1  C   UNL     1      26.772  42.743  49.957  1.00  0.00     0.161 C 
HETATM    2  N   UNL     1      25.691  42.103  49.204  1.00  0.00    -0.332 N 
HETATM    3  C   UNL     1      25.993  40.789  48.911  1.00  0.00     0.295 C 
HETATM    4  O   UNL     1      25.451  40.094  48.072  1.00  0.00    -0.264 OA
HETATM    5  C   UNL     1      27.508  41.593  50.611  1.00  0.00     0.058 C 
HETATM    6  C   UNL     1      27.193  40.406  49.784  1.00  0.00     0.250 C 
HETATM    7  O   UNL     1      27.764  39.338  49.782  1.00  0.00    -0.282 OA
HETATM    8  C   UNL     1      28.274  41.482  51.710  1.00  0.00     0.078 C 
ENDROOT
BRANCH   1   9
HETATM    9  C   UNL     1      26.354  43.917  50.808  1.00  0.00    -0.028 A 
HETATM   10  C   UNL     1      25.646  43.757  52.010  1.00  0.00     0.012 A 
HETATM   11  C   UNL     1      25.314  44.869  52.782  1.00  0.00     0.040 A 
HETATM   12  C   UNL     1      25.692  46.137  52.358  1.00  0.00     0.099 A 
HETATM   13  C   UNL     1      26.399  46.333  51.168  1.00  0.00     0.102 A 
HETATM   14  C   UNL     1      26.729  45.218  50.400  1.00  0.00     0.049 A 
BRANCH  12  15
HETATM   15  O   UNL     1      25.360  47.205  53.145  1.00  0.00    -0.358 OA
HETATM   16  H   UNL     1      25.810  47.974  52.745  1.00  0.00     0.218 HD
ENDBRANCH  12  15
BRANCH  13  17
HETATM   17  O   UNL     1      26.703  47.635  50.873  1.00  0.00    -0.349 OA
BRANCH  17  18
HETATM   18  C   UNL     1      26.563  48.043  49.511  1.00  0.00     0.171 C 
HETATM   19  C   UNL     1      27.735  48.941  49.158  1.00  0.00     0.034 C 
ENDBRANCH  17  18
ENDBRANCH  13  17
ENDBRANCH   1   9
BRANCH   2  20
HETATM   20  C   UNL     1      24.626  42.825  48.523  1.00  0.00     0.129 C 
BRANCH  20  21
HETATM   21  C   UNL     1      23.230  42.657  49.121  1.00  0.00     0.048 C 
BRANCH  21  22
HETATM   22  C   UNL     1      22.695  43.788  50.000  1.00  0.00     0.236 C 
BRANCH  22  23
HETATM   23  N   UNL     1      22.203  44.993  49.246  1.00  0.00    -0.067 N 
HETATM   24  H   UNL     1      21.400  45.392  49.778  1.00  0.00     0.280 HD
HETATM   25  C   UNL     1      23.237  46.087  49.022  1.00  0.00     0.261 C 
HETATM   26  C   UNL     1      22.605  47.247  48.243  1.00  0.00     0.195 C 
HETATM   27  O   UNL     1      22.075  46.796  46.994  1.00  0.00    -0.388 OA
HETATM   28  C   UNL     1      21.041  45.824  47.185  1.00  0.00     0.195 C 
HETATM   29  C   UNL     1      21.587  44.586  47.903  1.00  0.00     0.261 C 
ENDBRANCH  22  23
ENDBRANCH  21  22
ENDBRANCH  20  21
ENDBRANCH   2  20
BRANCH   8  30
HETATM   30  O   UNL     1      28.911  40.319  52.084  1.00  0.00    -0.360 OA
HETATM   31  H   UNL     1      29.820  40.510  52.397  1.00  0.00     0.217 HD
ENDBRANCH   8  30
BRANCH   8  32
HETATM   32  C   UNL     1      28.441  42.541  52.674  1.00  0.00     0.038 C 
HETATM   33  C   UNL     1      29.421  42.647  53.582  1.00  0.00     0.014 C 
BRANCH  33  34
HETATM   34  C   UNL     1      29.468  43.803  54.488  1.00  0.00    -0.036 A 
HETATM   35  C   UNL     1      30.443  43.906  55.490  1.00  0.00     0.011 A 
HETATM   36  C   UNL     1      30.441  44.986  56.376  1.00  0.00     0.001 A 
HETATM   37  C   UNL     1      29.471  45.978  56.260  1.00  0.00     0.000 A 
HETATM   38  C   UNL     1      28.511  45.898  55.252  1.00  0.00     0.001 A 
HETATM   39  C   UNL     1      28.512  44.817  54.366  1.00  0.00     0.011 A 
ENDBRANCH  33  34
ENDBRANCH   8  32
TORSDOF 11
ENDMDL
MODEL 2
REMARK VINA RESULT:      -8.6      2.254      7.539
REMARK  11 active torsions:
REMARK  status: ('A' for Active; 'I' for Inactive)
REMARK    1  A    between atoms: C_2  and  O_3 
REMARK    2  A    between atoms: O_3  and  C_4 
REMARK    3  A    between atoms: C_5  and  O_6 
REMARK    4  A    between atoms: C_9  and  C_10 
REMARK    5  A    between atoms: N_11  and  C_12 
REMARK    6  A    between atoms: C_12  and  C_13 
REMARK    7  A    between atoms: C_13  and  C_14 
REMARK    8  A    between atoms: C_14  and  N_15 
REMARK    9  A    between atoms: C_27  and  O_28 
REMARK   10  A    between atoms: C_27  and  C_29 
REMARK   11  A    between atoms: C_30  and  C_31 
ROOT
HETATM    1  C   UNL     1      26.717  42.805  51.542  1.00  0.00     0.161 C 
HETATM    2  N   UNL     1      28.072  42.269  51.681  1.00  0.00    -0.332 N 
HETATM    3  C   UNL     1      28.105  40.915  51.423  1.00  0.00     0.295 C 
HETATM    4  O   UNL     1      28.994  40.143  51.729  1.00  0.00    -0.264 OA
HETATM    5  C   UNL     1      26.015  41.826  50.625  1.00  0.00     0.058 C 
HETATM    6  C   UNL     1      26.773  40.559  50.754  1.00  0.00     0.250 C 
HETATM    7  O   UNL     1      26.421  39.453  50.409  1.00  0.00    -0.282 OA
HETATM    8  C   UNL     1      24.971  41.920  49.785  1.00  0.00     0.078 C 
ENDROOT
BRANCH   1   9
HETATM    9  C   UNL     1      26.638  44.278  51.228  1.00  0.00    -0.028 A 
HETATM   10  C   UNL     1      27.000  44.798  49.974  1.00  0.00     0.012 A 
HETATM   11  C   UNL     1      26.874  46.163  49.718  1.00  0.00     0.040 A 
HETATM   12  C   UNL     1      26.385  47.006  50.708  1.00  0.00     0.099 A 
HETATM   13  C   UNL     1      26.014  46.523  51.966  1.00  0.00     0.102 A 
HETATM   14  C   UNL     1      26.140  45.158  52.217  1.00  0.00     0.049 A 
BRANCH  12  15
HETATM   15  O   UNL     1      26.266  48.337  50.419  1.00  0.00    -0.358 OA
HETATM   16  H   UNL     1      26.654  48.446  49.529  1.00  0.00     0.218 HD
ENDBRANCH  12  15
BRANCH  13  17
HETATM   17  O   UNL     1      25.552  47.466  52.844  1.00  0.00    -0.349 OA
BRANCH  17  18
HETATM   18  C   UNL     1      25.866  47.279  54.226  1.00  0.00     0.171 C 
HETATM   19  C   UNL     1      27.294  47.737  54.458  1.00  0.00     0.034 C 
ENDBRANCH  17  18
ENDBRANCH  13  17
ENDBRANCH   1   9
BRANCH   2  20
HETATM   20  C   UNL     1      29.160  42.956  52.361  1.00  0.00     0.129 C 
BRANCH  20  21
HETATM   21  C   UNL     1      29.044  43.031  53.883  1.00  0.00     0.048 C 
BRANCH  21  22
HETATM   22  C   UNL     1      29.046  44.418  54.526  1.00  0.00     0.236 C 
BRANCH  22  23
HETATM   23  N   UNL     1      30.098  44.623  55.580  1.00  0.00    -0.067 N 
HETATM   24  H   UNL     1      30.888  45.143  55.141  1.00  0.00     0.280 HD
HETATM   25  C   UNL     1      29.640  45.378  56.820  1.00  0.00     0.261 C 
HETATM   26  C   UNL     1      30.806  45.512  57.807  1.00  0.00     0.195 C 
HETATM   27  O   UNL     1      31.321  44.226  58.166  1.00  0.00    -0.388 OA
HETATM   28  C   UNL     1      31.834  43.530  57.024  1.00  0.00     0.195 C 
HETATM   29  C   UNL     1      30.724  43.287  55.996  1.00  0.00     0.261 C 
ENDBRANCH  22  23
ENDBRANCH  21  22
ENDBRANCH  20  21
ENDBRANCH   2  20
BRANCH   8  30
HETATM   30  O   UNL     1      24.453  40.851  49.084  1.00  0.00    -0.360 OA
HETATM   31  H   UNL     1      24.110  40.170  49.699  1.00  0.00     0.217 HD
ENDBRANCH   8  30
BRANCH   8  32
HETATM   32  C   UNL     1      24.329  43.167  49.448  1.00  0.00     0.038 C 
HETATM   33  C   UNL     1      23.734  43.470  48.287  1.00  0.00     0.014 C 
BRANCH  33  34
HETATM   34  C   UNL     1      23.103  44.784  48.102  1.00  0.00    -0.036 A 
HETATM   35  C   UNL     1      22.243  45.035  47.023  1.00  0.00     0.011 A 
HETATM   36  C   UNL     1      21.692  46.304  46.832  1.00  0.00     0.001 A 
HETATM   37  C   UNL     1      21.987  47.331  47.725  1.00  0.00     0.000 A 
HETATM   38  C   UNL     1      22.822  47.086  48.814  1.00  0.00     0.001 A 
HETATM   39  C   UNL     1      23.374  45.816  49.006  1.00  0.00     0.011 A 
ENDBRANCH  33  34
ENDBRANCH   8  32
TORSDOF 11
ENDMDL
MODEL 3
REMARK VINA RESULT:      -8.0      1.763      2.344
REMARK  11 active torsions:
REMARK  status: ('A' for Active; 'I' for Inactive)
REMARK    1  A    between atoms: C_2  and  O_3 
REMARK    2  A    between atoms: O_3  and  C_4 
REMARK    3  A    between atoms: C_5  and  O_6 
REMARK    4  A    between atoms: C_9  and  C_10 
REMARK    5  A    between atoms: N_11  and  C_12 
REMARK    6  A    between atoms: C_12  and  C_13 
REMARK    7  A    between atoms: C_13  and  C_14 
REMARK    8  A    between atoms: C_14  and  N_15 
REMARK    9  A    between atoms: C_27  and  O_28 
REMARK   10  A    between atoms: C_27  and  C_29 
REMARK   11  A    between atoms: C_30  and  C_31 
ROOT
HETATM    1  C   UNL     1      26.979  42.193  49.666  1.00  0.00     0.161 C 
HETATM    2  N   UNL     1      25.961  41.468  48.904  1.00  0.00    -0.332 N 
HETATM    3  C   UNL     1      26.345  40.163  48.671  1.00  0.00     0.295 C 
HETATM    4  O   UNL     1      25.870  39.408  47.842  1.00  0.00    -0.264 OA
HETATM    5  C   UNL     1      27.755  41.112  50.386  1.00  0.00     0.058 C 
HETATM    6  C   UNL     1      27.533  39.879  49.595  1.00  0.00     0.250 C 
HETATM    7  O   UNL     1      28.163  38.846  49.651  1.00  0.00    -0.282 OA
HETATM    8  C   UNL     1      28.488  41.084  51.511  1.00  0.00     0.078 C 
ENDROOT
BRANCH   1   9
HETATM    9  C   UNL     1      26.470  43.372  50.458  1.00  0.00    -0.028 A 
HETATM   10  C   UNL     1      25.603  43.221  51.552  1.00  0.00     0.012 A 
HETATM   11  C   UNL     1      25.188  44.337  52.278  1.00  0.00     0.040 A 
HETATM   12  C   UNL     1      25.640  45.600  51.914  1.00  0.00     0.099 A 
HETATM   13  C   UNL     1      26.503  45.787  50.831  1.00  0.00     0.102 A 
HETATM   14  C   UNL     1      26.916  44.669  50.109  1.00  0.00     0.049 A 
BRANCH  12  15
HETATM   15  O   UNL     1      25.221  46.671  52.653  1.00  0.00    -0.358 OA
HETATM   16  H   UNL     1      24.862  47.310  52.007  1.00  0.00     0.218 HD
ENDBRANCH  12  15
BRANCH  13  17
HETATM   17  O   UNL     1      26.864  47.085  50.585  1.00  0.00    -0.349 OA
BRANCH  17  18
HETATM   18  C   UNL     1      27.426  47.372  49.302  1.00  0.00     0.171 C 
HETATM   19  C   UNL     1      27.414  48.876  49.101  1.00  0.00     0.034 C 
ENDBRANCH  17  18
ENDBRANCH  13  17
ENDBRANCH   1   9
BRANCH   2  20
HETATM   20  C   UNL     1      24.881  42.103  48.163  1.00  0.00     0.129 C 
BRANCH  20  21
HETATM   21  C   UNL     1      23.470  41.802  48.666  1.00  0.00     0.048 C 
BRANCH  21  22
HETATM   22  C   UNL     1      22.602  40.866  47.825  1.00  0.00     0.236 C 
BRANCH  22  23
HETATM   23  N   UNL     1      22.072  41.470  46.554  1.00  0.00    -0.067 N 
HETATM   24  H   UNL     1      22.843  41.460  45.854  1.00  0.00     0.280 HD
HETATM   25  C   UNL     1      20.857  40.772  45.959  1.00  0.00     0.261 C 
HETATM   26  C   UNL     1      20.422  41.491  44.676  1.00  0.00     0.195 C 
HETATM   27  O   UNL     1      20.132  42.867  44.934  1.00  0.00    -0.388 OA
HETATM   28  C   UNL     1      21.286  43.563  45.419  1.00  0.00     0.195 C 
HETATM   29  C   UNL     1      21.766  42.960  46.742  1.00  0.00     0.261 C 
ENDBRANCH  22  23
ENDBRANCH  21  22
ENDBRANCH  20  21
ENDBRANCH   2  20
BRANCH   8  30
HETATM   30  O   UNL     1      29.176  39.973  51.950  1.00  0.00    -0.360 OA
HETATM   31  H   UNL     1      28.821  39.665  52.810  1.00  0.00     0.217 HD
ENDBRANCH   8  30
BRANCH   8  32
HETATM   32  C   UNL     1      28.565  42.185  52.440  1.00  0.00     0.038 C 
HETATM   33  C   UNL     1      29.480  42.354  53.404  1.00  0.00     0.014 C 
BRANCH  33  34
HETATM   34  C   UNL     1      29.437  43.547  54.262  1.00  0.00    -0.036 A 
HETATM   35  C   UNL     1      28.451  44.530  54.096  1.00  0.00     0.011 A 
HETATM   36  C   UNL     1      28.455  45.682  54.885  1.00  0.00     0.001 A 
HETATM   37  C   UNL     1      29.439  45.857  55.855  1.00  0.00     0.000 A 
HETATM   38  C   UNL     1      30.410  44.874  56.044  1.00  0.00     0.001 A 
HETATM   39  C   UNL     1      30.407  43.721  55.255  1.00  0.00     0.011 A 
ENDBRANCH  33  34
ENDBRANCH   8  32
TORSDOF 11
ENDMDL
MODEL 4
REMARK VINA RESULT:      -8.0      1.520      2.757
REMARK  11 active torsions:
REMARK  status: ('A' for Active; 'I' for Inactive)
REMARK    1  A    between atoms: C_2  and  O_3 
REMARK    2  A    between atoms: O_3  and  C_4 
REMARK    3  A    between atoms: C_5  and  O_6 
REMARK    4  A    between atoms: C_9  and  C_10 
REMARK    5  A    between atoms: N_11  and  C_12 
REMARK    6  A    between atoms: C_12  and  C_13 
REMARK    7  A    between atoms: C_13  and  C_14 
REMARK    8  A    between atoms: C_14  and  N_15 
REMARK    9  A    between atoms: C_27  and  O_28 
REMARK   10  A    between atoms: C_27  and  C_29 
REMARK   11  A    between atoms: C_30  and  C_31 
ROOT
HETATM    1  C   UNL     1      26.204  43.598  49.905  1.00  0.00     0.161 C 
HETATM    2  N   UNL     1      24.972  43.332  49.162  1.00  0.00    -0.332 N 
HETATM    3  C   UNL     1      24.926  42.028  48.716  1.00  0.00     0.295 C 
HETATM    4  O   UNL     1      24.197  41.587  47.846  1.00  0.00    -0.264 OA
HETATM    5  C   UNL     1      26.655  42.236  50.389  1.00  0.00     0.058 C 
HETATM    6  C   UNL     1      26.023  41.265  49.466  1.00  0.00     0.250 C 
HETATM    7  O   UNL     1      26.310  40.098  49.317  1.00  0.00    -0.282 OA
HETATM    8  C   UNL     1      27.408  41.816  51.418  1.00  0.00     0.078 C 
ENDROOT
BRANCH   1   9
HETATM    9  C   UNL     1      26.125  44.732  50.897  1.00  0.00    -0.028 A 
HETATM   10  C   UNL     1      26.501  46.043  50.567  1.00  0.00     0.012 A 
HETATM   11  C   UNL     1      26.375  47.066  51.506  1.00  0.00     0.040 A 
HETATM   12  C   UNL     1      25.870  46.782  52.769  1.00  0.00     0.099 A 
HETATM   13  C   UNL     1      25.485  45.488  53.131  1.00  0.00     0.102 A 
HETATM   14  C   UNL     1      25.612  44.469  52.189  1.00  0.00     0.049 A 
BRANCH  12  15
HETATM   15  O   UNL     1      25.750  47.811  53.661  1.00  0.00    -0.358 OA
HETATM   16  H   UNL     1      25.123  47.495  54.341  1.00  0.00     0.218 HD
ENDBRANCH  12  15
BRANCH  13  17
HETATM   17  O   UNL     1      25.008  45.353  54.407  1.00  0.00    -0.349 OA
BRANCH  17  18
HETATM   18  C   UNL     1      24.629  44.039  54.824  1.00  0.00     0.171 C 
HETATM   19  C   UNL     1      25.838  43.370  55.452  1.00  0.00     0.034 C 
ENDBRANCH  17  18
ENDBRANCH  13  17
ENDBRANCH   1   9
BRANCH   2  20
HETATM   20  C   UNL     1      24.096  44.365  48.628  1.00  0.00     0.129 C 
BRANCH  20  21
HETATM   21  C   UNL     1      22.683  44.396  49.210  1.00  0.00     0.048 C 
BRANCH  21  22
HETATM   22  C   UNL     1      21.612  45.161  48.431  1.00  0.00     0.236 C 
BRANCH  22  23
HETATM   23  N   UNL     1      21.272  46.514  48.990  1.00  0.00    -0.067 N 
HETATM   24  H   UNL     1      21.394  46.469  50.024  1.00  0.00     0.280 HD
HETATM   25  C   UNL     1      22.100  47.671  48.447  1.00  0.00     0.261 C 
HETATM   26  C   UNL     1      21.647  48.984  49.095  1.00  0.00     0.195 C 
HETATM   27  O   UNL     1      20.254  49.214  48.865  1.00  0.00    -0.388 OA
HETATM   28  C   UNL     1      19.450  48.178  49.440  1.00  0.00     0.195 C 
HETATM   29  C   UNL     1      19.781  46.822  48.809  1.00  0.00     0.261 C 
ENDBRANCH  22  23
ENDBRANCH  21  22
ENDBRANCH  20  21
ENDBRANCH   2  20
BRANCH   8  30
HETATM   30  O   UNL     1      27.749  40.497  51.629  1.00  0.00    -0.360 OA
HETATM   31  H   UNL     1      28.674  40.331  51.351  1.00  0.00     0.217 HD
ENDBRANCH   8  30
BRANCH   8  32
HETATM   32  C   UNL     1      27.870  42.683  52.474  1.00  0.00     0.038 C 
HETATM   33  C   UNL     1      29.058  42.627  53.091  1.00  0.00     0.014 C 
BRANCH  33  34
HETATM   34  C   UNL     1      29.392  43.600  54.140  1.00  0.00    -0.036 A 
HETATM   35  C   UNL     1      28.689  44.808  54.266  1.00  0.00     0.011 A 
HETATM   36  C   UNL     1      29.053  45.745  55.236  1.00  0.00     0.001 A 
HETATM   37  C   UNL     1      30.115  45.478  56.096  1.00  0.00     0.000 A 
HETATM   38  C   UNL     1      30.805  44.271  55.995  1.00  0.00     0.001 A 
HETATM   39  C   UNL     1      30.442  43.333  55.025  1.00  0.00     0.011 A 
ENDBRANCH  33  34
ENDBRANCH   8  32
TORSDOF 11
ENDMDL
MODEL 5
REMARK VINA RESULT:      -7.9      4.375     10.128
REMARK  11 active torsions:
REMARK  status: ('A' for Active; 'I' for Inactive)
REMARK    1  A    between atoms: C_2  and  O_3 
REMARK    2  A    between atoms: O_3  and  C_4 
REMARK    3  A    between atoms: C_5  and  O_6 
REMARK    4  A    between atoms: C_9  and  C_10 
REMARK    5  A    between atoms: N_11  and  C_12 
REMARK    6  A    between atoms: C_12  and  C_13 
REMARK    7  A    between atoms: C_13  and  C_14 
REMARK    8  A    between atoms: C_14  and  N_15 
REMARK    9  A    between atoms: C_27  and  O_28 
REMARK   10  A    between atoms: C_27  and  C_29 
REMARK   11  A    between atoms: C_30  and  C_31 
ROOT
HETATM    1  C   UNL     1      21.556  48.054  48.179  1.00  0.00     0.161 C 
HETATM    2  N   UNL     1      22.256  46.808  48.499  1.00  0.00    -0.332 N 
HETATM    3  C   UNL     1      23.522  47.055  48.988  1.00  0.00     0.295 C 
HETATM    4  O   UNL     1      24.434  46.254  49.067  1.00  0.00    -0.264 OA
HETATM    5  C   UNL     1      22.238  49.101  49.034  1.00  0.00     0.058 C 
HETATM    6  C   UNL     1      23.579  48.547  49.332  1.00  0.00     0.250 C 
HETATM    7  O   UNL     1      24.543  49.145  49.759  1.00  0.00    -0.282 OA
HETATM    8  C   UNL     1      21.855  50.286  49.538  1.00  0.00     0.078 C 
ENDROOT
BRANCH   1   9
HETATM    9  C   UNL     1      20.050  47.967  48.200  1.00  0.00    -0.028 A 
HETATM   10  C   UNL     1      19.329  47.735  49.382  1.00  0.00     0.012 A 
HETATM   11  C   UNL     1      17.935  47.701  49.359  1.00  0.00     0.040 A 
HETATM   12  C   UNL     1      17.263  47.902  48.159  1.00  0.00     0.099 A 
HETATM   13  C   UNL     1      17.948  48.136  46.965  1.00  0.00     0.102 A 
HETATM   14  C   UNL     1      19.341  48.171  46.993  1.00  0.00     0.049 A 
BRANCH  12  15
HETATM   15  O   UNL     1      15.896  47.872  48.175  1.00  0.00    -0.358 OA
HETATM   16  H   UNL     1      15.652  46.973  47.880  1.00  0.00     0.218 HD
ENDBRANCH  12  15
BRANCH  13  17
HETATM   17  O   UNL     1      17.159  48.314  45.860  1.00  0.00    -0.349 OA
BRANCH  17  18
HETATM   18  C   UNL     1      17.823  48.541  44.615  1.00  0.00     0.171 C 
HETATM   19  C   UNL     1      17.621  49.994  44.223  1.00  0.00     0.034 C 
ENDBRANCH  17  18
ENDBRANCH  13  17
ENDBRANCH   1   9
BRANCH   2  20
HETATM   20  C   UNL     1      21.852  45.493  48.023  1.00  0.00     0.129 C 
BRANCH  20  21
HETATM   21  C   UNL     1      21.715  44.416  49.098  1.00  0.00     0.048 C 
BRANCH  21  22
HETATM   22  C   UNL     1      22.627  43.194  48.996  1.00  0.00     0.236 C 
BRANCH  22  23
HETATM   23  N   UNL     1      24.030  43.411  49.493  1.00  0.00    -0.067 N 
HETATM   24  H   UNL     1      24.319  44.372  49.212  1.00  0.00     0.280 HD
HETATM   25  C   UNL     1      24.219  43.260  50.996  1.00  0.00     0.261 C 
HETATM   26  C   UNL     1      25.687  43.504  51.362  1.00  0.00     0.195 C 
HETATM   27  O   UNL     1      26.546  42.603  50.657  1.00  0.00    -0.388 OA
HETATM   28  C   UNL     1      26.445  42.784  49.240  1.00  0.00     0.195 C 
HETATM   29  C   UNL     1      25.019  42.500  48.759  1.00  0.00     0.261 C 
ENDBRANCH  22  23
ENDBRANCH  21  22
ENDBRANCH  20  21
ENDBRANCH   2  20
BRANCH   8  30
HETATM   30  O   UNL     1      22.689  51.120  50.251  1.00  0.00    -0.360 OA
HETATM   31  H   UNL     1      23.148  50.623  50.961  1.00  0.00     0.217 HD
ENDBRANCH   8  30
BRANCH   8  32
HETATM   32  C   UNL     1      20.502  50.780  49.470  1.00  0.00     0.038 C 
HETATM   33  C   UNL     1      19.963  51.496  48.475  1.00  0.00     0.014 C 
BRANCH  33  34
HETATM   34  C   UNL     1      18.554  51.912  48.543  1.00  0.00    -0.036 A 
HETATM   35  C   UNL     1      17.995  52.404  49.732  1.00  0.00     0.011 A 
HETATM   36  C   UNL     1      16.643  52.745  49.794  1.00  0.00     0.001 A 
HETATM   37  C   UNL     1      15.839  52.609  48.665  1.00  0.00     0.000 A 
HETATM   38  C   UNL     1      16.390  52.143  47.472  1.00  0.00     0.001 A 
HETATM   39  C   UNL     1      17.743  51.801  47.409  1.00  0.00     0.011 A 
ENDBRANCH  33  34
ENDBRANCH   8  32
TORSDOF 11
ENDMDL
MODEL 6
REMARK VINA RESULT:      -7.7      2.731      4.026
REMARK  11 active torsions:
REMARK  status: ('A' for Active; 'I' for Inactive)
REMARK    1  A    between atoms: C_2  and  O_3 
REMARK    2  A    between atoms: O_3  and  C_4 
REMARK    3  A    between atoms: C_5  and  O_6 
REMARK    4  A    between atoms: C_9  and  C_10 
REMARK    5  A    between atoms: N_11  and  C_12 
REMARK    6  A    between atoms: C_12  and  C_13 
REMARK    7  A    between atoms: C_13  and  C_14 
REMARK    8  A    between atoms: C_14  and  N_15 
REMARK    9  A    between atoms: C_27  and  O_28 
REMARK   10  A    between atoms: C_27  and  C_29 
REMARK   11  A    between atoms: C_30  and  C_31 
ROOT
HETATM    1  C   UNL     1      27.339  41.286  49.003  1.00  0.00     0.161 C 
HETATM    2  N   UNL     1      26.673  40.458  47.996  1.00  0.00    -0.332 N 
HETATM    3  C   UNL     1      27.361  39.281  47.780  1.00  0.00     0.295 C 
HETATM    4  O   UNL     1      27.235  38.536  46.827  1.00  0.00    -0.264 OA
HETATM    5  C   UNL     1      28.160  40.308  49.815  1.00  0.00     0.058 C 
HETATM    6  C   UNL     1      28.368  39.141  48.927  1.00  0.00     0.250 C 
HETATM    7  O   UNL     1      29.175  38.248  49.062  1.00  0.00    -0.282 OA
HETATM    8  C   UNL     1      28.637  40.309  51.071  1.00  0.00     0.078 C 
ENDROOT
BRANCH   1   9
HETATM    9  C   UNL     1      26.442  42.260  49.728  1.00  0.00    -0.028 A 
HETATM   10  C   UNL     1      25.243  41.861  50.339  1.00  0.00     0.012 A 
HETATM   11  C   UNL     1      24.466  42.789  51.030  1.00  0.00     0.040 A 
HETATM   12  C   UNL     1      24.886  44.111  51.115  1.00  0.00     0.099 A 
HETATM   13  C   UNL     1      26.075  44.542  50.519  1.00  0.00     0.102 A 
HETATM   14  C   UNL     1      26.849  43.611  49.830  1.00  0.00     0.049 A 
BRANCH  12  15
HETATM   15  O   UNL     1      24.105  44.992  51.809  1.00  0.00    -0.358 OA
HETATM   16  H   UNL     1      24.634  45.253  52.588  1.00  0.00     0.218 HD
ENDBRANCH  12  15
BRANCH  13  17
HETATM   17  O   UNL     1      26.364  45.871  50.680  1.00  0.00    -0.349 OA
BRANCH  17  18
HETATM   18  C   UNL     1      25.894  46.766  49.669  1.00  0.00     0.171 C 
HETATM   19  C   UNL     1      26.734  48.029  49.722  1.00  0.00     0.034 C 
ENDBRANCH  17  18
ENDBRANCH  13  17
ENDBRANCH   1   9
BRANCH   2  20
HETATM   20  C   UNL     1      25.659  40.943  47.072  1.00  0.00     0.129 C 
BRANCH  20  21
HETATM   21  C   UNL     1      24.276  40.311  47.219  1.00  0.00     0.048 C 
BRANCH  21  22
HETATM   22  C   UNL     1      23.418  40.183  45.960  1.00  0.00     0.236 C 
BRANCH  22  23
HETATM   23  N   UNL     1      22.324  39.155  46.044  1.00  0.00    -0.067 N 
HETATM   24  H   UNL     1      21.776  39.203  45.159  1.00  0.00     0.280 HD
HETATM   25  C   UNL     1      22.792  37.722  46.255  1.00  0.00     0.261 C 
HETATM   26  C   UNL     1      21.582  36.784  46.325  1.00  0.00     0.195 C 
HETATM   27  O   UNL     1      20.690  37.178  47.372  1.00  0.00    -0.388 OA
HETATM   28  C   UNL     1      20.173  38.495  47.151  1.00  0.00     0.195 C 
HETATM   29  C   UNL     1      21.306  39.525  47.128  1.00  0.00     0.261 C 
ENDBRANCH  22  23
ENDBRANCH  21  22
ENDBRANCH  20  21
ENDBRANCH   2  20
BRANCH   8  30
HETATM   30  O   UNL     1      29.438  39.313  51.587  1.00  0.00    -0.360 OA
HETATM   31  H   UNL     1      29.905  38.839  50.868  1.00  0.00     0.217 HD
ENDBRANCH   8  30
BRANCH   8  32
HETATM   32  C   UNL     1      28.290  41.306  52.054  1.00  0.00     0.038 C 
HETATM   33  C   UNL     1      29.115  42.209  52.601  1.00  0.00     0.014 C 
BRANCH  33  34
HETATM   34  C   UNL     1      28.603  43.179  53.580  1.00  0.00    -0.036 A 
HETATM   35  C   UNL     1      27.229  43.318  53.820  1.00  0.00     0.011 A 
HETATM   36  C   UNL     1      26.756  44.280  54.715  1.00  0.00     0.001 A 
HETATM   37  C   UNL     1      27.655  45.105  55.387  1.00  0.00     0.000 A 
HETATM   38  C   UNL     1      29.025  44.958  55.174  1.00  0.00     0.001 A 
HETATM   39  C   UNL     1      29.499  43.996  54.278  1.00  0.00     0.011 A 
ENDBRANCH  33  34
ENDBRANCH   8  32
TORSDOF 11
ENDMDL
MODEL 7
REMARK VINA RESULT:      -7.6      3.156      5.991
REMARK  11 active torsions:
REMARK  status: ('A' for Active; 'I' for Inactive)
REMARK    1  A    between atoms: C_2  and  O_3 
REMARK    2  A    between atoms: O_3  and  C_4 
REMARK    3  A    between atoms: C_5  and  O_6 
REMARK    4  A    between atoms: C_9  and  C_10 
REMARK    5  A    between atoms: N_11  and  C_12 
REMARK    6  A    between atoms: C_12  and  C_13 
REMARK    7  A    between atoms: C_13  and  C_14 
REMARK    8  A    between atoms: C_14  and  N_15 
REMARK    9  A    between atoms: C_27  and  O_28 
REMARK   10  A    between atoms: C_27  and  C_29 
REMARK   11  A    between atoms: C_30  and  C_31 
ROOT
HETATM    1  C   UNL     1      24.374  42.982  49.377  1.00  0.00     0.161 C 
HETATM    2  N   UNL     1      23.775  42.936  48.043  1.00  0.00    -0.332 N 
HETATM    3  C   UNL     1      23.047  44.079  47.780  1.00  0.00     0.295 C 
HETATM    4  O   UNL     1      22.213  44.218  46.905  1.00  0.00    -0.264 OA
HETATM    5  C   UNL     1      24.455  44.457  49.705  1.00  0.00     0.058 C 
HETATM    6  C   UNL     1      23.432  45.104  48.852  1.00  0.00     0.250 C 
HETATM    7  O   UNL     1      22.974  46.219  48.969  1.00  0.00    -0.282 OA
HETATM    8  C   UNL     1      25.238  45.190  50.514  1.00  0.00     0.078 C 
ENDROOT
BRANCH   1   9
HETATM    9  C   UNL     1      25.605  42.128  49.558  1.00  0.00    -0.028 A 
HETATM   10  C   UNL     1      25.820  41.359  50.713  1.00  0.00     0.012 A 
HETATM   11  C   UNL     1      26.955  40.556  50.820  1.00  0.00     0.040 A 
HETATM   12  C   UNL     1      27.870  40.518  49.775  1.00  0.00     0.099 A 
HETATM   13  C   UNL     1      27.687  41.270  48.611  1.00  0.00     0.102 A 
HETATM   14  C   UNL     1      26.551  42.070  48.509  1.00  0.00     0.049 A 
BRANCH  12  15
HETATM   15  O   UNL     1      28.966  39.712  49.909  1.00  0.00    -0.358 OA
HETATM   16  H   UNL     1      28.618  38.800  49.930  1.00  0.00     0.218 HD
ENDBRANCH  12  15
BRANCH  13  17
HETATM   17  O   UNL     1      28.669  41.137  47.666  1.00  0.00    -0.349 OA
BRANCH  17  18
HETATM   18  C   UNL     1      28.250  40.907  46.319  1.00  0.00     0.171 C 
HETATM   19  C   UNL     1      27.867  39.445  46.181  1.00  0.00     0.034 C 
ENDBRANCH  17  18
ENDBRANCH  13  17
ENDBRANCH   1   9
BRANCH   2  20
HETATM   20  C   UNL     1      23.630  41.725  47.248  1.00  0.00     0.129 C 
BRANCH  20  21
HETATM   21  C   UNL     1      22.545  40.756  47.715  1.00  0.00     0.048 C 
BRANCH  21  22
HETATM   22  C   UNL     1      22.302  39.505  46.871  1.00  0.00     0.236 C 
BRANCH  22  23
HETATM   23  N   UNL     1      21.320  38.529  47.458  1.00  0.00    -0.067 N 
HETATM   24  H   UNL     1      21.485  38.496  48.487  1.00  0.00     0.280 HD
HETATM   25  C   UNL     1      19.853  38.849  47.206  1.00  0.00     0.261 C 
HETATM   26  C   UNL     1      18.968  37.778  47.853  1.00  0.00     0.195 C 
HETATM   27  O   UNL     1      19.291  36.477  47.352  1.00  0.00    -0.388 OA
HETATM   28  C   UNL     1      20.645  36.122  47.652  1.00  0.00     0.195 C 
HETATM   29  C   UNL     1      21.621  37.101  46.992  1.00  0.00     0.261 C 
ENDBRANCH  22  23
ENDBRANCH  21  22
ENDBRANCH  20  21
ENDBRANCH   2  20
BRANCH   8  30
HETATM   30  O   UNL     1      25.083  46.546  50.708  1.00  0.00    -0.360 OA
HETATM   31  H   UNL     1      25.074  46.759  51.664  1.00  0.00     0.217 HD
ENDBRANCH   8  30
BRANCH   8  32
HETATM   32  C   UNL     1      26.390  44.660  51.202  1.00  0.00     0.038 C 
HETATM   33  C   UNL     1      26.686  44.816  52.500  1.00  0.00     0.014 C 
BRANCH  33  34
HETATM   34  C   UNL     1      27.893  44.194  53.062  1.00  0.00    -0.036 A 
HETATM   35  C   UNL     1      28.310  44.462  54.374  1.00  0.00     0.011 A 
HETATM   36  C   UNL     1      29.487  43.903  54.875  1.00  0.00     0.001 A 
HETATM   37  C   UNL     1      30.253  43.061  54.072  1.00  0.00     0.000 A 
HETATM   38  C   UNL     1      29.836  42.769  52.774  1.00  0.00     0.001 A 
HETATM   39  C   UNL     1      28.658  43.328  52.272  1.00  0.00     0.011 A 
ENDBRANCH  33  34
ENDBRANCH   8  32
TORSDOF 11
ENDMDL
MODEL 8
REMARK VINA RESULT:      -7.6      6.176     10.432
REMARK  11 active torsions:
REMARK  status: ('A' for Active; 'I' for Inactive)
REMARK    1  A    between atoms: C_2  and  O_3 
REMARK    2  A    between atoms: O_3  and  C_4 
REMARK    3  A    between atoms: C_5  and  O_6 
REMARK    4  A    between atoms: C_9  and  C_10 
REMARK    5  A    between atoms: N_11  and  C_12 
REMARK    6  A    between atoms: C_12  and  C_13 
REMARK    7  A    between atoms: C_13  and  C_14 
REMARK    8  A    between atoms: C_14  and  N_15 
REMARK    9  A    between atoms: C_27  and  O_28 
REMARK   10  A    between atoms: C_27  and  C_29 
REMARK   11  A    between atoms: C_30  and  C_31 
ROOT
HETATM    1  C   UNL     1      21.182  48.038  48.067  1.00  0.00     0.161 C 
HETATM    2  N   UNL     1      21.867  46.766  48.299  1.00  0.00    -0.332 N 
HETATM    3  C   UNL     1      23.090  46.957  48.907  1.00  0.00     0.295 C 
HETATM    4  O   UNL     1      24.002  46.153  48.965  1.00  0.00    -0.264 OA
HETATM    5  C   UNL     1      21.788  48.984  49.082  1.00  0.00     0.058 C 
HETATM    6  C   UNL     1      23.109  48.402  49.418  1.00  0.00     0.250 C 
HETATM    7  O   UNL     1      24.032  48.949  49.979  1.00  0.00    -0.282 OA
HETATM    8  C   UNL     1      21.359  50.106  49.684  1.00  0.00     0.078 C 
ENDROOT
BRANCH   1   9
HETATM    9  C   UNL     1      19.679  47.950  47.965  1.00  0.00    -0.028 A 
HETATM   10  C   UNL     1      18.886  47.444  49.007  1.00  0.00     0.012 A 
HETATM   11  C   UNL     1      17.497  47.416  48.881  1.00  0.00     0.040 A 
HETATM   12  C   UNL     1      16.903  47.895  47.720  1.00  0.00     0.099 A 
HETATM   13  C   UNL     1      17.662  48.406  46.664  1.00  0.00     0.102 A 
HETATM   14  C   UNL     1      19.049  48.433  46.794  1.00  0.00     0.049 A 
BRANCH  12  15
HETATM   15  O   UNL     1      15.539  47.862  47.635  1.00  0.00    -0.358 OA
HETATM   16  H   UNL     1      15.310  46.926  47.473  1.00  0.00     0.218 HD
ENDBRANCH  12  15
BRANCH  13  17
HETATM   17  O   UNL     1      16.944  48.840  45.581  1.00  0.00    -0.349 OA
BRANCH  17  18
HETATM   18  C   UNL     1      17.683  49.183  44.406  1.00  0.00     0.171 C 
HETATM   19  C   UNL     1      17.519  50.671  44.155  1.00  0.00     0.034 C 
ENDBRANCH  17  18
ENDBRANCH  13  17
ENDBRANCH   1   9
BRANCH   2  20
HETATM   20  C   UNL     1      21.512  45.512  47.650  1.00  0.00     0.129 C 
BRANCH  20  21
HETATM   21  C   UNL     1      21.530  45.532  46.123  1.00  0.00     0.048 C 
BRANCH  21  22
HETATM   22  C   UNL     1      21.006  44.295  45.391  1.00  0.00     0.236 C 
BRANCH  22  23
HETATM   23  N   UNL     1      19.557  44.365  44.994  1.00  0.00    -0.067 N 
HETATM   24  H   UNL     1      19.368  43.568  44.350  1.00  0.00     0.280 HD
HETATM   25  C   UNL     1      18.563  44.314  46.145  1.00  0.00     0.261 C 
HETATM   26  C   UNL     1      17.132  44.397  45.600  1.00  0.00     0.195 C 
HETATM   27  O   UNL     1      16.947  45.589  44.831  1.00  0.00    -0.388 OA
HETATM   28  C   UNL     1      17.817  45.618  43.694  1.00  0.00     0.195 C 
HETATM   29  C   UNL     1      19.284  45.604  44.135  1.00  0.00     0.261 C 
ENDBRANCH  22  23
ENDBRANCH  21  22
ENDBRANCH  20  21
ENDBRANCH   2  20
BRANCH   8  30
HETATM   30  O   UNL     1      22.129  50.855  50.546  1.00  0.00    -0.360 OA
HETATM   31  H   UNL     1      22.430  51.680  50.111  1.00  0.00     0.217 HD
ENDBRANCH   8  30
BRANCH   8  32
HETATM   32  C   UNL     1      20.010  50.604  49.570  1.00  0.00     0.038 C 
HETATM   33  C   UNL     1      19.586  51.582  48.759  1.00  0.00     0.014 C 
BRANCH  33  34
HETATM   34  C   UNL     1      18.167  51.965  48.742  1.00  0.00    -0.036 A 
HETATM   35  C   UNL     1      17.382  51.808  47.590  1.00  0.00     0.011 A 
HETATM   36  C   UNL     1      16.050  52.226  47.575  1.00  0.00     0.001 A 
HETATM   37  C   UNL     1      15.486  52.793  48.715  1.00  0.00     0.000 A 
HETATM   38  C   UNL     1      16.251  52.931  49.873  1.00  0.00     0.001 A 
HETATM   39  C   UNL     1      17.585  52.515  49.889  1.00  0.00     0.011 A 
ENDBRANCH  33  34
ENDBRANCH   8  32
TORSDOF 11
ENDMDL
MODEL 9
REMARK VINA RESULT:      -7.6      2.202      3.993
REMARK  11 active torsions:
REMARK  status: ('A' for Active; 'I' for Inactive)
REMARK    1  A    between atoms: C_2  and  O_3 
REMARK    2  A    between atoms: O_3  and  C_4 
REMARK    3  A    between atoms: C_5  and  O_6 
REMARK    4  A    between atoms: C_9  and  C_10 
REMARK    5  A    between atoms: N_11  and  C_12 
REMARK    6  A    between atoms: C_12  and  C_13 
REMARK    7  A    between atoms: C_13  and  C_14 
REMARK    8  A    between atoms: C_14  and  N_15 
REMARK    9  A    between atoms: C_27  and  O_28 
REMARK   10  A    between atoms: C_27  and  C_29 
REMARK   11  A    between atoms: C_30  and  C_31 
ROOT
HETATM    1  C   UNL     1      24.337  43.636  48.557  1.00  0.00     0.161 C 
HETATM    2  N   UNL     1      22.914  43.838  48.276  1.00  0.00    -0.332 N 
HETATM    3  C   UNL     1      22.352  42.715  47.704  1.00  0.00     0.295 C 
HETATM    4  O   UNL     1      21.295  42.664  47.103  1.00  0.00    -0.264 OA
HETATM    5  C   UNL     1      24.493  42.134  48.658  1.00  0.00     0.058 C 
HETATM    6  C   UNL     1      23.351  41.571  47.901  1.00  0.00     0.250 C 
HETATM    7  O   UNL     1      23.222  40.434  47.502  1.00  0.00    -0.282 OA
HETATM    8  C   UNL     1      25.368  41.328  49.282  1.00  0.00     0.078 C 
ENDROOT
BRANCH   1   9
HETATM    9  C   UNL     1      24.903  44.501  49.656  1.00  0.00    -0.028 A 
HETATM   10  C   UNL     1      25.769  45.575  49.393  1.00  0.00     0.012 A 
HETATM   11  C   UNL     1      26.238  46.370  50.437  1.00  0.00     0.040 A 
HETATM   12  C   UNL     1      25.841  46.097  51.741  1.00  0.00     0.099 A 
HETATM   13  C   UNL     1      24.981  45.037  52.038  1.00  0.00     0.102 A 
HETATM   14  C   UNL     1      24.514  44.245  50.991  1.00  0.00     0.049 A 
BRANCH  12  15
HETATM   15  O   UNL     1      26.312  46.903  52.739  1.00  0.00    -0.358 OA
HETATM   16  H   UNL     1      25.712  46.758  53.496  1.00  0.00     0.218 HD
ENDBRANCH  12  15
BRANCH  13  17
HETATM   17  O   UNL     1      24.676  44.883  53.365  1.00  0.00    -0.349 OA
BRANCH  17  18
HETATM   18  C   UNL     1      25.257  43.765  54.040  1.00  0.00     0.171 C 
HETATM   19  C   UNL     1      26.423  44.263  54.875  1.00  0.00     0.034 C 
ENDBRANCH  17  18
ENDBRANCH  13  17
ENDBRANCH   1   9
BRANCH   2  20
HETATM   20  C   UNL     1      22.261  45.138  48.238  1.00  0.00     0.129 C 
BRANCH  20  21
HETATM   21  C   UNL     1      20.948  45.239  49.013  1.00  0.00     0.048 C 
BRANCH  21  22
HETATM   22  C   UNL     1      19.972  46.346  48.612  1.00  0.00     0.236 C 
BRANCH  22  23
HETATM   23  N   UNL     1      20.103  47.619  49.402  1.00  0.00    -0.067 N 
HETATM   24  H   UNL     1      20.584  47.387  50.298  1.00  0.00     0.280 HD
HETATM   25  C   UNL     1      20.868  48.739  48.711  1.00  0.00     0.261 C 
HETATM   26  C   UNL     1      20.922  49.971  49.622  1.00  0.00     0.195 C 
HETATM   27  O   UNL     1      19.605  50.405  49.973  1.00  0.00    -0.388 OA
HETATM   28  C   UNL     1      18.896  49.395  50.698  1.00  0.00     0.195 C 
HETATM   29  C   UNL     1      18.729  48.133  49.845  1.00  0.00     0.261 C 
ENDBRANCH  22  23
ENDBRANCH  21  22
ENDBRANCH  20  21
ENDBRANCH   2  20
BRANCH   8  30
HETATM   30  O   UNL     1      25.354  39.954  49.177  1.00  0.00    -0.360 OA
HETATM   31  H   UNL     1      25.825  39.545  49.932  1.00  0.00     0.217 HD
ENDBRANCH   8  30
BRANCH   8  32
HETATM   32  C   UNL     1      26.366  41.802  50.210  1.00  0.00     0.038 C 
HETATM   33  C   UNL     1      26.763  41.193  51.335  1.00  0.00     0.014 C 
BRANCH  33  34
HETATM   34  C   UNL     1      27.812  41.796  52.170  1.00  0.00    -0.036 A 
HETATM   35  C   UNL     1      28.273  41.162  53.333  1.00  0.00     0.011 A 
HETATM   36  C   UNL     1      29.233  41.773  54.143  1.00  0.00     0.001 A 
HETATM   37  C   UNL     1      29.750  43.017  53.791  1.00  0.00     0.000 A 
HETATM   38  C   UNL     1      29.316  43.644  52.624  1.00  0.00     0.001 A 
HETATM   39  C   UNL     1      28.355  43.035  51.813  1.00  0.00     0.011 A 
ENDBRANCH  33  34
ENDBRANCH   8  32
TORSDOF 11
ENDMDL
MODEL 10
REMARK VINA RESULT:      -7.5      1.865      6.846
REMARK  11 active torsions:
REMARK  status: ('A' for Active; 'I' for Inactive)
REMARK    1  A    between atoms: C_2  and  O_3 
REMARK    2  A    between atoms: O_3  and  C_4 
REMARK    3  A    between atoms: C_5  and  O_6 
REMARK    4  A    between atoms: C_9  and  C_10 
REMARK    5  A    between atoms: N_11  and  C_12 
REMARK    6  A    between atoms: C_12  and  C_13 
REMARK    7  A    between atoms: C_13  and  C_14 
REMARK    8  A    between atoms: C_14  and  N_15 
REMARK    9  A    between atoms: C_27  and  O_28 
REMARK   10  A    between atoms: C_27  and  C_29 
REMARK   11  A    between atoms: C_30  and  C_31 
ROOT
HETATM    1  C   UNL     1      26.025  42.515  51.141  1.00  0.00     0.161 C 
HETATM    2  N   UNL     1      27.347  41.938  51.391  1.00  0.00    -0.332 N 
HETATM    3  C   UNL     1      27.655  40.969  50.458  1.00  0.00     0.295 C 
HETATM    4  O   UNL     1      28.524  40.122  50.557  1.00  0.00    -0.264 OA
HETATM    5  C   UNL     1      25.772  42.260  49.671  1.00  0.00     0.058 C 
HETATM    6  C   UNL     1      26.641  41.114  49.318  1.00  0.00     0.250 C 
HETATM    7  O   UNL     1      26.573  40.415  48.331  1.00  0.00    -0.282 OA
HETATM    8  C   UNL     1      25.012  42.859  48.738  1.00  0.00     0.078 C 
ENDROOT
BRANCH   1   9
HETATM    9  C   UNL     1      25.820  43.908  51.683  1.00  0.00    -0.028 A 
HETATM   10  C   UNL     1      25.114  44.154  52.872  1.00  0.00     0.012 A 
HETATM   11  C   UNL     1      24.983  45.455  53.353  1.00  0.00     0.040 A 
HETATM   12  C   UNL     1      25.557  46.509  52.652  1.00  0.00     0.099 A 
HETATM   13  C   UNL     1      26.266  46.301  51.467  1.00  0.00     0.102 A 
HETATM   14  C   UNL     1      26.396  44.998  50.989  1.00  0.00     0.049 A 
BRANCH  12  15
HETATM   15  O   UNL     1      25.416  47.771  53.159  1.00  0.00    -0.358 OA
HETATM   16  H   UNL     1      25.647  47.699  54.105  1.00  0.00     0.218 HD
ENDBRANCH  12  15
BRANCH  13  17
HETATM   17  O   UNL     1      26.775  47.430  50.881  1.00  0.00    -0.349 OA
BRANCH  17  18
HETATM   18  C   UNL     1      26.980  47.394  49.467  1.00  0.00     0.171 C 
HETATM   19  C   UNL     1      27.557  48.729  49.033  1.00  0.00     0.034 C 
ENDBRANCH  17  18
ENDBRANCH  13  17
ENDBRANCH   1   9
BRANCH   2  20
HETATM   20  C   UNL     1      28.078  42.070  52.642  1.00  0.00     0.129 C 
BRANCH  20  21
HETATM   21  C   UNL     1      29.267  43.028  52.613  1.00  0.00     0.048 C 
BRANCH  21  22
HETATM   22  C   UNL     1      30.200  43.038  53.825  1.00  0.00     0.236 C 
BRANCH  22  23
HETATM   23  N   UNL     1      29.709  43.849  54.992  1.00  0.00    -0.067 N 
HETATM   24  H   UNL     1      29.109  43.229  55.578  1.00  0.00     0.280 HD
HETATM   25  C   UNL     1      30.796  44.452  55.870  1.00  0.00     0.261 C 
HETATM   26  C   UNL     1      30.159  45.251  57.012  1.00  0.00     0.195 C 
HETATM   27  O   UNL     1      29.301  46.276  56.502  1.00  0.00    -0.388 OA
HETATM   28  C   UNL     1      28.221  45.724  55.741  1.00  0.00     0.195 C 
HETATM   29  C   UNL     1      28.753  44.953  54.528  1.00  0.00     0.261 C 
ENDBRANCH  22  23
ENDBRANCH  21  22
ENDBRANCH  20  21
ENDBRANCH   2  20
BRANCH   8  30
HETATM   30  O   UNL     1      24.884  42.400  47.445  1.00  0.00    -0.360 OA
HETATM   31  H   UNL     1      25.013  43.132  46.806  1.00  0.00     0.217 HD
ENDBRANCH   8  30
BRANCH   8  32
HETATM   32  C   UNL     1      24.316  44.103  48.957  1.00  0.00     0.038 C 
HETATM   33  C   UNL     1      23.475  44.707  48.106  1.00  0.00     0.014 C 
BRANCH  33  34
HETATM   34  C   UNL     1      22.823  45.969  48.484  1.00  0.00    -0.036 A 
HETATM   35  C   UNL     1      21.455  46.180  48.258  1.00  0.00     0.011 A 
HETATM   36  C   UNL     1      20.862  47.403  48.575  1.00  0.00     0.001 A 
HETATM   37  C   UNL     1      21.628  48.424  49.132  1.00  0.00     0.000 A 
HETATM   38  C   UNL     1      22.984  48.216  49.383  1.00  0.00     0.001 A 
HETATM   39  C   UNL     1      23.579  46.992  49.066  1.00  0.00     0.011 A 
ENDBRANCH  33  34
ENDBRANCH   8  32
TORSDOF 11
ENDMDL
