MODEL 1
REMARK VINA RESULT:     -10.6      0.000      0.000
REMARK  5 active torsions:
REMARK  status: ('A' for Active; 'I' for Inactive)
REMARK    1  A    between atoms: C_4  and  C_5 
REMARK    2  A    between atoms: C_5  and  N_6 
REMARK    3  A    between atoms: C_7  and  N_8 
REMARK    4  A    between atoms: N_8  and  N_9 
REMARK       I    between atoms: N_9  and  C_10 
REMARK    5  A    between atoms: C_10  and  C_11 
ROOT
HETATM    1  N   UNL     1      24.768  45.704  50.636  1.00  0.00    -0.282 N 
HETATM    2  C   UNL     1      25.580  45.229  51.687  1.00  0.00     0.204 A 
HETATM    3  N   UNL     1      26.143  44.042  51.698  1.00  0.00    -0.217 NA
HETATM    4  C   UNL     1      25.857  43.227  50.607  1.00  0.00     0.090 A 
HETATM    5  C   UNL     1      25.056  43.622  49.570  1.00  0.00     0.103 A 
HETATM    6  S   UNL     1      24.866  42.409  48.377  1.00  0.00    -0.086 SA
HETATM    7  C   UNL     1      25.843  41.377  49.269  1.00  0.00    -0.008 A 
HETATM    8  C   UNL     1      26.313  41.916  50.439  1.00  0.00    -0.015 A 
HETATM    9  C   UNL     1      27.150  40.947  51.179  1.00  0.00     0.042 C 
HETATM   10  C   UNL     1      27.400  39.838  50.107  1.00  0.00     0.010 C 
HETATM   11  C   UNL     1      26.280  39.984  49.030  1.00  0.00     0.047 C 
HETATM   12  C   UNL     1      24.456  44.917  49.516  1.00  0.00     0.269 A 
HETATM   13  O   UNL     1      23.737  45.306  48.596  1.00  0.00    -0.266 OA
ENDROOT
BRANCH   2  14
HETATM   14  N   UNL     1      25.796  46.073  52.765  1.00  0.00    -0.170 NA
HETATM   15  H   UNL     1      24.972  46.532  53.154  1.00  0.00     0.156 HD
BRANCH  14  16
HETATM   16  N   UNL     1      26.634  45.594  53.784  1.00  0.00    -0.279 N 
HETATM   17  C   UNL     1      27.383  46.511  54.493  1.00  0.00     0.289 C 
HETATM   18  O   UNL     1      27.218  47.724  54.337  1.00  0.00    -0.264 OA
HETATM   19  H   UNL     1      26.698  44.587  53.910  1.00  0.00     0.184 HD
BRANCH  17  20
HETATM   20  C   UNL     1      28.365  45.935  55.381  1.00  0.00     0.145 A 
HETATM   21  O   UNL     1      29.122  44.876  54.954  1.00  0.00    -0.304 OA
HETATM   22  C   UNL     1      30.014  44.594  55.943  1.00  0.00     0.086 A 
HETATM   23  C   UNL     1      29.825  45.448  57.024  1.00  0.00     0.001 A 
HETATM   24  C   UNL     1      30.993  43.604  55.892  1.00  0.00     0.038 A 
HETATM   25  C   UNL     1      28.755  46.302  56.655  1.00  0.00     0.057 A 
HETATM   26  C   UNL     1      30.663  45.310  58.144  1.00  0.00     0.014 A 
HETATM   27  C   UNL     1      31.660  44.325  58.121  1.00  0.00     0.001 A 
HETATM   28  C   UNL     1      31.822  43.489  57.012  1.00  0.00     0.003 A 
ENDBRANCH  17  20
ENDBRANCH  14  16
ENDBRANCH   2  14
BRANCH   1  29
HETATM   29  C   UNL     1      24.295  47.089  50.589  1.00  0.00     0.173 C 
BRANCH  29  30
HETATM   30  C   UNL     1      25.230  47.992  49.810  1.00  0.00    -0.040 A 
HETATM   31  C   UNL     1      26.620  47.859  49.946  1.00  0.00     0.009 A 
HETATM   32  C   UNL     1      27.488  48.702  49.250  1.00  0.00     0.001 A 
HETATM   33  C   UNL     1      26.977  49.690  48.411  1.00  0.00     0.000 A 
HETATM   34  C   UNL     1      25.600  49.833  48.266  1.00  0.00     0.001 A 
HETATM   35  C   UNL     1      24.730  48.989  48.959  1.00  0.00     0.009 A 
ENDBRANCH  29  30
ENDBRANCH   1  29
TORSDOF 5
ENDMDL
MODEL 2
REMARK VINA RESULT:     -10.2      1.952      2.746
REMARK  5 active torsions:
REMARK  status: ('A' for Active; 'I' for Inactive)
REMARK    1  A    between atoms: C_4  and  C_5 
REMARK    2  A    between atoms: C_5  and  N_6 
REMARK    3  A    between atoms: C_7  and  N_8 
REMARK    4  A    between atoms: N_8  and  N_9 
REMARK       I    between atoms: N_9  and  C_10 
REMARK    5  A    between atoms: C_10  and  C_11 
ROOT
HETATM    1  N   UNL     1      23.501  46.224  49.315  1.00  0.00    -0.282 N 
HETATM    2  C   UNL     1      24.121  45.326  50.209  1.00  0.00     0.204 A 
HETATM    3  N   UNL     1      24.397  44.075  49.917  1.00  0.00    -0.217 NA
HETATM    4  C   UNL     1      23.996  43.646  48.656  1.00  0.00     0.090 A 
HETATM    5  C   UNL     1      23.367  44.462  47.754  1.00  0.00     0.103 A 
HETATM    6  S   UNL     1      22.975  43.661  46.293  1.00  0.00    -0.086 SA
HETATM    7  C   UNL     1      23.637  42.241  46.892  1.00  0.00    -0.008 A 
HETATM    8  C   UNL     1      24.150  42.348  48.159  1.00  0.00    -0.015 A 
HETATM    9  C   UNL     1      24.700  41.058  48.628  1.00  0.00     0.042 C 
HETATM   10  C   UNL     1      24.752  40.221  47.308  1.00  0.00     0.010 C 
HETATM   11  C   UNL     1      23.758  40.888  46.306  1.00  0.00     0.047 C 
HETATM   12  C   UNL     1      23.082  45.834  48.033  1.00  0.00     0.269 A 
HETATM   13  O   UNL     1      22.525  46.596  47.243  1.00  0.00    -0.266 OA
ENDROOT
BRANCH   2  14
HETATM   14  N   UNL     1      24.462  45.802  51.465  1.00  0.00    -0.170 NA
HETATM   15  H   UNL     1      23.733  45.761  52.179  1.00  0.00     0.156 HD
BRANCH  14  16
HETATM   16  N   UNL     1      25.698  45.389  51.984  1.00  0.00    -0.279 N 
HETATM   17  C   UNL     1      25.698  44.628  53.135  1.00  0.00     0.289 C 
HETATM   18  O   UNL     1      24.645  44.203  53.617  1.00  0.00    -0.264 OA
HETATM   19  H   UNL     1      26.541  45.723  51.521  1.00  0.00     0.184 HD
BRANCH  17  20
HETATM   20  C   UNL     1      27.000  44.413  53.720  1.00  0.00     0.145 A 
HETATM   21  O   UNL     1      27.559  45.388  54.504  1.00  0.00    -0.304 OA
HETATM   22  C   UNL     1      28.731  44.893  54.989  1.00  0.00     0.086 A 
HETATM   23  C   UNL     1      28.952  43.609  54.504  1.00  0.00     0.001 A 
HETATM   24  C   UNL     1      29.592  45.558  55.859  1.00  0.00     0.038 A 
HETATM   25  C   UNL     1      27.837  43.312  53.681  1.00  0.00     0.057 A 
HETATM   26  C   UNL     1      30.116  42.931  54.903  1.00  0.00     0.014 A 
HETATM   27  C   UNL     1      31.001  43.573  55.782  1.00  0.00     0.001 A 
HETATM   28  C   UNL     1      30.740  44.863  56.252  1.00  0.00     0.003 A 
ENDBRANCH  17  20
ENDBRANCH  14  16
ENDBRANCH   2  14
BRANCH   1  29
HETATM   29  C   UNL     1      23.359  47.648  49.622  1.00  0.00     0.173 C 
BRANCH  29  30
HETATM   30  C   UNL     1      24.561  48.457  49.176  1.00  0.00    -0.040 A 
HETATM   31  C   UNL     1      24.400  49.532  48.288  1.00  0.00     0.009 A 
HETATM   32  C   UNL     1      25.504  50.267  47.854  1.00  0.00     0.001 A 
HETATM   33  C   UNL     1      26.782  49.937  48.299  1.00  0.00     0.000 A 
HETATM   34  C   UNL     1      26.956  48.873  49.181  1.00  0.00     0.001 A 
HETATM   35  C   UNL     1      25.853  48.138  49.619  1.00  0.00     0.009 A 
ENDBRANCH  29  30
ENDBRANCH   1  29
TORSDOF 5
ENDMDL
MODEL 3
REMARK VINA RESULT:     -10.1      2.552      6.838
REMARK  5 active torsions:
REMARK  status: ('A' for Active; 'I' for Inactive)
REMARK    1  A    between atoms: C_4  and  C_5 
REMARK    2  A    between atoms: C_5  and  N_6 
REMARK    3  A    between atoms: C_7  and  N_8 
REMARK    4  A    between atoms: N_8  and  N_9 
REMARK       I    between atoms: N_9  and  C_10 
REMARK    5  A    between atoms: C_10  and  C_11 
ROOT
HETATM    1  N   UNL     1      25.748  46.213  51.540  1.00  0.00    -0.282 N 
HETATM    2  C   UNL     1      26.326  45.053  50.983  1.00  0.00     0.204 A 
HETATM    3  N   UNL     1      27.235  44.323  51.590  1.00  0.00    -0.217 NA
HETATM    4  C   UNL     1      27.649  44.787  52.834  1.00  0.00     0.090 A 
HETATM    5  C   UNL     1      27.145  45.918  53.416  1.00  0.00     0.103 A 
HETATM    6  S   UNL     1      27.852  46.256  54.938  1.00  0.00    -0.086 SA
HETATM    7  C   UNL     1      28.824  44.896  54.789  1.00  0.00    -0.008 A 
HETATM    8  C   UNL     1      28.633  44.191  53.629  1.00  0.00    -0.015 A 
HETATM    9  C   UNL     1      29.533  43.019  53.558  1.00  0.00     0.042 C 
HETATM   10  C   UNL     1      30.069  42.924  55.024  1.00  0.00     0.010 C 
HETATM   11  C   UNL     1      29.861  44.326  55.678  1.00  0.00     0.047 C 
HETATM   12  C   UNL     1      26.135  46.714  52.793  1.00  0.00     0.269 A 
HETATM   13  O   UNL     1      25.656  47.732  53.291  1.00  0.00    -0.266 OA
ENDROOT
BRANCH   2  14
HETATM   14  N   UNL     1      25.901  44.664  49.722  1.00  0.00    -0.170 NA
HETATM   15  H   UNL     1      25.754  45.411  49.042  1.00  0.00     0.156 HD
BRANCH  14  16
HETATM   16  N   UNL     1      26.566  43.575  49.139  1.00  0.00    -0.279 N 
HETATM   17  C   UNL     1      25.824  42.456  48.817  1.00  0.00     0.289 C 
HETATM   18  O   UNL     1      24.594  42.462  48.906  1.00  0.00    -0.264 OA
HETATM   19  H   UNL     1      27.577  43.637  49.038  1.00  0.00     0.184 HD
BRANCH  17  20
HETATM   20  C   UNL     1      26.601  41.309  48.412  1.00  0.00     0.145 A 
HETATM   21  O   UNL     1      27.634  40.880  49.203  1.00  0.00    -0.304 OA
HETATM   22  C   UNL     1      28.130  39.745  48.637  1.00  0.00     0.086 A 
HETATM   23  C   UNL     1      27.442  39.448  47.465  1.00  0.00     0.001 A 
HETATM   24  C   UNL     1      29.169  38.972  49.150  1.00  0.00     0.038 A 
HETATM   25  C   UNL     1      26.465  40.465  47.325  1.00  0.00     0.057 A 
HETATM   26  C   UNL     1      27.813  38.302  46.741  1.00  0.00     0.014 A 
HETATM   27  C   UNL     1      28.853  37.501  47.234  1.00  0.00     0.001 A 
HETATM   28  C   UNL     1      29.517  37.831  48.419  1.00  0.00     0.003 A 
ENDBRANCH  17  20
ENDBRANCH  14  16
ENDBRANCH   2  14
BRANCH   1  29
HETATM   29  C   UNL     1      24.626  46.902  50.900  1.00  0.00     0.173 C 
BRANCH  29  30
HETATM   30  C   UNL     1      25.085  47.968  49.925  1.00  0.00    -0.040 A 
HETATM   31  C   UNL     1      24.145  48.703  49.187  1.00  0.00     0.009 A 
HETATM   32  C   UNL     1      24.559  49.670  48.270  1.00  0.00     0.001 A 
HETATM   33  C   UNL     1      25.917  49.914  48.077  1.00  0.00     0.000 A 
HETATM   34  C   UNL     1      26.861  49.192  48.803  1.00  0.00     0.001 A 
HETATM   35  C   UNL     1      26.449  48.225  49.723  1.00  0.00     0.009 A 
ENDBRANCH  29  30
ENDBRANCH   1  29
TORSDOF 5
ENDMDL
MODEL 4
REMARK VINA RESULT:      -9.8      1.885      5.438
REMARK  5 active torsions:
REMARK  status: ('A' for Active; 'I' for Inactive)
REMARK    1  A    between atoms: C_4  and  C_5 
REMARK    2  A    between atoms: C_5  and  N_6 
REMARK    3  A    between atoms: C_7  and  N_8 
REMARK    4  A    between atoms: N_8  and  N_9 
REMARK       I    between atoms: N_9  and  C_10 
REMARK    5  A    between atoms: C_10  and  C_11 
ROOT
HETATM    1  N   UNL     1      25.031  44.033  50.427  1.00  0.00    -0.282 N 
HETATM    2  C   UNL     1      26.290  44.667  50.384  1.00  0.00     0.204 A 
HETATM    3  N   UNL     1      26.470  45.913  50.007  1.00  0.00    -0.217 NA
HETATM    4  C   UNL     1      25.327  46.591  49.595  1.00  0.00     0.090 A 
HETATM    5  C   UNL     1      24.082  46.022  49.590  1.00  0.00     0.103 A 
HETATM    6  S   UNL     1      22.868  47.084  49.018  1.00  0.00    -0.086 SA
HETATM    7  C   UNL     1      24.023  48.277  48.776  1.00  0.00    -0.008 A 
HETATM    8  C   UNL     1      25.298  47.904  49.115  1.00  0.00    -0.015 A 
HETATM    9  C   UNL     1      26.263  48.996  48.861  1.00  0.00     0.042 C 
HETATM   10  C   UNL     1      25.322  50.222  48.631  1.00  0.00     0.010 C 
HETATM   11  C   UNL     1      23.918  49.656  48.250  1.00  0.00     0.047 C 
HETATM   12  C   UNL     1      23.853  44.680  50.023  1.00  0.00     0.269 A 
HETATM   13  O   UNL     1      22.746  44.141  50.037  1.00  0.00    -0.266 OA
ENDROOT
BRANCH   2  14
HETATM   14  N   UNL     1      27.397  43.927  50.769  1.00  0.00    -0.170 NA
HETATM   15  H   UNL     1      28.077  43.715  50.038  1.00  0.00     0.156 HD
BRANCH  14  16
HETATM   16  N   UNL     1      28.037  44.318  51.955  1.00  0.00    -0.279 N 
HETATM   17  C   UNL     1      28.700  43.352  52.684  1.00  0.00     0.289 C 
HETATM   18  O   UNL     1      28.849  42.210  52.240  1.00  0.00    -0.264 OA
HETATM   19  H   UNL     1      27.929  45.284  52.255  1.00  0.00     0.184 HD
BRANCH  17  20
HETATM   20  C   UNL     1      29.158  43.781  53.984  1.00  0.00     0.145 A 
HETATM   21  O   UNL     1      30.136  43.065  54.625  1.00  0.00    -0.304 OA
HETATM   22  C   UNL     1      30.434  43.733  55.774  1.00  0.00     0.086 A 
HETATM   23  C   UNL     1      29.636  44.865  55.898  1.00  0.00     0.001 A 
HETATM   24  C   UNL     1      31.405  43.357  56.699  1.00  0.00     0.038 A 
HETATM   25  C   UNL     1      28.813  44.882  54.745  1.00  0.00     0.057 A 
HETATM   26  C   UNL     1      29.807  45.687  57.026  1.00  0.00     0.014 A 
HETATM   27  C   UNL     1      30.779  45.337  57.973  1.00  0.00     0.001 A 
HETATM   28  C   UNL     1      31.566  44.192  57.810  1.00  0.00     0.003 A 
ENDBRANCH  17  20
ENDBRANCH  14  16
ENDBRANCH   2  14
BRANCH   1  29
HETATM   29  C   UNL     1      24.856  42.699  51.005  1.00  0.00     0.173 C 
BRANCH  29  30
HETATM   30  C   UNL     1      25.283  41.598  50.055  1.00  0.00    -0.040 A 
HETATM   31  C   UNL     1      26.169  40.598  50.483  1.00  0.00     0.009 A 
HETATM   32  C   UNL     1      26.586  39.594  49.608  1.00  0.00     0.001 A 
HETATM   33  C   UNL     1      26.124  39.577  48.294  1.00  0.00     0.000 A 
HETATM   34  C   UNL     1      25.244  40.563  47.856  1.00  0.00     0.001 A 
HETATM   35  C   UNL     1      24.824  41.567  48.730  1.00  0.00     0.009 A 
ENDBRANCH  29  30
ENDBRANCH   1  29
TORSDOF 5
ENDMDL
MODEL 5
REMARK VINA RESULT:      -9.7      3.790      8.745
REMARK  5 active torsions:
REMARK  status: ('A' for Active; 'I' for Inactive)
REMARK    1  A    between atoms: C_4  and  C_5 
REMARK    2  A    between atoms: C_5  and  N_6 
REMARK    3  A    between atoms: C_7  and  N_8 
REMARK    4  A    between atoms: N_8  and  N_9 
REMARK       I    between atoms: N_9  and  C_10 
REMARK    5  A    between atoms: C_10  and  C_11 
ROOT
HETATM    1  N   UNL     1      25.552  45.182  49.940  1.00  0.00    -0.282 N 
HETATM    2  C   UNL     1      24.389  45.907  49.602  1.00  0.00     0.204 A 
HETATM    3  N   UNL     1      23.421  45.429  48.854  1.00  0.00    -0.217 NA
HETATM    4  C   UNL     1      23.619  44.146  48.354  1.00  0.00     0.090 A 
HETATM    5  C   UNL     1      24.737  43.404  48.625  1.00  0.00     0.103 A 
HETATM    6  S   UNL     1      24.718  41.871  47.863  1.00  0.00    -0.086 SA
HETATM    7  C   UNL     1      23.230  42.228  47.178  1.00  0.00    -0.008 A 
HETATM    8  C   UNL     1      22.741  43.466  47.505  1.00  0.00    -0.015 A 
HETATM    9  C   UNL     1      21.437  43.719  46.853  1.00  0.00     0.042 C 
HETATM   10  C   UNL     1      21.040  42.296  46.344  1.00  0.00     0.010 C 
HETATM   11  C   UNL     1      22.353  41.454  46.271  1.00  0.00     0.047 C 
HETATM   12  C   UNL     1      25.791  43.885  49.460  1.00  0.00     0.269 A 
HETATM   13  O   UNL     1      26.805  43.242  49.729  1.00  0.00    -0.266 OA
ENDROOT
BRANCH   2  14
HETATM   14  N   UNL     1      24.267  47.195  50.098  1.00  0.00    -0.170 NA
HETATM   15  H   UNL     1      25.092  47.791  50.021  1.00  0.00     0.156 HD
BRANCH  14  16
HETATM   16  N   UNL     1      23.103  47.898  49.750  1.00  0.00    -0.279 N 
HETATM   17  C   UNL     1      23.235  49.210  49.340  1.00  0.00     0.289 C 
HETATM   18  O   UNL     1      24.347  49.707  49.147  1.00  0.00    -0.264 OA
HETATM   19  H   UNL     1      22.210  47.428  49.878  1.00  0.00     0.184 HD
BRANCH  17  20
HETATM   20  C   UNL     1      21.991  49.928  49.195  1.00  0.00     0.145 A 
HETATM   21  O   UNL     1      20.883  49.504  49.881  1.00  0.00    -0.304 OA
HETATM   22  C   UNL     1      19.889  50.401  49.633  1.00  0.00     0.086 A 
HETATM   23  C   UNL     1      20.336  51.393  48.767  1.00  0.00     0.001 A 
HETATM   24  C   UNL     1      18.605  50.355  50.171  1.00  0.00     0.038 A 
HETATM   25  C   UNL     1      21.688  51.074  48.484  1.00  0.00     0.057 A 
HETATM   26  C   UNL     1      19.445  52.415  48.399  1.00  0.00     0.014 A 
HETATM   27  C   UNL     1      18.146  52.398  48.927  1.00  0.00     0.001 A 
HETATM   28  C   UNL     1      17.736  51.386  49.800  1.00  0.00     0.003 A 
ENDBRANCH  17  20
ENDBRANCH  14  16
ENDBRANCH   2  14
BRANCH   1  29
HETATM   29  C   UNL     1      26.527  45.692  50.906  1.00  0.00     0.173 C 
BRANCH  29  30
HETATM   30  C   UNL     1      26.421  45.003  52.251  1.00  0.00    -0.040 A 
HETATM   31  C   UNL     1      25.210  45.017  52.961  1.00  0.00     0.009 A 
HETATM   32  C   UNL     1      25.110  44.405  54.211  1.00  0.00     0.001 A 
HETATM   33  C   UNL     1      26.219  43.772  54.768  1.00  0.00     0.000 A 
HETATM   34  C   UNL     1      27.426  43.748  54.075  1.00  0.00     0.001 A 
HETATM   35  C   UNL     1      27.528  44.358  52.823  1.00  0.00     0.009 A 
ENDBRANCH  29  30
ENDBRANCH   1  29
TORSDOF 5
ENDMDL
MODEL 6
REMARK VINA RESULT:      -9.5      2.650      4.376
REMARK  5 active torsions:
REMARK  status: ('A' for Active; 'I' for Inactive)
REMARK    1  A    between atoms: C_4  and  C_5 
REMARK    2  A    between atoms: C_5  and  N_6 
REMARK    3  A    between atoms: C_7  and  N_8 
REMARK    4  A    between atoms: N_8  and  N_9 
REMARK       I    between atoms: N_9  and  C_10 
REMARK    5  A    between atoms: C_10  and  C_11 
ROOT
HETATM    1  N   UNL     1      25.364  41.349  49.762  1.00  0.00    -0.282 N 
HETATM    2  C   UNL     1      26.253  40.399  50.306  1.00  0.00     0.204 A 
HETATM    3  N   UNL     1      26.977  39.575  49.582  1.00  0.00    -0.217 NA
HETATM    4  C   UNL     1      26.787  39.654  48.206  1.00  0.00     0.090 A 
HETATM    5  C   UNL     1      25.921  40.536  47.621  1.00  0.00     0.103 A 
HETATM    6  S   UNL     1      25.881  40.397  45.915  1.00  0.00    -0.086 SA
HETATM    7  C   UNL     1      27.008  39.157  45.988  1.00  0.00    -0.008 A 
HETATM    8  C   UNL     1      27.419  38.843  47.258  1.00  0.00    -0.015 A 
HETATM    9  C   UNL     1      28.397  37.733  47.248  1.00  0.00     0.042 C 
HETATM   10  C   UNL     1      28.780  37.644  45.735  1.00  0.00     0.010 C 
HETATM   11  C   UNL     1      27.631  38.330  44.931  1.00  0.00     0.047 C 
HETATM   12  C   UNL     1      25.144  41.464  48.380  1.00  0.00     0.269 A 
HETATM   13  O   UNL     1      24.362  42.275  47.885  1.00  0.00    -0.266 OA
ENDROOT
BRANCH   2  14
HETATM   14  N   UNL     1      26.369  40.342  51.686  1.00  0.00    -0.170 NA
HETATM   15  H   UNL     1      26.701  39.460  52.077  1.00  0.00     0.156 HD
BRANCH  14  16
HETATM   16  N   UNL     1      26.986  41.435  52.314  1.00  0.00    -0.279 N 
HETATM   17  C   UNL     1      28.309  41.309  52.684  1.00  0.00     0.289 C 
HETATM   18  O   UNL     1      28.973  40.326  52.347  1.00  0.00    -0.264 OA
HETATM   19  H   UNL     1      26.409  42.246  52.526  1.00  0.00     0.184 HD
BRANCH  17  20
HETATM   20  C   UNL     1      28.816  42.387  53.500  1.00  0.00     0.145 A 
HETATM   21  O   UNL     1      28.067  43.524  53.657  1.00  0.00    -0.304 OA
HETATM   22  C   UNL     1      28.733  44.325  54.534  1.00  0.00     0.086 A 
HETATM   23  C   UNL     1      29.925  43.728  54.928  1.00  0.00     0.001 A 
HETATM   24  C   UNL     1      28.292  45.565  54.993  1.00  0.00     0.038 A 
HETATM   25  C   UNL     1      29.973  42.484  54.251  1.00  0.00     0.057 A 
HETATM   26  C   UNL     1      30.749  44.409  55.841  1.00  0.00     0.014 A 
HETATM   27  C   UNL     1      30.330  45.658  56.323  1.00  0.00     0.001 A 
HETATM   28  C   UNL     1      29.121  46.223  55.906  1.00  0.00     0.003 A 
ENDBRANCH  17  20
ENDBRANCH  14  16
ENDBRANCH   2  14
BRANCH   1  29
HETATM   29  C   UNL     1      24.701  42.354  50.596  1.00  0.00     0.173 C 
BRANCH  29  30
HETATM   30  C   UNL     1      25.229  43.752  50.343  1.00  0.00    -0.040 A 
HETATM   31  C   UNL     1      24.349  44.845  50.306  1.00  0.00     0.009 A 
HETATM   32  C   UNL     1      24.823  46.132  50.051  1.00  0.00     0.001 A 
HETATM   33  C   UNL     1      26.181  46.344  49.828  1.00  0.00     0.000 A 
HETATM   34  C   UNL     1      27.066  45.270  49.861  1.00  0.00     0.001 A 
HETATM   35  C   UNL     1      26.594  43.981  50.119  1.00  0.00     0.009 A 
ENDBRANCH  29  30
ENDBRANCH   1  29
TORSDOF 5
ENDMDL
MODEL 7
REMARK VINA RESULT:      -9.4      2.252      7.250
REMARK  5 active torsions:
REMARK  status: ('A' for Active; 'I' for Inactive)
REMARK    1  A    between atoms: C_4  and  C_5 
REMARK    2  A    between atoms: C_5  and  N_6 
REMARK    3  A    between atoms: C_7  and  N_8 
REMARK    4  A    between atoms: N_8  and  N_9 
REMARK       I    between atoms: N_9  and  C_10 
REMARK    5  A    between atoms: C_10  and  C_11 
ROOT
HETATM    1  N   UNL     1      27.454  41.756  52.534  1.00  0.00    -0.282 N 
HETATM    2  C   UNL     1      26.581  42.494  51.709  1.00  0.00     0.204 A 
HETATM    3  N   UNL     1      26.427  42.275  50.423  1.00  0.00    -0.217 NA
HETATM    4  C   UNL     1      27.227  41.275  49.881  1.00  0.00     0.090 A 
HETATM    5  C   UNL     1      28.112  40.541  50.623  1.00  0.00     0.103 A 
HETATM    6  S   UNL     1      28.973  39.393  49.691  1.00  0.00    -0.086 SA
HETATM    7  C   UNL     1      28.161  39.902  48.313  1.00  0.00    -0.008 A 
HETATM    8  C   UNL     1      27.257  40.909  48.531  1.00  0.00    -0.015 A 
HETATM    9  C   UNL     1      26.593  41.317  47.274  1.00  0.00     0.042 C 
HETATM   10  C   UNL     1      26.988  40.160  46.300  1.00  0.00     0.010 C 
HETATM   11  C   UNL     1      28.253  39.469  46.901  1.00  0.00     0.047 C 
HETATM   12  C   UNL     1      28.277  40.737  52.029  1.00  0.00     0.269 A 
HETATM   13  O   UNL     1      29.058  40.090  52.727  1.00  0.00    -0.266 OA
ENDROOT
BRANCH   2  14
HETATM   14  N   UNL     1      25.839  43.505  52.300  1.00  0.00    -0.170 NA
HETATM   15  H   UNL     1      25.916  43.591  53.314  1.00  0.00     0.156 HD
BRANCH  14  16
HETATM   16  N   UNL     1      25.883  44.765  51.683  1.00  0.00    -0.279 N 
HETATM   17  C   UNL     1      24.728  45.242  51.096  1.00  0.00     0.289 C 
HETATM   18  O   UNL     1      23.655  44.649  51.229  1.00  0.00    -0.264 OA
HETATM   19  H   UNL     1      26.782  45.241  51.642  1.00  0.00     0.184 HD
BRANCH  17  20
HETATM   20  C   UNL     1      24.898  46.441  50.311  1.00  0.00     0.145 A 
HETATM   21  O   UNL     1      23.795  47.086  49.815  1.00  0.00    -0.304 OA
HETATM   22  C   UNL     1      24.233  48.218  49.199  1.00  0.00     0.086 A 
HETATM   23  C   UNL     1      25.619  48.301  49.266  1.00  0.00     0.001 A 
HETATM   24  C   UNL     1      23.422  49.175  48.592  1.00  0.00     0.038 A 
HETATM   25  C   UNL     1      26.038  47.148  49.977  1.00  0.00     0.057 A 
HETATM   26  C   UNL     1      26.255  49.411  48.685  1.00  0.00     0.014 A 
HETATM   27  C   UNL     1      25.466  50.393  48.070  1.00  0.00     0.001 A 
HETATM   28  C   UNL     1      24.073  50.276  48.028  1.00  0.00     0.003 A 
ENDBRANCH  17  20
ENDBRANCH  14  16
ENDBRANCH   2  14
BRANCH   1  29
HETATM   29  C   UNL     1      27.474  41.926  53.988  1.00  0.00     0.173 C 
BRANCH  29  30
HETATM   30  C   UNL     1      28.429  43.017  54.428  1.00  0.00    -0.040 A 
HETATM   31  C   UNL     1      29.776  42.718  54.684  1.00  0.00     0.009 A 
HETATM   32  C   UNL     1      30.657  43.712  55.112  1.00  0.00     0.001 A 
HETATM   33  C   UNL     1      30.203  45.017  55.292  1.00  0.00     0.000 A 
HETATM   34  C   UNL     1      28.869  45.328  55.042  1.00  0.00     0.001 A 
HETATM   35  C   UNL     1      27.986  44.335  54.611  1.00  0.00     0.009 A 
ENDBRANCH  29  30
ENDBRANCH   1  29
TORSDOF 5
ENDMDL
MODEL 8
REMARK VINA RESULT:      -9.2      2.615      7.666
REMARK  5 active torsions:
REMARK  status: ('A' for Active; 'I' for Inactive)
REMARK    1  A    between atoms: C_4  and  C_5 
REMARK    2  A    between atoms: C_5  and  N_6 
REMARK    3  A    between atoms: C_7  and  N_8 
REMARK    4  A    between atoms: N_8  and  N_9 
REMARK       I    between atoms: N_9  and  C_10 
REMARK    5  A    between atoms: C_10  and  C_11 
ROOT
HETATM    1  N   UNL     1      26.987  42.750  51.230  1.00  0.00    -0.282 N 
HETATM    2  C   UNL     1      27.130  43.485  50.035  1.00  0.00     0.204 A 
HETATM    3  N   UNL     1      27.128  42.943  48.838  1.00  0.00    -0.217 NA
HETATM    4  C   UNL     1      27.020  41.557  48.802  1.00  0.00     0.090 A 
HETATM    5  C   UNL     1      26.905  40.787  49.928  1.00  0.00     0.103 A 
HETATM    6  S   UNL     1      26.806  39.113  49.583  1.00  0.00    -0.086 SA
HETATM    7  C   UNL     1      26.931  39.443  47.943  1.00  0.00    -0.008 A 
HETATM    8  C   UNL     1      27.042  40.776  47.642  1.00  0.00    -0.015 A 
HETATM    9  C   UNL     1      27.164  40.990  46.184  1.00  0.00     0.042 C 
HETATM   10  C   UNL     1      26.765  39.592  45.609  1.00  0.00     0.010 C 
HETATM   11  C   UNL     1      26.956  38.554  46.760  1.00  0.00     0.047 C 
HETATM   12  C   UNL     1      26.873  41.351  51.240  1.00  0.00     0.269 A 
HETATM   13  O   UNL     1      26.764  40.689  52.272  1.00  0.00    -0.266 OA
ENDROOT
BRANCH   2  14
HETATM   14  N   UNL     1      27.274  44.859  50.137  1.00  0.00    -0.170 NA
HETATM   15  H   UNL     1      28.195  45.237  49.913  1.00  0.00     0.156 HD
BRANCH  14  16
HETATM   16  N   UNL     1      26.257  45.645  49.574  1.00  0.00    -0.279 N 
HETATM   17  C   UNL     1      25.830  46.755  50.274  1.00  0.00     0.289 C 
HETATM   18  O   UNL     1      26.417  47.130  51.292  1.00  0.00    -0.264 OA
HETATM   19  H   UNL     1      25.837  45.323  48.705  1.00  0.00     0.184 HD
BRANCH  17  20
HETATM   20  C   UNL     1      24.653  47.395  49.738  1.00  0.00     0.145 A 
HETATM   21  O   UNL     1      24.597  48.763  49.673  1.00  0.00    -0.304 OA
HETATM   22  C   UNL     1      23.430  49.090  49.053  1.00  0.00     0.086 A 
HETATM   23  C   UNL     1      22.711  47.943  48.737  1.00  0.00     0.001 A 
HETATM   24  C   UNL     1      23.005  50.383  48.757  1.00  0.00     0.038 A 
HETATM   25  C   UNL     1      23.503  46.857  49.189  1.00  0.00     0.057 A 
HETATM   26  C   UNL     1      21.475  48.083  48.084  1.00  0.00     0.014 A 
HETATM   27  C   UNL     1      21.022  49.372  47.770  1.00  0.00     0.001 A 
HETATM   28  C   UNL     1      21.777  50.502  48.100  1.00  0.00     0.003 A 
ENDBRANCH  17  20
ENDBRANCH  14  16
ENDBRANCH   2  14
BRANCH   1  29
HETATM   29  C   UNL     1      26.833  43.409  52.529  1.00  0.00     0.173 C 
BRANCH  29  30
HETATM   30  C   UNL     1      28.138  43.483  53.296  1.00  0.00    -0.040 A 
HETATM   31  C   UNL     1      29.267  42.786  52.843  1.00  0.00     0.009 A 
HETATM   32  C   UNL     1      30.466  42.831  53.556  1.00  0.00     0.001 A 
HETATM   33  C   UNL     1      30.550  43.571  54.733  1.00  0.00     0.000 A 
HETATM   34  C   UNL     1      29.438  44.270  55.195  1.00  0.00     0.001 A 
HETATM   35  C   UNL     1      28.238  44.228  54.481  1.00  0.00     0.009 A 
ENDBRANCH  29  30
ENDBRANCH   1  29
TORSDOF 5
ENDMDL
MODEL 9
REMARK VINA RESULT:      -9.2      2.474      5.827
REMARK  5 active torsions:
REMARK  status: ('A' for Active; 'I' for Inactive)
REMARK    1  A    between atoms: C_4  and  C_5 
REMARK    2  A    between atoms: C_5  and  N_6 
REMARK    3  A    between atoms: C_7  and  N_8 
REMARK    4  A    between atoms: N_8  and  N_9 
REMARK       I    between atoms: N_9  and  C_10 
REMARK    5  A    between atoms: C_10  and  C_11 
ROOT
HETATM    1  N   UNL     1      24.564  42.744  48.975  1.00  0.00    -0.282 N 
HETATM    2  C   UNL     1      25.486  43.797  49.148  1.00  0.00     0.204 A 
HETATM    3  N   UNL     1      25.149  45.067  49.179  1.00  0.00    -0.217 NA
HETATM    4  C   UNL     1      23.799  45.339  48.982  1.00  0.00     0.090 A 
HETATM    5  C   UNL     1      22.861  44.363  48.783  1.00  0.00     0.103 A 
HETATM    6  S   UNL     1      21.286  44.990  48.551  1.00  0.00    -0.086 SA
HETATM    7  C   UNL     1      21.883  46.550  48.708  1.00  0.00    -0.008 A 
HETATM    8  C   UNL     1      23.234  46.617  48.933  1.00  0.00    -0.015 A 
HETATM    9  C   UNL     1      23.692  48.019  49.043  1.00  0.00     0.042 C 
HETATM   10  C   UNL     1      22.344  48.797  49.192  1.00  0.00     0.010 C 
HETATM   11  C   UNL     1      21.218  47.870  48.635  1.00  0.00     0.047 C 
HETATM   12  C   UNL     1      23.194  42.973  48.775  1.00  0.00     0.269 A 
HETATM   13  O   UNL     1      22.375  42.070  48.606  1.00  0.00    -0.266 OA
ENDROOT
BRANCH   2  14
HETATM   14  N   UNL     1      26.822  43.464  49.300  1.00  0.00    -0.170 NA
HETATM   15  H   UNL     1      27.420  43.604  48.484  1.00  0.00     0.156 HD
BRANCH  14  16
HETATM   16  N   UNL     1      27.456  43.909  50.470  1.00  0.00    -0.279 N 
HETATM   17  C   UNL     1      27.711  42.984  51.462  1.00  0.00     0.289 C 
HETATM   18  O   UNL     1      27.521  41.780  51.274  1.00  0.00    -0.264 OA
HETATM   19  H   UNL     1      27.640  44.906  50.560  1.00  0.00     0.184 HD
BRANCH  17  20
HETATM   20  C   UNL     1      28.175  43.544  52.709  1.00  0.00     0.145 A 
HETATM   21  O   UNL     1      29.276  43.006  53.323  1.00  0.00    -0.304 OA
HETATM   22  C   UNL     1      29.540  43.771  54.417  1.00  0.00     0.086 A 
HETATM   23  C   UNL     1      28.601  44.790  54.536  1.00  0.00     0.001 A 
HETATM   24  C   UNL     1      30.604  43.584  55.298  1.00  0.00     0.038 A 
HETATM   25  C   UNL     1      27.722  44.630  53.436  1.00  0.00     0.057 A 
HETATM   26  C   UNL     1      28.717  45.689  55.609  1.00  0.00     0.014 A 
HETATM   27  C   UNL     1      29.779  45.529  56.510  1.00  0.00     0.001 A 
HETATM   28  C   UNL     1      30.707  44.494  56.354  1.00  0.00     0.003 A 
ENDBRANCH  17  20
ENDBRANCH  14  16
ENDBRANCH   2  14
BRANCH   1  29
HETATM   29  C   UNL     1      24.960  41.340  49.108  1.00  0.00     0.173 C 
BRANCH  29  30
HETATM   30  C   UNL     1      25.700  40.831  47.887  1.00  0.00    -0.040 A 
HETATM   31  C   UNL     1      25.146  40.987  46.608  1.00  0.00     0.009 A 
HETATM   32  C   UNL     1      25.811  40.500  45.481  1.00  0.00     0.001 A 
HETATM   33  C   UNL     1      27.035  39.851  45.618  1.00  0.00     0.000 A 
HETATM   34  C   UNL     1      27.597  39.690  46.882  1.00  0.00     0.001 A 
HETATM   35  C   UNL     1      26.936  40.179  48.011  1.00  0.00     0.009 A 
ENDBRANCH  29  30
ENDBRANCH   1  29
TORSDOF 5
ENDMDL
MODEL 10
REMARK VINA RESULT:      -9.1      2.863      8.476
REMARK  5 active torsions:
REMARK  status: ('A' for Active; 'I' for Inactive)
REMARK    1  A    between atoms: C_4  and  C_5 
REMARK    2  A    between atoms: C_5  and  N_6 
REMARK    3  A    between atoms: C_7  and  N_8 
REMARK    4  A    between atoms: N_8  and  N_9 
REMARK       I    between atoms: N_9  and  C_10 
REMARK    5  A    between atoms: C_10  and  C_11 
ROOT
HETATM    1  N   UNL     1      26.125  42.223  51.656  1.00  0.00    -0.282 N 
HETATM    2  C   UNL     1      25.377  43.406  51.482  1.00  0.00     0.204 A 
HETATM    3  N   UNL     1      25.659  44.545  52.073  1.00  0.00    -0.217 NA
HETATM    4  C   UNL     1      26.742  44.520  52.946  1.00  0.00     0.090 A 
HETATM    5  C   UNL     1      27.491  43.398  53.176  1.00  0.00     0.103 A 
HETATM    6  S   UNL     1      28.748  43.657  54.309  1.00  0.00    -0.086 SA
HETATM    7  C   UNL     1      28.265  45.254  54.481  1.00  0.00    -0.008 A 
HETATM    8  C   UNL     1      27.187  45.604  53.710  1.00  0.00    -0.015 A 
HETATM    9  C   UNL     1      26.808  47.018  53.924  1.00  0.00     0.042 C 
HETATM   10  C   UNL     1      28.044  47.578  54.700  1.00  0.00     0.010 C 
HETATM   11  C   UNL     1      28.784  46.354  55.325  1.00  0.00     0.047 C 
HETATM   12  C   UNL     1      27.225  42.154  52.524  1.00  0.00     0.269 A 
HETATM   13  O   UNL     1      27.882  41.129  52.703  1.00  0.00    -0.266 OA
ENDROOT
BRANCH   2  14
HETATM   14  N   UNL     1      24.284  43.358  50.630  1.00  0.00    -0.170 NA
HETATM   15  H   UNL     1      23.604  42.618  50.807  1.00  0.00     0.156 HD
BRANCH  14  16
HETATM   16  N   UNL     1      23.644  44.575  50.353  1.00  0.00    -0.279 N 
HETATM   17  C   UNL     1      23.621  45.014  49.045  1.00  0.00     0.289 C 
HETATM   18  O   UNL     1      24.022  44.297  48.126  1.00  0.00    -0.264 OA
HETATM   19  H   UNL     1      23.281  45.109  51.140  1.00  0.00     0.184 HD
BRANCH  17  20
HETATM   20  C   UNL     1      23.128  46.359  48.865  1.00  0.00     0.145 A 
HETATM   21  O   UNL     1      23.951  47.421  49.138  1.00  0.00    -0.304 OA
HETATM   22  C   UNL     1      23.271  48.552  48.802  1.00  0.00     0.086 A 
HETATM   23  C   UNL     1      22.000  48.234  48.338  1.00  0.00     0.001 A 
HETATM   24  C   UNL     1      23.767  49.851  48.892  1.00  0.00     0.038 A 
HETATM   25  C   UNL     1      21.915  46.821  48.390  1.00  0.00     0.057 A 
HETATM   26  C   UNL     1      21.150  49.279  47.936  1.00  0.00     0.014 A 
HETATM   27  C   UNL     1      21.622  50.597  48.012  1.00  0.00     0.001 A 
HETATM   28  C   UNL     1      22.910  50.876  48.480  1.00  0.00     0.003 A 
ENDBRANCH  17  20
ENDBRANCH  14  16
ENDBRANCH   2  14
BRANCH   1  29
HETATM   29  C   UNL     1      25.872  41.024  50.856  1.00  0.00     0.173 C 
BRANCH  29  30
HETATM   30  C   UNL     1      26.742  40.964  49.616  1.00  0.00    -0.040 A 
HETATM   31  C   UNL     1      26.271  41.473  48.396  1.00  0.00     0.009 A 
HETATM   32  C   UNL     1      27.057  41.401  47.244  1.00  0.00     0.001 A 
HETATM   33  C   UNL     1      28.321  40.818  47.297  1.00  0.00     0.000 A 
HETATM   34  C   UNL     1      28.801  40.310  48.501  1.00  0.00     0.001 A 
HETATM   35  C   UNL     1      28.018  40.383  49.655  1.00  0.00     0.009 A 
ENDBRANCH  29  30
ENDBRANCH   1  29
TORSDOF 5
ENDMDL
