MODEL 1
REMARK VINA RESULT:      -8.6      0.000      0.000
REMARK  6 active torsions:
REMARK  status: ('A' for Active; 'I' for Inactive)
REMARK    1  A    between atoms: C_5  and  N_6 
REMARK    2  A    between atoms: N_6  and  C_7 
REMARK    3  A    between atoms: C_7  and  C_8 
REMARK    4  A    between atoms: N_10  and  C_12 
REMARK    5  A    between atoms: C_12  and  C_13 
REMARK    6  A    between atoms: C_14  and  O_15 
ROOT
HETATM    1  C   UNL     1      26.637  45.642  53.425  1.00  0.00     0.026 C 
HETATM    2  C   UNL     1      26.208  46.868  52.626  1.00  0.00     0.241 C 
HETATM    3  N   UNL     1      25.257  46.305  51.598  1.00  0.00    -0.067 N 
HETATM    4  H   UNL     1      24.444  46.942  51.503  1.00  0.00     0.280 HD
HETATM    5  C   UNL     1      24.755  44.969  52.105  1.00  0.00     0.235 C 
HETATM    6  C   UNL     1      25.329  44.861  53.511  1.00  0.00     0.035 C 
ENDROOT
BRANCH   1   7
HETATM    7  C   UNL     1      27.248  45.950  54.795  1.00  0.00     0.100 C 
BRANCH   7   8
HETATM    8  N   UNL     1      28.685  45.705  54.775  1.00  0.00    -0.279 NA
HETATM    9  H   UNL     1      28.978  45.035  54.055  1.00  0.00     0.129 HD
BRANCH   8  10
HETATM   10  C   UNL     1      29.409  45.437  55.943  1.00  0.00     0.080 A 
HETATM   11  N   UNL     1      30.362  44.491  56.019  1.00  0.00    -0.351 N 
HETATM   12  C   UNL     1      31.073  44.233  57.136  1.00  0.00     0.006 A 
HETATM   13  H   UNL     1      30.576  43.951  55.189  1.00  0.00     0.167 HD
HETATM   14  C   UNL     1      32.149  43.196  57.090  1.00  0.00     0.068 C 
HETATM   15  C   UNL     1      30.798  44.949  58.300  1.00  0.00     0.024 A 
HETATM   16  C   UNL     1      29.803  45.915  58.285  1.00  0.00     0.005 A 
HETATM   17  C   UNL     1      29.109  46.160  57.105  1.00  0.00     0.042 A 
ENDBRANCH   8  10
ENDBRANCH   7   8
ENDBRANCH   1   7
BRANCH   3  18
HETATM   18  C   UNL     1      25.811  46.257  50.192  1.00  0.00     0.276 C 
BRANCH  18  19
HETATM   19  C   UNL     1      25.936  47.611  49.553  1.00  0.00     0.002 A 
HETATM   20  C   UNL     1      24.797  48.350  49.202  1.00  0.00     0.091 A 
HETATM   21  C   UNL     1      24.911  49.627  48.643  1.00  0.00     0.044 A 
HETATM   22 BR   UNL     1      23.369  50.616  48.175  1.00  0.00    -0.048 Br
HETATM   23  C   UNL     1      26.171  50.179  48.424  1.00  0.00     0.022 A 
HETATM   24  C   UNL     1      27.314  49.455  48.766  1.00  0.00     0.002 A 
HETATM   25  C   UNL     1      27.198  48.182  49.333  1.00  0.00     0.012 A 
BRANCH  20  26
HETATM   26  O   UNL     1      23.571  47.764  49.407  1.00  0.00    -0.359 OA
HETATM   27  H   UNL     1      22.923  48.502  49.455  1.00  0.00     0.218 HD
ENDBRANCH  20  26
ENDBRANCH  18  19
ENDBRANCH   3  18
TORSDOF 6
ENDMDL
MODEL 2
REMARK VINA RESULT:      -8.5      1.890      2.812
REMARK  6 active torsions:
REMARK  status: ('A' for Active; 'I' for Inactive)
REMARK    1  A    between atoms: C_5  and  N_6 
REMARK    2  A    between atoms: N_6  and  C_7 
REMARK    3  A    between atoms: C_7  and  C_8 
REMARK    4  A    between atoms: N_10  and  C_12 
REMARK    5  A    between atoms: C_12  and  C_13 
REMARK    6  A    between atoms: C_14  and  O_15 
ROOT
HETATM    1  C   UNL     1      26.904  43.807  51.309  1.00  0.00     0.026 C 
HETATM    2  C   UNL     1      25.580  44.445  51.715  1.00  0.00     0.241 C 
HETATM    3  N   UNL     1      25.374  45.522  50.678  1.00  0.00    -0.067 N 
HETATM    4  H   UNL     1      24.378  45.529  50.389  1.00  0.00     0.280 HD
HETATM    5  C   UNL     1      26.216  45.175  49.467  1.00  0.00     0.235 C 
HETATM    6  C   UNL     1      26.786  43.800  49.788  1.00  0.00     0.035 C 
ENDROOT
BRANCH   1   7
HETATM    7  C   UNL     1      27.155  42.418  51.902  1.00  0.00     0.100 C 
BRANCH   7   8
HETATM    8  N   UNL     1      27.153  42.482  53.358  1.00  0.00    -0.279 NA
HETATM    9  H   UNL     1      26.246  42.746  53.758  1.00  0.00     0.129 HD
BRANCH   8  10
HETATM   10  C   UNL     1      28.157  43.145  54.075  1.00  0.00     0.080 A 
HETATM   11  N   UNL     1      27.990  44.363  54.620  1.00  0.00    -0.351 N 
HETATM   12  C   UNL     1      28.947  45.006  55.320  1.00  0.00     0.006 A 
HETATM   13  H   UNL     1      27.092  44.822  54.519  1.00  0.00     0.167 HD
HETATM   14  C   UNL     1      28.632  46.334  55.932  1.00  0.00     0.068 C 
HETATM   15  C   UNL     1      30.199  44.412  55.471  1.00  0.00     0.024 A 
HETATM   16  C   UNL     1      30.434  43.169  54.901  1.00  0.00     0.005 A 
HETATM   17  C   UNL     1      29.411  42.536  54.203  1.00  0.00     0.042 A 
ENDBRANCH   8  10
ENDBRANCH   7   8
ENDBRANCH   1   7
BRANCH   3  18
HETATM   18  C   UNL     1      25.584  46.930  51.186  1.00  0.00     0.276 C 
BRANCH  18  19
HETATM   19  C   UNL     1      25.662  47.955  50.090  1.00  0.00     0.002 A 
HETATM   20  C   UNL     1      24.498  48.479  49.511  1.00  0.00     0.091 A 
HETATM   21  C   UNL     1      24.567  49.462  48.518  1.00  0.00     0.044 A 
HETATM   22 BR   UNL     1      22.990  50.165  47.744  1.00  0.00    -0.048 Br
HETATM   23  C   UNL     1      25.807  49.929  48.089  1.00  0.00     0.022 A 
HETATM   24  C   UNL     1      26.974  49.416  48.654  1.00  0.00     0.002 A 
HETATM   25  C   UNL     1      26.903  48.439  49.652  1.00  0.00     0.012 A 
BRANCH  20  26
HETATM   26  O   UNL     1      23.291  47.977  49.939  1.00  0.00    -0.359 OA
HETATM   27  H   UNL     1      23.258  48.142  50.908  1.00  0.00     0.218 HD
ENDBRANCH  20  26
ENDBRANCH  18  19
ENDBRANCH   3  18
TORSDOF 6
ENDMDL
MODEL 3
REMARK VINA RESULT:      -8.3      3.706      8.951
REMARK  6 active torsions:
REMARK  status: ('A' for Active; 'I' for Inactive)
REMARK    1  A    between atoms: C_5  and  N_6 
REMARK    2  A    between atoms: N_6  and  C_7 
REMARK    3  A    between atoms: C_7  and  C_8 
REMARK    4  A    between atoms: N_10  and  C_12 
REMARK    5  A    between atoms: C_12  and  C_13 
REMARK    6  A    between atoms: C_14  and  O_15 
ROOT
HETATM    1  C   UNL     1      25.021  45.146  50.410  1.00  0.00     0.026 C 
HETATM    2  C   UNL     1      25.672  45.764  51.643  1.00  0.00     0.241 C 
HETATM    3  N   UNL     1      26.925  44.945  51.830  1.00  0.00    -0.067 N 
HETATM    4  H   UNL     1      27.710  45.576  52.077  1.00  0.00     0.280 HD
HETATM    5  C   UNL     1      27.252  44.280  50.508  1.00  0.00     0.235 C 
HETATM    6  C   UNL     1      26.237  44.862  49.533  1.00  0.00     0.035 C 
ENDROOT
BRANCH   1   7
HETATM    7  C   UNL     1      23.976  46.032  49.725  1.00  0.00     0.100 C 
BRANCH   7   8
HETATM    8  N   UNL     1      23.935  47.345  50.355  1.00  0.00    -0.279 NA
HETATM    9  H   UNL     1      23.361  47.377  51.204  1.00  0.00     0.129 HD
BRANCH   8  10
HETATM   10  C   UNL     1      23.695  48.514  49.621  1.00  0.00     0.080 A 
HETATM   11  N   UNL     1      22.527  49.180  49.657  1.00  0.00    -0.351 N 
HETATM   12  C   UNL     1      22.290  50.312  48.963  1.00  0.00     0.006 A 
HETATM   13  H   UNL     1      21.786  48.828  50.251  1.00  0.00     0.167 HD
HETATM   14  C   UNL     1      20.972  51.001  49.123  1.00  0.00     0.068 C 
HETATM   15  C   UNL     1      23.282  50.820  48.126  1.00  0.00     0.024 A 
HETATM   16  C   UNL     1      24.495  50.154  48.028  1.00  0.00     0.005 A 
HETATM   17  C   UNL     1      24.701  49.000  48.777  1.00  0.00     0.042 A 
ENDBRANCH   8  10
ENDBRANCH   7   8
ENDBRANCH   1   7
BRANCH   3  18
HETATM   18  C   UNL     1      26.882  43.991  53.001  1.00  0.00     0.276 C 
BRANCH  18  19
HETATM   19  C   UNL     1      28.180  43.909  53.753  1.00  0.00     0.002 A 
HETATM   20  C   UNL     1      28.435  44.754  54.842  1.00  0.00     0.091 A 
HETATM   21  C   UNL     1      29.626  44.653  55.568  1.00  0.00     0.044 A 
HETATM   22 BR   UNL     1      29.961  45.797  57.037  1.00  0.00    -0.048 Br
HETATM   23  C   UNL     1      30.581  43.705  55.208  1.00  0.00     0.022 A 
HETATM   24  C   UNL     1      30.342  42.858  54.125  1.00  0.00     0.002 A 
HETATM   25  C   UNL     1      29.147  42.955  53.406  1.00  0.00     0.012 A 
BRANCH  20  26
HETATM   26  O   UNL     1      27.484  45.696  55.154  1.00  0.00    -0.359 OA
HETATM   27  H   UNL     1      27.939  46.368  55.710  1.00  0.00     0.218 HD
ENDBRANCH  20  26
ENDBRANCH  18  19
ENDBRANCH   3  18
TORSDOF 6
ENDMDL
MODEL 4
REMARK VINA RESULT:      -8.1      4.070      9.250
REMARK  6 active torsions:
REMARK  status: ('A' for Active; 'I' for Inactive)
REMARK    1  A    between atoms: C_5  and  N_6 
REMARK    2  A    between atoms: N_6  and  C_7 
REMARK    3  A    between atoms: C_7  and  C_8 
REMARK    4  A    between atoms: N_10  and  C_12 
REMARK    5  A    between atoms: C_12  and  C_13 
REMARK    6  A    between atoms: C_14  and  O_15 
ROOT
HETATM    1  C   UNL     1      24.403  47.223  50.320  1.00  0.00     0.026 C 
HETATM    2  C   UNL     1      25.721  47.159  51.085  1.00  0.00     0.241 C 
HETATM    3  N   UNL     1      25.735  45.760  51.650  1.00  0.00    -0.067 N 
HETATM    4  H   UNL     1      26.689  45.364  51.552  1.00  0.00     0.280 HD
HETATM    5  C   UNL     1      24.784  44.913  50.829  1.00  0.00     0.235 C 
HETATM    6  C   UNL     1      24.347  45.831  49.696  1.00  0.00     0.035 C 
ENDROOT
BRANCH   1   7
HETATM    7  C   UNL     1      24.314  48.351  49.289  1.00  0.00     0.100 C 
BRANCH   7   8
HETATM    8  N   UNL     1      23.042  48.291  48.581  1.00  0.00    -0.279 NA
HETATM    9  H   UNL     1      23.139  48.236  47.562  1.00  0.00     0.129 HD
BRANCH   8  10
HETATM   10  C   UNL     1      21.986  49.164  48.873  1.00  0.00     0.080 A 
HETATM   11  N   UNL     1      20.932  48.817  49.632  1.00  0.00    -0.351 N 
HETATM   12  C   UNL     1      19.916  49.654  49.928  1.00  0.00     0.006 A 
HETATM   13  H   UNL     1      20.901  47.882  50.023  1.00  0.00     0.167 HD
HETATM   14  C   UNL     1      18.822  49.179  50.831  1.00  0.00     0.068 C 
HETATM   15  C   UNL     1      19.918  50.944  49.401  1.00  0.00     0.024 A 
HETATM   16  C   UNL     1      20.967  51.343  48.585  1.00  0.00     0.005 A 
HETATM   17  C   UNL     1      22.002  50.451  48.322  1.00  0.00     0.042 A 
ENDBRANCH   8  10
ENDBRANCH   7   8
ENDBRANCH   1   7
BRANCH   3  18
HETATM   18  C   UNL     1      25.492  45.682  53.140  1.00  0.00     0.276 C 
BRANCH  18  19
HETATM   19  C   UNL     1      26.757  45.696  53.953  1.00  0.00     0.002 A 
HETATM   20  C   UNL     1      27.652  44.619  53.909  1.00  0.00     0.091 A 
HETATM   21  C   UNL     1      28.848  44.647  54.633  1.00  0.00     0.044 A 
HETATM   22 BR   UNL     1      30.052  43.189  54.566  1.00  0.00    -0.048 Br
HETATM   23  C   UNL     1      29.159  45.756  55.417  1.00  0.00     0.022 A 
HETATM   24  C   UNL     1      28.277  46.834  55.472  1.00  0.00     0.002 A 
HETATM   25  C   UNL     1      27.086  46.809  54.741  1.00  0.00     0.012 A 
BRANCH  20  26
HETATM   26  O   UNL     1      27.301  43.530  53.146  1.00  0.00    -0.359 OA
HETATM   27  H   UNL     1      26.350  43.649  52.926  1.00  0.00     0.218 HD
ENDBRANCH  20  26
ENDBRANCH  18  19
ENDBRANCH   3  18
TORSDOF 6
ENDMDL
MODEL 5
REMARK VINA RESULT:      -8.1      3.715      8.654
REMARK  6 active torsions:
REMARK  status: ('A' for Active; 'I' for Inactive)
REMARK    1  A    between atoms: C_5  and  N_6 
REMARK    2  A    between atoms: N_6  and  C_7 
REMARK    3  A    between atoms: C_7  and  C_8 
REMARK    4  A    between atoms: N_10  and  C_12 
REMARK    5  A    between atoms: C_12  and  C_13 
REMARK    6  A    between atoms: C_14  and  O_15 
ROOT
HETATM    1  C   UNL     1      25.008  45.161  51.110  1.00  0.00     0.026 C 
HETATM    2  C   UNL     1      26.505  45.416  51.247  1.00  0.00     0.241 C 
HETATM    3  N   UNL     1      26.898  44.584  52.442  1.00  0.00    -0.067 N 
HETATM    4  H   UNL     1      27.802  44.113  52.247  1.00  0.00     0.280 HD
HETATM    5  C   UNL     1      25.842  43.516  52.639  1.00  0.00     0.235 C 
HETATM    6  C   UNL     1      24.921  43.673  51.436  1.00  0.00     0.035 C 
ENDROOT
BRANCH   1   7
HETATM    7  C   UNL     1      24.419  45.515  49.742  1.00  0.00     0.100 C 
BRANCH   7   8
HETATM    8  N   UNL     1      23.552  46.682  49.851  1.00  0.00    -0.279 NA
HETATM    9  H   UNL     1      22.562  46.477  49.683  1.00  0.00     0.129 HD
BRANCH   8  10
HETATM   10  C   UNL     1      23.859  47.897  49.226  1.00  0.00     0.080 A 
HETATM   11  N   UNL     1      25.104  48.404  49.171  1.00  0.00    -0.351 N 
HETATM   12  C   UNL     1      25.412  49.567  48.562  1.00  0.00     0.006 A 
HETATM   13  H   UNL     1      25.861  47.878  49.592  1.00  0.00     0.167 HD
HETATM   14  C   UNL     1      26.840  50.006  48.512  1.00  0.00     0.068 C 
HETATM   15  C   UNL     1      24.395  50.323  47.981  1.00  0.00     0.024 A 
HETATM   16  C   UNL     1      23.088  49.862  48.037  1.00  0.00     0.005 A 
HETATM   17  C   UNL     1      22.821  48.647  48.659  1.00  0.00     0.042 A 
ENDBRANCH   8  10
ENDBRANCH   7   8
ENDBRANCH   1   7
BRANCH   3  18
HETATM   18  C   UNL     1      27.201  45.383  53.690  1.00  0.00     0.276 C 
BRANCH  18  19
HETATM   19  C   UNL     1      28.424  44.907  54.422  1.00  0.00     0.002 A 
HETATM   20  C   UNL     1      28.828  45.513  55.620  1.00  0.00     0.091 A 
HETATM   21  C   UNL     1      29.942  45.046  56.323  1.00  0.00     0.044 A 
HETATM   22 BR   UNL     1      30.479  45.869  57.939  1.00  0.00    -0.048 Br
HETATM   23  C   UNL     1      30.671  43.966  55.830  1.00  0.00     0.022 A 
HETATM   24  C   UNL     1      30.283  43.353  54.639  1.00  0.00     0.002 A 
HETATM   25  C   UNL     1      29.163  43.816  53.941  1.00  0.00     0.012 A 
BRANCH  20  26
HETATM   26  O   UNL     1      28.102  46.593  56.063  1.00  0.00    -0.359 OA
HETATM   27  H   UNL     1      27.687  46.988  55.263  1.00  0.00     0.218 HD
ENDBRANCH  20  26
ENDBRANCH  18  19
ENDBRANCH   3  18
TORSDOF 6
ENDMDL
MODEL 6
REMARK VINA RESULT:      -7.8      5.566      8.302
REMARK  6 active torsions:
REMARK  status: ('A' for Active; 'I' for Inactive)
REMARK    1  A    between atoms: C_5  and  N_6 
REMARK    2  A    between atoms: N_6  and  C_7 
REMARK    3  A    between atoms: C_7  and  C_8 
REMARK    4  A    between atoms: N_10  and  C_12 
REMARK    5  A    between atoms: C_12  and  C_13 
REMARK    6  A    between atoms: C_14  and  O_15 
ROOT
HETATM    1  C   UNL     1      26.321  43.719  51.990  1.00  0.00     0.026 C 
HETATM    2  C   UNL     1      27.296  43.348  53.103  1.00  0.00     0.241 C 
HETATM    3  N   UNL     1      27.066  44.414  54.146  1.00  0.00    -0.067 N 
HETATM    4  H   UNL     1      27.063  43.976  55.086  1.00  0.00     0.280 HD
HETATM    5  C   UNL     1      25.699  45.021  53.902  1.00  0.00     0.235 C 
HETATM    6  C   UNL     1      25.102  44.169  52.790  1.00  0.00     0.035 C 
ENDROOT
BRANCH   1   7
HETATM    7  C   UNL     1      26.014  42.589  51.004  1.00  0.00     0.100 C 
BRANCH   7   8
HETATM    8  N   UNL     1      26.647  41.351  51.440  1.00  0.00    -0.279 NA
HETATM    9  H   UNL     1      27.083  41.415  52.366  1.00  0.00     0.129 HD
BRANCH   8  10
HETATM   10  C   UNL     1      27.501  40.619  50.605  1.00  0.00     0.080 A 
HETATM   11  N   UNL     1      28.264  39.601  51.041  1.00  0.00    -0.351 N 
HETATM   12  C   UNL     1      29.081  38.884  50.243  1.00  0.00     0.006 A 
HETATM   13  H   UNL     1      28.213  39.341  52.019  1.00  0.00     0.167 HD
HETATM   14  C   UNL     1      29.841  37.735  50.825  1.00  0.00     0.068 C 
HETATM   15  C   UNL     1      29.186  39.219  48.894  1.00  0.00     0.024 A 
HETATM   16  C   UNL     1      28.444  40.282  48.399  1.00  0.00     0.005 A 
HETATM   17  C   UNL     1      27.600  40.982  49.255  1.00  0.00     0.042 A 
ENDBRANCH   8  10
ENDBRANCH   7   8
ENDBRANCH   1   7
BRANCH   3  18
HETATM   18  C   UNL     1      28.177  45.434  54.255  1.00  0.00     0.276 C 
BRANCH  18  19
HETATM   19  C   UNL     1      28.915  45.374  55.563  1.00  0.00     0.002 A 
HETATM   20  C   UNL     1      29.979  44.480  55.748  1.00  0.00     0.091 A 
HETATM   21  C   UNL     1      30.693  44.450  56.951  1.00  0.00     0.044 A 
HETATM   22 BR   UNL     1      32.128  43.242  57.191  1.00  0.00    -0.048 Br
HETATM   23  C   UNL     1      30.345  45.314  57.986  1.00  0.00     0.022 A 
HETATM   24  C   UNL     1      29.287  46.208  57.817  1.00  0.00     0.002 A 
HETATM   25  C   UNL     1      28.580  46.242  56.612  1.00  0.00     0.012 A 
BRANCH  20  26
HETATM   26  O   UNL     1      30.278  43.623  54.716  1.00  0.00    -0.359 OA
HETATM   27  H   UNL     1      30.011  42.727  55.021  1.00  0.00     0.218 HD
ENDBRANCH  20  26
ENDBRANCH  18  19
ENDBRANCH   3  18
TORSDOF 6
ENDMDL
MODEL 7
REMARK VINA RESULT:      -7.8      2.323      3.551
REMARK  6 active torsions:
REMARK  status: ('A' for Active; 'I' for Inactive)
REMARK    1  A    between atoms: C_5  and  N_6 
REMARK    2  A    between atoms: N_6  and  C_7 
REMARK    3  A    between atoms: C_7  and  C_8 
REMARK    4  A    between atoms: N_10  and  C_12 
REMARK    5  A    between atoms: C_12  and  C_13 
REMARK    6  A    between atoms: C_14  and  O_15 
ROOT
HETATM    1  C   UNL     1      25.109  44.869  51.157  1.00  0.00     0.026 C 
HETATM    2  C   UNL     1      25.155  45.297  49.694  1.00  0.00     0.241 C 
HETATM    3  N   UNL     1      24.759  46.753  49.738  1.00  0.00    -0.067 N 
HETATM    4  H   UNL     1      25.366  47.289  49.090  1.00  0.00     0.280 HD
HETATM    5  C   UNL     1      25.003  47.262  51.144  1.00  0.00     0.235 C 
HETATM    6  C   UNL     1      25.685  46.099  51.852  1.00  0.00     0.035 C 
ENDROOT
BRANCH   1   7
HETATM    7  C   UNL     1      25.876  43.582  51.473  1.00  0.00     0.100 C 
BRANCH   7   8
HETATM    8  N   UNL     1      26.068  43.448  52.911  1.00  0.00    -0.279 NA
HETATM    9  H   UNL     1      25.449  44.048  53.467  1.00  0.00     0.129 HD
BRANCH   8  10
HETATM   10  C   UNL     1      27.340  43.469  53.496  1.00  0.00     0.080 A 
HETATM   11  N   UNL     1      27.779  44.479  54.269  1.00  0.00    -0.351 N 
HETATM   12  C   UNL     1      28.998  44.504  54.845  1.00  0.00     0.006 A 
HETATM   13  H   UNL     1      27.157  45.259  54.447  1.00  0.00     0.167 HD
HETATM   14  C   UNL     1      29.359  45.652  55.733  1.00  0.00     0.068 C 
HETATM   15  C   UNL     1      29.884  43.453  54.614  1.00  0.00     0.024 A 
HETATM   16  C   UNL     1      29.493  42.401  53.798  1.00  0.00     0.005 A 
HETATM   17  C   UNL     1      28.219  42.409  53.240  1.00  0.00     0.042 A 
ENDBRANCH   8  10
ENDBRANCH   7   8
ENDBRANCH   1   7
BRANCH   3  18
HETATM   18  C   UNL     1      23.371  47.042  49.214  1.00  0.00     0.276 C 
BRANCH  18  19
HETATM   19  C   UNL     1      23.150  48.489  48.877  1.00  0.00     0.002 A 
HETATM   20  C   UNL     1      21.916  49.106  49.128  1.00  0.00     0.091 A 
HETATM   21  C   UNL     1      21.720  50.463  48.851  1.00  0.00     0.044 A 
HETATM   22 BR   UNL     1      20.053  51.288  49.194  1.00  0.00    -0.048 Br
HETATM   23  C   UNL     1      22.760  51.219  48.313  1.00  0.00     0.022 A 
HETATM   24  C   UNL     1      23.992  50.618  48.056  1.00  0.00     0.002 A 
HETATM   25  C   UNL     1      24.189  49.264  48.341  1.00  0.00     0.012 A 
BRANCH  20  26
HETATM   26  O   UNL     1      20.904  48.325  49.633  1.00  0.00    -0.359 OA
HETATM   27  H   UNL     1      20.473  47.903  48.856  1.00  0.00     0.218 HD
ENDBRANCH  20  26
ENDBRANCH  18  19
ENDBRANCH   3  18
TORSDOF 6
ENDMDL
MODEL 8
REMARK VINA RESULT:      -7.8      4.108      9.394
REMARK  6 active torsions:
REMARK  status: ('A' for Active; 'I' for Inactive)
REMARK    1  A    between atoms: C_5  and  N_6 
REMARK    2  A    between atoms: N_6  and  C_7 
REMARK    3  A    between atoms: C_7  and  C_8 
REMARK    4  A    between atoms: N_10  and  C_12 
REMARK    5  A    between atoms: C_12  and  C_13 
REMARK    6  A    between atoms: C_14  and  O_15 
ROOT
HETATM    1  C   UNL     1      24.912  46.652  50.510  1.00  0.00     0.026 C 
HETATM    2  C   UNL     1      26.000  46.844  51.561  1.00  0.00     0.241 C 
HETATM    3  N   UNL     1      26.672  45.494  51.625  1.00  0.00    -0.067 N 
HETATM    4  H   UNL     1      27.698  45.628  51.685  1.00  0.00     0.280 HD
HETATM    5  C   UNL     1      26.365  44.757  50.338  1.00  0.00     0.235 C 
HETATM    6  C   UNL     1      25.629  45.780  49.484  1.00  0.00     0.035 C 
ENDROOT
BRANCH   1   7
HETATM    7  C   UNL     1      24.357  47.951  49.917  1.00  0.00     0.100 C 
BRANCH   7   8
HETATM    8  N   UNL     1      22.938  47.805  49.619  1.00  0.00    -0.279 NA
HETATM    9  H   UNL     1      22.740  47.119  48.883  1.00  0.00     0.129 HD
BRANCH   8  10
HETATM   10  C   UNL     1      22.102  48.912  49.422  1.00  0.00     0.080 A 
HETATM   11  N   UNL     1      20.807  48.929  49.781  1.00  0.00    -0.351 N 
HETATM   12  C   UNL     1      19.996  49.994  49.606  1.00  0.00     0.006 A 
HETATM   13  H   UNL     1      20.415  48.108  50.227  1.00  0.00     0.167 HD
HETATM   14  C   UNL     1      18.586  49.922  50.097  1.00  0.00     0.068 C 
HETATM   15  C   UNL     1      20.497  51.138  48.987  1.00  0.00     0.024 A 
HETATM   16  C   UNL     1      21.819  51.161  48.568  1.00  0.00     0.005 A 
HETATM   17  C   UNL     1      22.622  50.046  48.787  1.00  0.00     0.042 A 
ENDBRANCH   8  10
ENDBRANCH   7   8
ENDBRANCH   1   7
BRANCH   3  18
HETATM   18  C   UNL     1      26.365  44.699  52.874  1.00  0.00     0.276 C 
BRANCH  18  19
HETATM   19  C   UNL     1      27.593  44.215  53.590  1.00  0.00     0.002 A 
HETATM   20  C   UNL     1      28.259  45.034  54.513  1.00  0.00     0.091 A 
HETATM   21  C   UNL     1      29.379  44.571  55.210  1.00  0.00     0.044 A 
HETATM   22 BR   UNL     1      30.269  45.682  56.456  1.00  0.00    -0.048 Br
HETATM   23  C   UNL     1      29.851  43.279  54.986  1.00  0.00     0.022 A 
HETATM   24  C   UNL     1      29.201  42.453  54.070  1.00  0.00     0.002 A 
HETATM   25  C   UNL     1      28.076  42.915  53.380  1.00  0.00     0.012 A 
BRANCH  20  26
HETATM   26  O   UNL     1      27.782  46.311  54.690  1.00  0.00    -0.359 OA
HETATM   27  H   UNL     1      26.971  46.377  54.137  1.00  0.00     0.218 HD
ENDBRANCH  20  26
ENDBRANCH  18  19
ENDBRANCH   3  18
TORSDOF 6
ENDMDL
MODEL 9
REMARK VINA RESULT:      -7.6      2.921      4.149
REMARK  6 active torsions:
REMARK  status: ('A' for Active; 'I' for Inactive)
REMARK    1  A    between atoms: C_5  and  N_6 
REMARK    2  A    between atoms: N_6  and  C_7 
REMARK    3  A    between atoms: C_7  and  C_8 
REMARK    4  A    between atoms: N_10  and  C_12 
REMARK    5  A    between atoms: C_12  and  C_13 
REMARK    6  A    between atoms: C_14  and  O_15 
ROOT
HETATM    1  C   UNL     1      25.243  45.547  49.641  1.00  0.00     0.026 C 
HETATM    2  C   UNL     1      24.428  46.796  49.959  1.00  0.00     0.241 C 
HETATM    3  N   UNL     1      23.070  46.492  49.376  1.00  0.00    -0.067 N 
HETATM    4  H   UNL     1      22.337  46.811  50.037  1.00  0.00     0.280 HD
HETATM    5  C   UNL     1      22.951  44.989  49.226  1.00  0.00     0.235 C 
HETATM    6  C   UNL     1      24.214  44.445  49.877  1.00  0.00     0.035 C 
ENDROOT
BRANCH   1   7
HETATM    7  C   UNL     1      26.513  45.379  50.479  1.00  0.00     0.100 C 
BRANCH   7   8
HETATM    8  N   UNL     1      26.170  45.041  51.855  1.00  0.00    -0.279 NA
HETATM    9  H   UNL     1      25.475  45.669  52.272  1.00  0.00     0.129 HD
BRANCH   8  10
HETATM   10  C   UNL     1      27.148  44.769  52.819  1.00  0.00     0.080 A 
HETATM   11  N   UNL     1      28.175  43.926  52.610  1.00  0.00    -0.351 N 
HETATM   12  C   UNL     1      29.128  43.665  53.528  1.00  0.00     0.006 A 
HETATM   13  H   UNL     1      28.254  43.472  51.707  1.00  0.00     0.167 HD
HETATM   14  C   UNL     1      30.257  42.754  53.165  1.00  0.00     0.068 C 
HETATM   15  C   UNL     1      29.046  44.262  54.785  1.00  0.00     0.024 A 
HETATM   16  C   UNL     1      27.989  45.116  55.064  1.00  0.00     0.005 A 
HETATM   17  C   UNL     1      27.040  45.370  54.080  1.00  0.00     0.042 A 
ENDBRANCH   8  10
ENDBRANCH   7   8
ENDBRANCH   1   7
BRANCH   3  18
HETATM   18  C   UNL     1      22.742  47.260  48.116  1.00  0.00     0.276 C 
BRANCH  18  19
HETATM   19  C   UNL     1      22.124  48.604  48.380  1.00  0.00     0.002 A 
HETATM   20  C   UNL     1      20.914  48.716  49.078  1.00  0.00     0.091 A 
HETATM   21  C   UNL     1      20.357  49.967  49.360  1.00  0.00     0.044 A 
HETATM   22 BR   UNL     1      18.724  50.108  50.304  1.00  0.00    -0.048 Br
HETATM   23  C   UNL     1      21.006  51.126  48.939  1.00  0.00     0.022 A 
HETATM   24  C   UNL     1      22.210  51.031  48.242  1.00  0.00     0.002 A 
HETATM   25  C   UNL     1      22.770  49.780  47.968  1.00  0.00     0.012 A 
BRANCH  20  26
HETATM   26  O   UNL     1      20.286  47.551  49.455  1.00  0.00    -0.359 OA
HETATM   27  H   UNL     1      19.987  47.692  50.381  1.00  0.00     0.218 HD
ENDBRANCH  20  26
ENDBRANCH  18  19
ENDBRANCH   3  18
TORSDOF 6
ENDMDL
MODEL 10
REMARK VINA RESULT:      -7.6      4.650      5.873
REMARK  6 active torsions:
REMARK  status: ('A' for Active; 'I' for Inactive)
REMARK    1  A    between atoms: C_5  and  N_6 
REMARK    2  A    between atoms: N_6  and  C_7 
REMARK    3  A    between atoms: C_7  and  C_8 
REMARK    4  A    between atoms: N_10  and  C_12 
REMARK    5  A    between atoms: C_12  and  C_13 
REMARK    6  A    between atoms: C_14  and  O_15 
ROOT
HETATM    1  C   UNL     1      25.999  43.283  50.761  1.00  0.00     0.026 C 
HETATM    2  C   UNL     1      26.387  44.536  49.984  1.00  0.00     0.241 C 
HETATM    3  N   UNL     1      26.387  45.619  51.035  1.00  0.00    -0.067 N 
HETATM    4  H   UNL     1      27.208  46.236  50.887  1.00  0.00     0.280 HD
HETATM    5  C   UNL     1      26.530  44.957  52.390  1.00  0.00     0.235 C 
HETATM    6  C   UNL     1      26.761  43.487  52.068  1.00  0.00     0.035 C 
ENDROOT
BRANCH   1   7
HETATM    7  C   UNL     1      26.340  41.964  50.063  1.00  0.00     0.100 C 
BRANCH   7   8
HETATM    8  N   UNL     1      27.571  41.405  50.610  1.00  0.00    -0.279 NA
HETATM    9  H   UNL     1      28.308  42.102  50.761  1.00  0.00     0.129 HD
BRANCH   8  10
HETATM   10  C   UNL     1      28.162  40.250  50.082  1.00  0.00     0.080 A 
HETATM   11  N   UNL     1      28.831  39.356  50.831  1.00  0.00    -0.351 N 
HETATM   12  C   UNL     1      29.394  38.236  50.335  1.00  0.00     0.006 A 
HETATM   13  H   UNL     1      28.903  39.517  51.829  1.00  0.00     0.167 HD
HETATM   14  C   UNL     1      30.065  37.282  51.271  1.00  0.00     0.068 C 
HETATM   15  C   UNL     1      29.324  37.986  48.965  1.00  0.00     0.024 A 
HETATM   16  C   UNL     1      28.672  38.893  48.141  1.00  0.00     0.005 A 
HETATM   17  C   UNL     1      28.090  40.025  48.701  1.00  0.00     0.042 A 
ENDBRANCH   8  10
ENDBRANCH   7   8
ENDBRANCH   1   7
BRANCH   3  18
HETATM   18  C   UNL     1      25.225  46.581  50.943  1.00  0.00     0.276 C 
BRANCH  18  19
HETATM   19  C   UNL     1      25.460  47.713  49.984  1.00  0.00     0.002 A 
HETATM   20  C   UNL     1      24.386  48.430  49.438  1.00  0.00     0.091 A 
HETATM   21  C   UNL     1      24.604  49.508  48.575  1.00  0.00     0.044 A 
HETATM   22 BR   UNL     1      23.149  50.470  47.845  1.00  0.00    -0.048 Br
HETATM   23  C   UNL     1      25.906  49.880  48.244  1.00  0.00     0.022 A 
HETATM   24  C   UNL     1      26.984  49.176  48.778  1.00  0.00     0.002 A 
HETATM   25  C   UNL     1      26.765  48.103  49.647  1.00  0.00     0.012 A 
BRANCH  20  26
HETATM   26  O   UNL     1      23.115  48.019  49.764  1.00  0.00    -0.359 OA
HETATM   27  H   UNL     1      23.056  47.076  49.489  1.00  0.00     0.218 HD
ENDBRANCH  20  26
ENDBRANCH  18  19
ENDBRANCH   3  18
TORSDOF 6
ENDMDL
