MODEL 1
REMARK VINA RESULT:     -10.2      0.000      0.000
REMARK  9 active torsions:
REMARK  status: ('A' for Active; 'I' for Inactive)
REMARK       I    between atoms: N_2  and  C_3 
REMARK    1  A    between atoms: N_2  and  C_28 
REMARK    2  A    between atoms: C_3  and  C_4 
REMARK    3  A    between atoms: C_6  and  N_7 
REMARK       I    between atoms: N_7  and  C_8 
REMARK    4  A    between atoms: C_8  and  C_9 
REMARK    5  A    between atoms: C_9  and  O_10 
REMARK    6  A    between atoms: N_17  and  C_18 
REMARK    7  A    between atoms: C_18  and  C_19 
REMARK    8  A    between atoms: C_19  and  C_20 
REMARK    9  A    between atoms: C_28  and  C_29 
ROOT
HETATM    1  C   UNL     1      26.289  42.767  50.772  1.00  0.00     0.036 A 
HETATM    2  C   UNL     1      26.837  43.991  50.368  1.00  0.00     0.049 A 
HETATM    3  C   UNL     1      26.035  45.065  49.937  1.00  0.00     0.065 A 
HETATM    4  C   UNL     1      24.641  44.828  49.893  1.00  0.00     0.091 A 
HETATM    5  C   UNL     1      24.090  43.610  50.318  1.00  0.00     0.088 A 
HETATM    6  N   UNL     1      22.726  43.594  50.200  1.00  0.00    -0.242 NA
HETATM    7  C   UNL     1      22.418  44.760  49.695  1.00  0.00     0.210 A 
HETATM    8  N   UNL     1      23.526  45.544  49.501  1.00  0.00    -0.337 N 
HETATM    9  C   UNL     1      24.909  42.581  50.797  1.00  0.00     0.051 A 
ENDROOT
BRANCH   1  10
HETATM   10  C   UNL     1      27.203  41.720  51.288  1.00  0.00     0.253 C 
HETATM   11  N   UNL     1      27.804  41.865  52.544  1.00  0.00    -0.350 N 
HETATM   12  C   UNL     1      28.818  40.886  52.913  1.00  0.00     0.153 C 
HETATM   13  O   UNL     1      27.399  40.753  50.551  1.00  0.00    -0.267 OA
BRANCH  11  14
HETATM   14  C   UNL     1      27.543  42.988  53.468  1.00  0.00     0.158 C 
BRANCH  14  15
HETATM   15  C   UNL     1      28.643  44.061  53.597  1.00  0.00     0.151 A 
HETATM   16  O   UNL     1      29.824  43.472  54.205  1.00  0.00    -0.343 OA
HETATM   17  C   UNL     1      29.995  44.141  55.386  1.00  0.00     0.075 A 
HETATM   18  C   UNL     1      29.083  45.158  55.599  1.00  0.00    -0.022 A 
HETATM   19  C   UNL     1      30.988  43.852  56.299  1.00  0.00     0.037 A 
HETATM   20  C   UNL     1      28.161  45.254  54.450  1.00  0.00     0.075 A 
HETATM   21  C   UNL     1      29.134  45.932  56.745  1.00  0.00     0.010 A 
HETATM   22  C   UNL     1      30.131  45.657  57.684  1.00  0.00     0.001 A 
HETATM   23  C   UNL     1      31.054  44.623  57.462  1.00  0.00     0.003 A 
ENDBRANCH  14  15
ENDBRANCH  11  14
ENDBRANCH   1  10
BRANCH   3  24
HETATM   24  N   UNL     1      26.577  46.320  49.613  1.00  0.00    -0.323 N 
HETATM   25  C   UNL     1      26.487  47.505  50.329  1.00  0.00     0.246 C 
HETATM   26  O   UNL     1      26.024  47.659  51.454  1.00  0.00    -0.271 OA
HETATM   27  H   UNL     1      27.046  46.427  48.725  1.00  0.00     0.169 HD
BRANCH  25  28
HETATM   28  C   UNL     1      27.127  48.673  49.568  1.00  0.00     0.270 C 
BRANCH  28  29
HETATM   29  O   UNL     1      26.646  48.792  48.228  1.00  0.00    -0.387 OA
HETATM   30  C   UNL     1      25.856  49.968  48.056  1.00  0.00     0.202 C 
ENDBRANCH  28  29
ENDBRANCH  25  28
ENDBRANCH   3  24
BRANCH   8  31
HETATM   31  C   UNL     1      23.430  46.879  48.937  1.00  0.00     0.134 C 
BRANCH  31  32
HETATM   32  C   UNL     1      22.044  47.145  48.345  1.00  0.00     0.058 C 
BRANCH  32  33
HETATM   33  C   UNL     1      21.612  48.591  48.400  1.00  0.00    -0.057 A 
HETATM   34  C   UNL     1      20.542  49.079  47.638  1.00  0.00     0.007 A 
HETATM   35  C   UNL     1      20.176  50.426  47.706  1.00  0.00     0.001 A 
HETATM   36  C   UNL     1      20.887  51.305  48.520  1.00  0.00     0.000 A 
HETATM   37  C   UNL     1      21.968  50.840  49.264  1.00  0.00     0.001 A 
HETATM   38  C   UNL     1      22.330  49.494  49.202  1.00  0.00     0.007 A 
ENDBRANCH  32  33
ENDBRANCH  31  32
ENDBRANCH   8  31
TORSDOF 9
ENDMDL
MODEL 2
REMARK VINA RESULT:     -10.0      2.006      3.359
REMARK  9 active torsions:
REMARK  status: ('A' for Active; 'I' for Inactive)
REMARK       I    between atoms: N_2  and  C_3 
REMARK    1  A    between atoms: N_2  and  C_28 
REMARK    2  A    between atoms: C_3  and  C_4 
REMARK    3  A    between atoms: C_6  and  N_7 
REMARK       I    between atoms: N_7  and  C_8 
REMARK    4  A    between atoms: C_8  and  C_9 
REMARK    5  A    between atoms: C_9  and  O_10 
REMARK    6  A    between atoms: N_17  and  C_18 
REMARK    7  A    between atoms: C_18  and  C_19 
REMARK    8  A    between atoms: C_19  and  C_20 
REMARK    9  A    between atoms: C_28  and  C_29 
ROOT
HETATM    1  C   UNL     1      26.214  43.892  50.886  1.00  0.00     0.036 A 
HETATM    2  C   UNL     1      24.830  43.837  50.677  1.00  0.00     0.049 A 
HETATM    3  C   UNL     1      24.099  44.944  50.206  1.00  0.00     0.065 A 
HETATM    4  C   UNL     1      24.832  46.135  49.993  1.00  0.00     0.091 A 
HETATM    5  C   UNL     1      26.221  46.184  50.183  1.00  0.00     0.088 A 
HETATM    6  N   UNL     1      26.733  47.426  49.913  1.00  0.00    -0.242 NA
HETATM    7  C   UNL     1      25.697  48.153  49.584  1.00  0.00     0.210 A 
HETATM    8  N   UNL     1      24.533  47.427  49.605  1.00  0.00    -0.337 N 
HETATM    9  C   UNL     1      26.929  45.051  50.595  1.00  0.00     0.051 A 
ENDROOT
BRANCH   1  10
HETATM   10  C   UNL     1      26.914  42.655  51.306  1.00  0.00     0.253 C 
HETATM   11  N   UNL     1      27.467  42.558  52.589  1.00  0.00    -0.350 N 
HETATM   12  C   UNL     1      28.284  41.387  52.874  1.00  0.00     0.153 C 
HETATM   13  O   UNL     1      26.982  41.753  50.470  1.00  0.00    -0.267 OA
BRANCH  11  14
HETATM   14  C   UNL     1      27.351  43.603  53.627  1.00  0.00     0.158 C 
BRANCH  14  15
HETATM   15  C   UNL     1      28.561  44.540  53.819  1.00  0.00     0.151 A 
HETATM   16  O   UNL     1      29.703  43.768  54.278  1.00  0.00    -0.343 OA
HETATM   17  C   UNL     1      29.999  44.262  55.519  1.00  0.00     0.075 A 
HETATM   18  C   UNL     1      29.208  45.327  55.908  1.00  0.00    -0.022 A 
HETATM   19  C   UNL     1      31.000  43.765  56.328  1.00  0.00     0.037 A 
HETATM   20  C   UNL     1      28.247  45.656  54.838  1.00  0.00     0.075 A 
HETATM   21  C   UNL     1      29.394  45.941  57.135  1.00  0.00     0.010 A 
HETATM   22  C   UNL     1      30.401  45.454  57.971  1.00  0.00     0.001 A 
HETATM   23  C   UNL     1      31.200  44.372  57.570  1.00  0.00     0.003 A 
ENDBRANCH  14  15
ENDBRANCH  11  14
ENDBRANCH   1  10
BRANCH   3  24
HETATM   24  N   UNL     1      22.726  44.865  49.914  1.00  0.00    -0.323 N 
HETATM   25  C   UNL     1      22.116  44.776  48.672  1.00  0.00     0.246 C 
HETATM   26  O   UNL     1      22.663  44.617  47.587  1.00  0.00    -0.271 OA
HETATM   27  H   UNL     1      22.067  44.942  50.676  1.00  0.00     0.169 HD
BRANCH  25  28
HETATM   28  C   UNL     1      20.587  44.823  48.790  1.00  0.00     0.270 C 
BRANCH  28  29
HETATM   29  O   UNL     1      19.927  44.159  47.711  1.00  0.00    -0.387 OA
HETATM   30  C   UNL     1      18.865  44.950  47.180  1.00  0.00     0.202 C 
ENDBRANCH  28  29
ENDBRANCH  25  28
ENDBRANCH   3  24
BRANCH   8  31
HETATM   31  C   UNL     1      23.250  48.028  49.286  1.00  0.00     0.134 C 
BRANCH  31  32
HETATM   32  C   UNL     1      23.366  49.543  49.100  1.00  0.00     0.058 C 
BRANCH  32  33
HETATM   33  C   UNL     1      22.040  50.258  48.992  1.00  0.00    -0.057 A 
HETATM   34  C   UNL     1      21.396  50.808  50.109  1.00  0.00     0.007 A 
HETATM   35  C   UNL     1      20.165  51.455  49.972  1.00  0.00     0.001 A 
HETATM   36  C   UNL     1      19.553  51.543  48.724  1.00  0.00     0.000 A 
HETATM   37  C   UNL     1      20.169  50.979  47.609  1.00  0.00     0.001 A 
HETATM   38  C   UNL     1      21.402  50.340  47.743  1.00  0.00     0.007 A 
ENDBRANCH  32  33
ENDBRANCH  31  32
ENDBRANCH   8  31
TORSDOF 9
ENDMDL
MODEL 3
REMARK VINA RESULT:     -10.0      2.170      3.919
REMARK  9 active torsions:
REMARK  status: ('A' for Active; 'I' for Inactive)
REMARK       I    between atoms: N_2  and  C_3 
REMARK    1  A    between atoms: N_2  and  C_28 
REMARK    2  A    between atoms: C_3  and  C_4 
REMARK    3  A    between atoms: C_6  and  N_7 
REMARK       I    between atoms: N_7  and  C_8 
REMARK    4  A    between atoms: C_8  and  C_9 
REMARK    5  A    between atoms: C_9  and  O_10 
REMARK    6  A    between atoms: N_17  and  C_18 
REMARK    7  A    between atoms: C_18  and  C_19 
REMARK    8  A    between atoms: C_19  and  C_20 
REMARK    9  A    between atoms: C_28  and  C_29 
ROOT
HETATM    1  C   UNL     1      25.658  45.778  50.599  1.00  0.00     0.036 A 
HETATM    2  C   UNL     1      24.303  45.980  50.307  1.00  0.00     0.049 A 
HETATM    3  C   UNL     1      23.847  47.117  49.615  1.00  0.00     0.065 A 
HETATM    4  C   UNL     1      24.829  48.073  49.263  1.00  0.00     0.091 A 
HETATM    5  C   UNL     1      26.188  47.861  49.537  1.00  0.00     0.088 A 
HETATM    6  N   UNL     1      26.967  48.903  49.107  1.00  0.00    -0.242 NA
HETATM    7  C   UNL     1      26.126  49.763  48.595  1.00  0.00     0.210 A 
HETATM    8  N   UNL     1      24.832  49.312  48.653  1.00  0.00    -0.337 N 
HETATM    9  C   UNL     1      26.618  46.693  50.174  1.00  0.00     0.051 A 
ENDROOT
BRANCH   1  10
HETATM   10  C   UNL     1      26.057  44.512  51.260  1.00  0.00     0.253 C 
HETATM   11  N   UNL     1      26.256  44.473  52.646  1.00  0.00    -0.350 N 
HETATM   12  C   UNL     1      26.810  43.247  53.203  1.00  0.00     0.153 C 
HETATM   13  O   UNL     1      26.207  43.535  50.527  1.00  0.00    -0.267 OA
BRANCH  11  14
HETATM   14  C   UNL     1      26.029  45.617  53.553  1.00  0.00     0.158 C 
BRANCH  14  15
HETATM   15  C   UNL     1      27.261  46.462  53.939  1.00  0.00     0.151 A 
HETATM   16  O   UNL     1      28.445  45.620  53.935  1.00  0.00    -0.343 OA
HETATM   17  C   UNL     1      28.897  45.625  55.226  1.00  0.00     0.075 A 
HETATM   18  C   UNL     1      28.169  46.434  56.078  1.00  0.00    -0.022 A 
HETATM   19  C   UNL     1      29.988  44.902  55.664  1.00  0.00     0.037 A 
HETATM   20  C   UNL     1      27.084  47.101  55.332  1.00  0.00     0.075 A 
HETATM   21  C   UNL     1      28.511  46.550  57.414  1.00  0.00     0.010 A 
HETATM   22  C   UNL     1      29.611  45.826  57.881  1.00  0.00     0.001 A 
HETATM   23  C   UNL     1      30.346  45.007  57.009  1.00  0.00     0.003 A 
ENDBRANCH  14  15
ENDBRANCH  11  14
ENDBRANCH   1  10
BRANCH   3  24
HETATM   24  N   UNL     1      22.500  47.279  49.247  1.00  0.00    -0.323 N 
HETATM   25  C   UNL     1      21.901  46.985  48.030  1.00  0.00     0.246 C 
HETATM   26  O   UNL     1      22.405  46.403  47.077  1.00  0.00    -0.271 OA
HETATM   27  H   UNL     1      21.871  47.720  49.903  1.00  0.00     0.169 HD
BRANCH  25  28
HETATM   28  C   UNL     1      20.429  47.417  48.008  1.00  0.00     0.270 C 
BRANCH  28  29
HETATM   29  O   UNL     1      19.955  47.833  49.290  1.00  0.00    -0.387 OA
HETATM   30  C   UNL     1      18.536  47.714  49.389  1.00  0.00     0.202 C 
ENDBRANCH  28  29
ENDBRANCH  25  28
ENDBRANCH   3  24
BRANCH   8  31
HETATM   31  C   UNL     1      23.722  50.105  48.153  1.00  0.00     0.134 C 
BRANCH  31  32
HETATM   32  C   UNL     1      23.021  50.868  49.279  1.00  0.00     0.058 C 
BRANCH  32  33
HETATM   33  C   UNL     1      21.530  51.025  49.090  1.00  0.00    -0.057 A 
HETATM   34  C   UNL     1      20.656  51.202  50.171  1.00  0.00     0.007 A 
HETATM   35  C   UNL     1      19.281  51.333  49.957  1.00  0.00     0.001 A 
HETATM   36  C   UNL     1      18.761  51.270  48.667  1.00  0.00     0.000 A 
HETATM   37  C   UNL     1      19.615  51.069  47.585  1.00  0.00     0.001 A 
HETATM   38  C   UNL     1      20.989  50.945  47.796  1.00  0.00     0.007 A 
ENDBRANCH  32  33
ENDBRANCH  31  32
ENDBRANCH   8  31
TORSDOF 9
ENDMDL
MODEL 4
REMARK VINA RESULT:      -9.8      2.403      8.909
REMARK  9 active torsions:
REMARK  status: ('A' for Active; 'I' for Inactive)
REMARK       I    between atoms: N_2  and  C_3 
REMARK    1  A    between atoms: N_2  and  C_28 
REMARK    2  A    between atoms: C_3  and  C_4 
REMARK    3  A    between atoms: C_6  and  N_7 
REMARK       I    between atoms: N_7  and  C_8 
REMARK    4  A    between atoms: C_8  and  C_9 
REMARK    5  A    between atoms: C_9  and  O_10 
REMARK    6  A    between atoms: N_17  and  C_18 
REMARK    7  A    between atoms: C_18  and  C_19 
REMARK    8  A    between atoms: C_19  and  C_20 
REMARK    9  A    between atoms: C_28  and  C_29 
ROOT
HETATM    1  C   UNL     1      24.290  43.556  51.125  1.00  0.00     0.036 A 
HETATM    2  C   UNL     1      25.254  42.577  50.853  1.00  0.00     0.049 A 
HETATM    3  C   UNL     1      26.371  42.373  51.685  1.00  0.00     0.065 A 
HETATM    4  C   UNL     1      26.492  43.241  52.796  1.00  0.00     0.091 A 
HETATM    5  C   UNL     1      25.516  44.207  53.081  1.00  0.00     0.088 A 
HETATM    6  N   UNL     1      25.823  44.932  54.202  1.00  0.00    -0.242 NA
HETATM    7  C   UNL     1      26.972  44.457  54.606  1.00  0.00     0.210 A 
HETATM    8  N   UNL     1      27.414  43.434  53.806  1.00  0.00    -0.337 N 
HETATM    9  C   UNL     1      24.386  44.347  52.267  1.00  0.00     0.051 A 
ENDROOT
BRANCH   1  10
HETATM   10  C   UNL     1      23.106  43.646  50.239  1.00  0.00     0.253 C 
HETATM   11  N   UNL     1      23.077  44.577  49.193  1.00  0.00    -0.350 N 
HETATM   12  C   UNL     1      21.820  44.727  48.472  1.00  0.00     0.153 C 
HETATM   13  O   UNL     1      22.176  42.879  50.487  1.00  0.00    -0.267 OA
BRANCH  11  14
HETATM   14  C   UNL     1      24.200  45.469  48.840  1.00  0.00     0.158 C 
BRANCH  14  15
HETATM   15  C   UNL     1      24.426  46.702  49.740  1.00  0.00     0.151 A 
HETATM   16  O   UNL     1      24.006  47.900  49.033  1.00  0.00    -0.343 OA
HETATM   17  C   UNL     1      25.139  48.654  48.893  1.00  0.00     0.075 A 
HETATM   18  C   UNL     1      26.260  48.107  49.489  1.00  0.00    -0.022 A 
HETATM   19  C   UNL     1      25.184  49.861  48.228  1.00  0.00     0.037 A 
HETATM   20  C   UNL     1      25.910  46.833  50.145  1.00  0.00     0.075 A 
HETATM   21  C   UNL     1      27.481  48.758  49.441  1.00  0.00     0.010 A 
HETATM   22  C   UNL     1      27.551  49.982  48.772  1.00  0.00     0.001 A 
HETATM   23  C   UNL     1      26.409  50.532  48.169  1.00  0.00     0.003 A 
ENDBRANCH  14  15
ENDBRANCH  11  14
ENDBRANCH   1  10
BRANCH   3  24
HETATM   24  N   UNL     1      27.293  41.336  51.460  1.00  0.00    -0.323 N 
HETATM   25  C   UNL     1      27.852  40.931  50.256  1.00  0.00     0.246 C 
HETATM   26  O   UNL     1      27.750  41.485  49.168  1.00  0.00    -0.271 OA
HETATM   27  H   UNL     1      27.558  40.750  52.239  1.00  0.00     0.169 HD
BRANCH  25  28
HETATM   28  C   UNL     1      28.729  39.685  50.434  1.00  0.00     0.270 C 
BRANCH  28  29
HETATM   29  O   UNL     1      28.254  38.562  49.690  1.00  0.00    -0.387 OA
HETATM   30  C   UNL     1      28.903  37.356  50.090  1.00  0.00     0.202 C 
ENDBRANCH  28  29
ENDBRANCH  25  28
ENDBRANCH   3  24
BRANCH   8  31
HETATM   31  C   UNL     1      28.676  42.759  54.055  1.00  0.00     0.134 C 
BRANCH  31  32
HETATM   32  C   UNL     1      29.845  43.746  54.103  1.00  0.00     0.058 C 
BRANCH  32  33
HETATM   33  C   UNL     1      30.304  44.097  55.499  1.00  0.00    -0.057 A 
HETATM   34  C   UNL     1      29.919  45.286  56.132  1.00  0.00     0.007 A 
HETATM   35  C   UNL     1      30.372  45.583  57.421  1.00  0.00     0.001 A 
HETATM   36  C   UNL     1      31.229  44.707  58.083  1.00  0.00     0.000 A 
HETATM   37  C   UNL     1      31.640  43.534  57.456  1.00  0.00     0.001 A 
HETATM   38  C   UNL     1      31.183  43.233  56.172  1.00  0.00     0.007 A 
ENDBRANCH  32  33
ENDBRANCH  31  32
ENDBRANCH   8  31
TORSDOF 9
ENDMDL
MODEL 5
REMARK VINA RESULT:      -9.7      4.057      8.616
REMARK  9 active torsions:
REMARK  status: ('A' for Active; 'I' for Inactive)
REMARK       I    between atoms: N_2  and  C_3 
REMARK    1  A    between atoms: N_2  and  C_28 
REMARK    2  A    between atoms: C_3  and  C_4 
REMARK    3  A    between atoms: C_6  and  N_7 
REMARK       I    between atoms: N_7  and  C_8 
REMARK    4  A    between atoms: C_8  and  C_9 
REMARK    5  A    between atoms: C_9  and  O_10 
REMARK    6  A    between atoms: N_17  and  C_18 
REMARK    7  A    between atoms: C_18  and  C_19 
REMARK    8  A    between atoms: C_19  and  C_20 
REMARK    9  A    between atoms: C_28  and  C_29 
ROOT
HETATM    1  C   UNL     1      25.367  41.893  49.975  1.00  0.00     0.036 A 
HETATM    2  C   UNL     1      25.327  43.170  50.550  1.00  0.00     0.049 A 
HETATM    3  C   UNL     1      26.281  43.597  51.492  1.00  0.00     0.065 A 
HETATM    4  C   UNL     1      27.265  42.651  51.862  1.00  0.00     0.091 A 
HETATM    5  C   UNL     1      27.319  41.380  51.270  1.00  0.00     0.088 A 
HETATM    6  N   UNL     1      28.351  40.627  51.764  1.00  0.00    -0.242 NA
HETATM    7  C   UNL     1      28.924  41.387  52.660  1.00  0.00     0.210 A 
HETATM    8  N   UNL     1      28.321  42.615  52.753  1.00  0.00    -0.337 N 
HETATM    9  C   UNL     1      26.391  41.005  50.293  1.00  0.00     0.051 A 
ENDROOT
BRANCH   1  10
HETATM   10  C   UNL     1      24.370  41.557  48.931  1.00  0.00     0.253 C 
HETATM   11  N   UNL     1      24.784  41.280  47.622  1.00  0.00    -0.350 N 
HETATM   12  C   UNL     1      23.745  41.126  46.614  1.00  0.00     0.153 C 
HETATM   13  O   UNL     1      23.190  41.552  49.282  1.00  0.00    -0.267 OA
BRANCH  11  14
HETATM   14  C   UNL     1      26.196  41.227  47.189  1.00  0.00     0.158 C 
BRANCH  14  15
HETATM   15  C   UNL     1      26.784  39.834  46.882  1.00  0.00     0.151 A 
HETATM   16  O   UNL     1      26.118  38.837  47.704  1.00  0.00    -0.343 OA
HETATM   17  C   UNL     1      27.098  38.314  48.502  1.00  0.00     0.075 A 
HETATM   18  C   UNL     1      28.361  38.818  48.255  1.00  0.00    -0.022 A 
HETATM   19  C   UNL     1      26.874  37.358  49.472  1.00  0.00     0.037 A 
HETATM   20  C   UNL     1      28.303  39.797  47.152  1.00  0.00     0.075 A 
HETATM   21  C   UNL     1      29.457  38.378  48.976  1.00  0.00     0.010 A 
HETATM   22  C   UNL     1      29.254  37.412  49.964  1.00  0.00     0.001 A 
HETATM   23  C   UNL     1      27.969  36.904  50.211  1.00  0.00     0.003 A 
ENDBRANCH  14  15
ENDBRANCH  11  14
ENDBRANCH   1  10
BRANCH   3  24
HETATM   24  N   UNL     1      26.291  44.906  52.006  1.00  0.00    -0.323 N 
HETATM   25  C   UNL     1      25.554  45.418  53.064  1.00  0.00     0.246 C 
HETATM   26  O   UNL     1      24.844  44.794  53.844  1.00  0.00    -0.271 OA
HETATM   27  H   UNL     1      26.846  45.605  51.533  1.00  0.00     0.169 HD
BRANCH  25  28
HETATM   28  C   UNL     1      25.780  46.926  53.229  1.00  0.00     0.270 C 
BRANCH  28  29
HETATM   29  O   UNL     1      25.756  47.344  54.596  1.00  0.00    -0.387 OA
HETATM   30  C   UNL     1      27.072  47.432  55.141  1.00  0.00     0.202 C 
ENDBRANCH  28  29
ENDBRANCH  25  28
ENDBRANCH   3  24
BRANCH   8  31
HETATM   31  C   UNL     1      28.779  43.624  53.691  1.00  0.00     0.134 C 
BRANCH  31  32
HETATM   32  C   UNL     1      30.153  43.277  54.269  1.00  0.00     0.058 C 
BRANCH  32  33
HETATM   33  C   UNL     1      30.444  43.914  55.607  1.00  0.00    -0.057 A 
HETATM   34  C   UNL     1      31.341  43.347  56.523  1.00  0.00     0.007 A 
HETATM   35  C   UNL     1      31.577  43.959  57.757  1.00  0.00     0.001 A 
HETATM   36  C   UNL     1      30.908  45.132  58.099  1.00  0.00     0.000 A 
HETATM   37  C   UNL     1      29.995  45.693  57.209  1.00  0.00     0.001 A 
HETATM   38  C   UNL     1      29.763  45.087  55.973  1.00  0.00     0.007 A 
ENDBRANCH  32  33
ENDBRANCH  31  32
ENDBRANCH   8  31
TORSDOF 9
ENDMDL
MODEL 6
REMARK VINA RESULT:      -9.7      2.797      4.658
REMARK  9 active torsions:
REMARK  status: ('A' for Active; 'I' for Inactive)
REMARK       I    between atoms: N_2  and  C_3 
REMARK    1  A    between atoms: N_2  and  C_28 
REMARK    2  A    between atoms: C_3  and  C_4 
REMARK    3  A    between atoms: C_6  and  N_7 
REMARK       I    between atoms: N_7  and  C_8 
REMARK    4  A    between atoms: C_8  and  C_9 
REMARK    5  A    between atoms: C_9  and  O_10 
REMARK    6  A    between atoms: N_17  and  C_18 
REMARK    7  A    between atoms: C_18  and  C_19 
REMARK    8  A    between atoms: C_19  and  C_20 
REMARK    9  A    between atoms: C_28  and  C_29 
ROOT
HETATM    1  C   UNL     1      25.371  46.014  49.726  1.00  0.00     0.036 A 
HETATM    2  C   UNL     1      24.226  45.373  49.238  1.00  0.00     0.049 A 
HETATM    3  C   UNL     1      23.075  46.086  48.852  1.00  0.00     0.065 A 
HETATM    4  C   UNL     1      23.120  47.489  49.023  1.00  0.00     0.091 A 
HETATM    5  C   UNL     1      24.275  48.134  49.492  1.00  0.00     0.088 A 
HETATM    6  N   UNL     1      24.108  49.491  49.575  1.00  0.00    -0.242 NA
HETATM    7  C   UNL     1      22.876  49.703  49.192  1.00  0.00     0.210 A 
HETATM    8  N   UNL     1      22.242  48.539  48.839  1.00  0.00    -0.337 N 
HETATM    9  C   UNL     1      25.424  47.403  49.812  1.00  0.00     0.051 A 
ENDROOT
BRANCH   1  10
HETATM   10  C   UNL     1      26.565  45.190  50.032  1.00  0.00     0.253 C 
HETATM   11  N   UNL     1      26.505  44.200  51.021  1.00  0.00    -0.350 N 
HETATM   12  C   UNL     1      27.755  43.548  51.385  1.00  0.00     0.153 C 
HETATM   13  O   UNL     1      27.583  45.439  49.385  1.00  0.00    -0.267 OA
BRANCH  11  14
HETATM   14  C   UNL     1      25.283  43.846  51.771  1.00  0.00     0.158 C 
BRANCH  14  15
HETATM   15  C   UNL     1      25.111  44.476  53.169  1.00  0.00     0.151 A 
HETATM   16  O   UNL     1      25.271  45.917  53.074  1.00  0.00    -0.343 OA
HETATM   17  C   UNL     1      26.369  46.210  53.835  1.00  0.00     0.075 A 
HETATM   18  C   UNL     1      26.922  45.117  54.477  1.00  0.00    -0.022 A 
HETATM   19  C   UNL     1      26.896  47.477  53.973  1.00  0.00     0.037 A 
HETATM   20  C   UNL     1      26.139  43.905  54.169  1.00  0.00     0.075 A 
HETATM   21  C   UNL     1      28.032  45.257  55.292  1.00  0.00     0.010 A 
HETATM   22  C   UNL     1      28.583  46.531  55.446  1.00  0.00     0.001 A 
HETATM   23  C   UNL     1      28.017  47.636  54.791  1.00  0.00     0.003 A 
ENDBRANCH  14  15
ENDBRANCH  11  14
ENDBRANCH   1  10
BRANCH   3  24
HETATM   24  N   UNL     1      21.958  45.451  48.282  1.00  0.00    -0.323 N 
HETATM   25  C   UNL     1      21.561  45.441  46.953  1.00  0.00     0.246 C 
HETATM   26  O   UNL     1      22.183  45.877  45.990  1.00  0.00    -0.271 OA
HETATM   27  H   UNL     1      21.304  44.986  48.896  1.00  0.00     0.169 HD
BRANCH  25  28
HETATM   28  C   UNL     1      20.219  44.721  46.771  1.00  0.00     0.270 C 
BRANCH  28  29
HETATM   29  O   UNL     1      20.291  43.328  47.082  1.00  0.00    -0.387 OA
HETATM   30  C   UNL     1      21.025  42.607  46.094  1.00  0.00     0.202 C 
ENDBRANCH  28  29
ENDBRANCH  25  28
ENDBRANCH   3  24
BRANCH   8  31
HETATM   31  C   UNL     1      20.860  48.526  48.391  1.00  0.00     0.134 C 
BRANCH  31  32
HETATM   32  C   UNL     1      19.897  48.913  49.516  1.00  0.00     0.058 C 
BRANCH  32  33
HETATM   33  C   UNL     1      19.217  50.248  49.321  1.00  0.00    -0.057 A 
HETATM   34  C   UNL     1      19.767  51.253  48.515  1.00  0.00     0.007 A 
HETATM   35  C   UNL     1      19.114  52.480  48.365  1.00  0.00     0.001 A 
HETATM   36  C   UNL     1      17.917  52.724  49.034  1.00  0.00     0.000 A 
HETATM   37  C   UNL     1      17.371  51.743  49.858  1.00  0.00     0.001 A 
HETATM   38  C   UNL     1      18.018  50.515  50.003  1.00  0.00     0.007 A 
ENDBRANCH  32  33
ENDBRANCH  31  32
ENDBRANCH   8  31
TORSDOF 9
ENDMDL
MODEL 7
REMARK VINA RESULT:      -9.6      2.165      8.901
REMARK  9 active torsions:
REMARK  status: ('A' for Active; 'I' for Inactive)
REMARK       I    between atoms: N_2  and  C_3 
REMARK    1  A    between atoms: N_2  and  C_28 
REMARK    2  A    between atoms: C_3  and  C_4 
REMARK    3  A    between atoms: C_6  and  N_7 
REMARK       I    between atoms: N_7  and  C_8 
REMARK    4  A    between atoms: C_8  and  C_9 
REMARK    5  A    between atoms: C_9  and  O_10 
REMARK    6  A    between atoms: N_17  and  C_18 
REMARK    7  A    between atoms: C_18  and  C_19 
REMARK    8  A    between atoms: C_19  and  C_20 
REMARK    9  A    between atoms: C_28  and  C_29 
ROOT
HETATM    1  C   UNL     1      24.565  43.079  50.252  1.00  0.00     0.036 A 
HETATM    2  C   UNL     1      24.728  44.235  51.025  1.00  0.00     0.049 A 
HETATM    3  C   UNL     1      25.877  44.458  51.807  1.00  0.00     0.065 A 
HETATM    4  C   UNL     1      26.846  43.428  51.806  1.00  0.00     0.091 A 
HETATM    5  C   UNL     1      26.693  42.279  51.015  1.00  0.00     0.088 A 
HETATM    6  N   UNL     1      27.748  41.415  51.155  1.00  0.00    -0.242 NA
HETATM    7  C   UNL     1      28.538  41.987  52.026  1.00  0.00     0.210 A 
HETATM    8  N   UNL     1      28.051  43.200  52.442  1.00  0.00    -0.337 N 
HETATM    9  C   UNL     1      25.568  42.113  50.202  1.00  0.00     0.051 A 
ENDROOT
BRANCH   1  10
HETATM   10  C   UNL     1      23.361  42.966  49.395  1.00  0.00     0.253 C 
HETATM   11  N   UNL     1      22.976  44.033  48.575  1.00  0.00    -0.350 N 
HETATM   12  C   UNL     1      21.695  43.918  47.892  1.00  0.00     0.153 C 
HETATM   13  O   UNL     1      22.737  41.906  49.465  1.00  0.00    -0.267 OA
BRANCH  11  14
HETATM   14  C   UNL     1      23.737  45.291  48.433  1.00  0.00     0.158 C 
BRANCH  14  15
HETATM   15  C   UNL     1      23.322  46.469  49.340  1.00  0.00     0.151 A 
HETATM   16  O   UNL     1      22.163  47.133  48.768  1.00  0.00    -0.343 OA
HETATM   17  C   UNL     1      22.581  48.403  48.479  1.00  0.00     0.075 A 
HETATM   18  C   UNL     1      23.884  48.671  48.855  1.00  0.00    -0.022 A 
HETATM   19  C   UNL     1      21.788  49.356  47.872  1.00  0.00     0.037 A 
HETATM   20  C   UNL     1      24.474  47.483  49.500  1.00  0.00     0.075 A 
HETATM   21  C   UNL     1      24.446  49.917  48.636  1.00  0.00     0.010 A 
HETATM   22  C   UNL     1      23.662  50.897  48.022  1.00  0.00     0.001 A 
HETATM   23  C   UNL     1      22.340  50.618  47.643  1.00  0.00     0.003 A 
ENDBRANCH  14  15
ENDBRANCH  11  14
ENDBRANCH   1  10
BRANCH   3  24
HETATM   24  N   UNL     1      26.079  45.655  52.516  1.00  0.00    -0.323 N 
HETATM   25  C   UNL     1      25.665  45.972  53.802  1.00  0.00     0.246 C 
HETATM   26  O   UNL     1      25.153  45.220  54.623  1.00  0.00    -0.271 OA
HETATM   27  H   UNL     1      26.523  46.427  52.040  1.00  0.00     0.169 HD
BRANCH  25  28
HETATM   28  C   UNL     1      25.995  47.427  54.157  1.00  0.00     0.270 C 
BRANCH  28  29
HETATM   29  O   UNL     1      26.005  47.666  55.566  1.00  0.00    -0.387 OA
HETATM   30  C   UNL     1      26.342  49.019  55.866  1.00  0.00     0.202 C 
ENDBRANCH  28  29
ENDBRANCH  25  28
ENDBRANCH   3  24
BRANCH   8  31
HETATM   31  C   UNL     1      28.755  44.013  53.418  1.00  0.00     0.134 C 
BRANCH  31  32
HETATM   32  C   UNL     1      29.865  43.224  54.116  1.00  0.00     0.058 C 
BRANCH  32  33
HETATM   33  C   UNL     1      30.281  43.786  55.455  1.00  0.00    -0.057 A 
HETATM   34  C   UNL     1      29.816  45.025  55.919  1.00  0.00     0.007 A 
HETATM   35  C   UNL     1      30.230  45.519  57.160  1.00  0.00     0.001 A 
HETATM   36  C   UNL     1      31.126  44.793  57.941  1.00  0.00     0.000 A 
HETATM   37  C   UNL     1      31.615  43.572  57.481  1.00  0.00     0.001 A 
HETATM   38  C   UNL     1      31.197  43.074  56.246  1.00  0.00     0.007 A 
ENDBRANCH  32  33
ENDBRANCH  31  32
ENDBRANCH   8  31
TORSDOF 9
ENDMDL
MODEL 8
REMARK VINA RESULT:      -9.6      3.177      8.167
REMARK  9 active torsions:
REMARK  status: ('A' for Active; 'I' for Inactive)
REMARK       I    between atoms: N_2  and  C_3 
REMARK    1  A    between atoms: N_2  and  C_28 
REMARK    2  A    between atoms: C_3  and  C_4 
REMARK    3  A    between atoms: C_6  and  N_7 
REMARK       I    between atoms: N_7  and  C_8 
REMARK    4  A    between atoms: C_8  and  C_9 
REMARK    5  A    between atoms: C_9  and  O_10 
REMARK    6  A    between atoms: N_17  and  C_18 
REMARK    7  A    between atoms: C_18  and  C_19 
REMARK    8  A    between atoms: C_19  and  C_20 
REMARK    9  A    between atoms: C_28  and  C_29 
ROOT
HETATM    1  C   UNL     1      24.475  41.742  49.078  1.00  0.00     0.036 A 
HETATM    2  C   UNL     1      24.449  43.122  49.319  1.00  0.00     0.049 A 
HETATM    3  C   UNL     1      25.351  43.746  50.201  1.00  0.00     0.065 A 
HETATM    4  C   UNL     1      26.265  42.897  50.868  1.00  0.00     0.091 A 
HETATM    5  C   UNL     1      26.305  41.518  50.611  1.00  0.00     0.088 A 
HETATM    6  N   UNL     1      27.266  40.885  51.355  1.00  0.00    -0.242 NA
HETATM    7  C   UNL     1      27.806  41.830  52.081  1.00  0.00     0.210 A 
HETATM    8  N   UNL     1      27.251  43.057  51.821  1.00  0.00    -0.337 N 
HETATM    9  C   UNL     1      25.435  40.935  49.685  1.00  0.00     0.051 A 
ENDROOT
BRANCH   1  10
HETATM   10  C   UNL     1      23.541  41.182  48.073  1.00  0.00     0.253 C 
HETATM   11  N   UNL     1      23.994  40.873  46.784  1.00  0.00    -0.350 N 
HETATM   12  C   UNL     1      22.991  40.489  45.801  1.00  0.00     0.153 C 
HETATM   13  O   UNL     1      22.374  41.027  48.435  1.00  0.00    -0.267 OA
BRANCH  11  14
HETATM   14  C   UNL     1      25.398  40.999  46.343  1.00  0.00     0.158 C 
BRANCH  14  15
HETATM   15  C   UNL     1      26.194  39.692  46.152  1.00  0.00     0.151 A 
HETATM   16  O   UNL     1      25.645  38.661  47.017  1.00  0.00    -0.343 OA
HETATM   17  C   UNL     1      26.654  38.339  47.882  1.00  0.00     0.075 A 
HETATM   18  C   UNL     1      27.841  39.008  47.643  1.00  0.00    -0.022 A 
HETATM   19  C   UNL     1      26.529  37.424  48.907  1.00  0.00     0.037 A 
HETATM   20  C   UNL     1      27.690  39.896  46.475  1.00  0.00     0.075 A 
HETATM   21  C   UNL     1      28.957  38.780  48.430  1.00  0.00     0.010 A 
HETATM   22  C   UNL     1      28.853  37.859  49.474  1.00  0.00     0.001 A 
HETATM   23  C   UNL     1      27.645  37.184  49.711  1.00  0.00     0.003 A 
ENDBRANCH  14  15
ENDBRANCH  11  14
ENDBRANCH   1  10
BRANCH   3  24
HETATM   24  N   UNL     1      25.381  45.140  50.378  1.00  0.00    -0.323 N 
HETATM   25  C   UNL     1      26.347  46.039  49.951  1.00  0.00     0.246 C 
HETATM   26  O   UNL     1      27.303  45.808  49.219  1.00  0.00    -0.271 OA
HETATM   27  H   UNL     1      24.655  45.570  50.934  1.00  0.00     0.169 HD
BRANCH  25  28
HETATM   28  C   UNL     1      26.053  47.460  50.448  1.00  0.00     0.270 C 
BRANCH  28  29
HETATM   29  O   UNL     1      24.658  47.701  50.642  1.00  0.00    -0.387 OA
HETATM   30  C   UNL     1      24.053  48.254  49.474  1.00  0.00     0.202 C 
ENDBRANCH  28  29
ENDBRANCH  25  28
ENDBRANCH   3  24
BRANCH   8  31
HETATM   31  C   UNL     1      27.685  44.255  52.518  1.00  0.00     0.134 C 
BRANCH  31  32
HETATM   32  C   UNL     1      27.513  44.122  54.033  1.00  0.00     0.058 C 
BRANCH  32  33
HETATM   33  C   UNL     1      28.802  44.212  54.815  1.00  0.00    -0.057 A 
HETATM   34  C   UNL     1      29.729  43.161  54.846  1.00  0.00     0.007 A 
HETATM   35  C   UNL     1      30.907  43.276  55.589  1.00  0.00     0.001 A 
HETATM   36  C   UNL     1      31.164  44.431  56.325  1.00  0.00     0.000 A 
HETATM   37  C   UNL     1      30.240  45.473  56.323  1.00  0.00     0.001 A 
HETATM   38  C   UNL     1      29.067  45.363  55.576  1.00  0.00     0.007 A 
ENDBRANCH  32  33
ENDBRANCH  31  32
ENDBRANCH   8  31
TORSDOF 9
ENDMDL
MODEL 9
REMARK VINA RESULT:      -9.5      2.421      9.122
REMARK  9 active torsions:
REMARK  status: ('A' for Active; 'I' for Inactive)
REMARK       I    between atoms: N_2  and  C_3 
REMARK    1  A    between atoms: N_2  and  C_28 
REMARK    2  A    between atoms: C_3  and  C_4 
REMARK    3  A    between atoms: C_6  and  N_7 
REMARK       I    between atoms: N_7  and  C_8 
REMARK    4  A    between atoms: C_8  and  C_9 
REMARK    5  A    between atoms: C_9  and  O_10 
REMARK    6  A    between atoms: N_17  and  C_18 
REMARK    7  A    between atoms: C_18  and  C_19 
REMARK    8  A    between atoms: C_19  and  C_20 
REMARK    9  A    between atoms: C_28  and  C_29 
ROOT
HETATM    1  C   UNL     1      22.697  44.639  48.910  1.00  0.00     0.036 A 
HETATM    2  C   UNL     1      23.446  45.822  48.913  1.00  0.00     0.049 A 
HETATM    3  C   UNL     1      24.462  46.064  49.857  1.00  0.00     0.065 A 
HETATM    4  C   UNL     1      24.661  45.061  50.835  1.00  0.00     0.091 A 
HETATM    5  C   UNL     1      23.925  43.866  50.819  1.00  0.00     0.088 A 
HETATM    6  N   UNL     1      24.280  43.031  51.846  1.00  0.00    -0.242 NA
HETATM    7  C   UNL     1      25.199  43.684  52.509  1.00  0.00     0.210 A 
HETATM    8  N   UNL     1      25.473  44.902  51.941  1.00  0.00    -0.337 N 
HETATM    9  C   UNL     1      22.963  43.629  49.833  1.00  0.00     0.051 A 
ENDROOT
BRANCH   1  10
HETATM   10  C   UNL     1      21.703  44.435  47.830  1.00  0.00     0.253 C 
HETATM   11  N   UNL     1      20.575  45.260  47.745  1.00  0.00    -0.350 N 
HETATM   12  C   UNL     1      19.558  44.897  46.767  1.00  0.00     0.153 C 
HETATM   13  O   UNL     1      21.927  43.512  47.046  1.00  0.00    -0.267 OA
BRANCH  11  14
HETATM   14  C   UNL     1      20.312  46.406  48.639  1.00  0.00     0.158 C 
BRANCH  14  15
HETATM   15  C   UNL     1      19.209  47.395  48.207  1.00  0.00     0.151 A 
HETATM   16  O   UNL     1      19.802  48.474  47.436  1.00  0.00    -0.343 OA
HETATM   17  C   UNL     1      19.573  49.608  48.165  1.00  0.00     0.075 A 
HETATM   18  C   UNL     1      18.833  49.403  49.315  1.00  0.00    -0.022 A 
HETATM   19  C   UNL     1      20.021  50.862  47.803  1.00  0.00     0.037 A 
HETATM   20  C   UNL     1      18.471  47.977  49.431  1.00  0.00     0.075 A 
HETATM   21  C   UNL     1      18.511  50.457  50.152  1.00  0.00     0.010 A 
HETATM   22  C   UNL     1      18.956  51.736  49.806  1.00  0.00     0.001 A 
HETATM   23  C   UNL     1      19.706  51.937  48.637  1.00  0.00     0.003 A 
ENDBRANCH  14  15
ENDBRANCH  11  14
ENDBRANCH   1  10
BRANCH   3  24
HETATM   24  N   UNL     1      25.271  47.212  49.809  1.00  0.00    -0.323 N 
HETATM   25  C   UNL     1      26.625  47.298  49.521  1.00  0.00     0.246 C 
HETATM   26  O   UNL     1      27.356  46.398  49.123  1.00  0.00    -0.271 OA
HETATM   27  H   UNL     1      24.863  48.099  50.072  1.00  0.00     0.169 HD
BRANCH  25  28
HETATM   28  C   UNL     1      27.146  48.731  49.684  1.00  0.00     0.270 C 
BRANCH  28  29
HETATM   29  O   UNL     1      27.288  49.415  48.438  1.00  0.00    -0.387 OA
HETATM   30  C   UNL     1      26.074  50.060  48.053  1.00  0.00     0.202 C 
ENDBRANCH  28  29
ENDBRANCH  25  28
ENDBRANCH   3  24
BRANCH   8  31
HETATM   31  C   UNL     1      26.453  45.810  52.512  1.00  0.00     0.134 C 
BRANCH  31  32
HETATM   32  C   UNL     1      26.503  45.701  54.038  1.00  0.00     0.058 C 
BRANCH  32  33
HETATM   33  C   UNL     1      27.845  45.280  54.587  1.00  0.00    -0.057 A 
HETATM   34  C   UNL     1      28.453  44.070  54.224  1.00  0.00     0.007 A 
HETATM   35  C   UNL     1      29.692  43.709  54.761  1.00  0.00     0.001 A 
HETATM   36  C   UNL     1      30.329  44.540  55.680  1.00  0.00     0.000 A 
HETATM   37  C   UNL     1      29.725  45.733  56.069  1.00  0.00     0.001 A 
HETATM   38  C   UNL     1      28.491  46.099  55.528  1.00  0.00     0.007 A 
ENDBRANCH  32  33
ENDBRANCH  31  32
ENDBRANCH   8  31
TORSDOF 9
ENDMDL
MODEL 10
REMARK VINA RESULT:      -9.4      2.458      4.012
REMARK  9 active torsions:
REMARK  status: ('A' for Active; 'I' for Inactive)
REMARK       I    between atoms: N_2  and  C_3 
REMARK    1  A    between atoms: N_2  and  C_28 
REMARK    2  A    between atoms: C_3  and  C_4 
REMARK    3  A    between atoms: C_6  and  N_7 
REMARK       I    between atoms: N_7  and  C_8 
REMARK    4  A    between atoms: C_8  and  C_9 
REMARK    5  A    between atoms: C_9  and  O_10 
REMARK    6  A    between atoms: N_17  and  C_18 
REMARK    7  A    between atoms: C_18  and  C_19 
REMARK    8  A    between atoms: C_19  and  C_20 
REMARK    9  A    between atoms: C_28  and  C_29 
ROOT
HETATM    1  C   UNL     1      25.623  43.530  50.207  1.00  0.00     0.036 A 
HETATM    2  C   UNL     1      24.228  43.582  50.090  1.00  0.00     0.049 A 
HETATM    3  C   UNL     1      23.547  44.773  49.780  1.00  0.00     0.065 A 
HETATM    4  C   UNL     1      24.345  45.932  49.632  1.00  0.00     0.091 A 
HETATM    5  C   UNL     1      25.743  45.876  49.728  1.00  0.00     0.088 A 
HETATM    6  N   UNL     1      26.320  47.105  49.545  1.00  0.00    -0.242 NA
HETATM    7  C   UNL     1      25.318  47.924  49.360  1.00  0.00     0.210 A 
HETATM    8  N   UNL     1      24.111  47.272  49.392  1.00  0.00    -0.337 N 
HETATM    9  C   UNL     1      26.397  44.665  49.980  1.00  0.00     0.051 A 
ENDROOT
BRANCH   1  10
HETATM   10  C   UNL     1      26.262  42.215  50.457  1.00  0.00     0.253 C 
HETATM   11  N   UNL     1      27.409  42.129  51.255  1.00  0.00    -0.350 N 
HETATM   12  C   UNL     1      28.080  40.838  51.319  1.00  0.00     0.153 C 
HETATM   13  O   UNL     1      25.737  41.240  49.920  1.00  0.00    -0.267 OA
BRANCH  11  14
HETATM   14  C   UNL     1      28.026  43.276  51.954  1.00  0.00     0.158 C 
BRANCH  14  15
HETATM   15  C   UNL     1      27.544  43.564  53.390  1.00  0.00     0.151 A 
HETATM   16  O   UNL     1      26.342  44.379  53.342  1.00  0.00    -0.343 OA
HETATM   17  C   UNL     1      26.676  45.555  53.955  1.00  0.00     0.075 A 
HETATM   18  C   UNL     1      27.962  45.584  54.462  1.00  0.00    -0.022 A 
HETATM   19  C   UNL     1      25.821  46.631  54.079  1.00  0.00     0.037 A 
HETATM   20  C   UNL     1      28.631  44.293  54.208  1.00  0.00     0.075 A 
HETATM   21  C   UNL     1      28.443  46.703  55.119  1.00  0.00     0.010 A 
HETATM   22  C   UNL     1      27.595  47.805  55.256  1.00  0.00     0.001 A 
HETATM   23  C   UNL     1      26.291  47.769  54.739  1.00  0.00     0.003 A 
ENDBRANCH  14  15
ENDBRANCH  11  14
ENDBRANCH   1  10
BRANCH   3  24
HETATM   24  N   UNL     1      22.156  44.809  49.578  1.00  0.00    -0.323 N 
HETATM   25  C   UNL     1      21.462  44.814  48.377  1.00  0.00     0.246 C 
HETATM   26  O   UNL     1      21.925  44.655  47.253  1.00  0.00    -0.271 OA
HETATM   27  H   UNL     1      21.555  44.907  50.385  1.00  0.00     0.169 HD
BRANCH  25  28
HETATM   28  C   UNL     1      19.953  44.971  48.599  1.00  0.00     0.270 C 
BRANCH  28  29
HETATM   29  O   UNL     1      19.175  44.154  47.722  1.00  0.00    -0.387 OA
HETATM   30  C   UNL     1      18.397  44.943  46.823  1.00  0.00     0.202 C 
ENDBRANCH  28  29
ENDBRANCH  25  28
ENDBRANCH   3  24
BRANCH   8  31
HETATM   31  C   UNL     1      22.855  47.981  49.221  1.00  0.00     0.134 C 
BRANCH  31  32
HETATM   32  C   UNL     1      23.052  49.498  49.250  1.00  0.00     0.058 C 
BRANCH  32  33
HETATM   33  C   UNL     1      21.780  50.294  49.079  1.00  0.00    -0.057 A 
HETATM   34  C   UNL     1      21.090  50.840  50.170  1.00  0.00     0.007 A 
HETATM   35  C   UNL     1      19.909  51.562  49.974  1.00  0.00     0.001 A 
HETATM   36  C   UNL     1      19.394  51.731  48.691  1.00  0.00     0.000 A 
HETATM   37  C   UNL     1      20.056  51.174  47.600  1.00  0.00     0.001 A 
HETATM   38  C   UNL     1      21.239  50.458  47.793  1.00  0.00     0.007 A 
ENDBRANCH  32  33
ENDBRANCH  31  32
ENDBRANCH   8  31
TORSDOF 9
ENDMDL
