MODEL 1
REMARK VINA RESULT:      -9.4      0.000      0.000
REMARK  6 active torsions:
REMARK  status: ('A' for Active; 'I' for Inactive)
REMARK    1  A    between atoms: C_6  and  C_7 
REMARK    2  A    between atoms: N_9  and  C_10 
REMARK    3  A    between atoms: C_10  and  C_11 
REMARK    4  A    between atoms: C_18  and  C_19 
REMARK       I    between atoms: C_19  and  N_20 
REMARK    5  A    between atoms: N_20  and  C_21 
REMARK    6  A    between atoms: C_24  and  O_25 
ROOT
HETATM    1  C   UNL     1      25.962  45.493  51.408  1.00  0.00     0.104 A 
HETATM    2  N   UNL     1      26.163  45.631  52.731  1.00  0.00    -0.171 NA
HETATM    3  N   UNL     1      26.439  44.387  53.166  1.00  0.00    -0.275 N 
HETATM    4  C   UNL     1      26.445  43.458  52.171  1.00  0.00     0.132 A 
HETATM    5  C   UNL     1      26.080  44.122  51.016  1.00  0.00     0.080 A 
ENDROOT
BRANCH   5   6
HETATM    6  C   UNL     1      25.883  43.480  49.729  1.00  0.00     0.255 C 
HETATM    7  N   UNL     1      26.626  42.334  49.548  1.00  0.00    -0.352 N 
HETATM    8  H   UNL     1      27.278  42.073  50.276  1.00  0.00     0.163 HD
HETATM    9  O   UNL     1      25.146  43.948  48.867  1.00  0.00    -0.268 OA
BRANCH   7  10
HETATM   10  C   UNL     1      26.555  41.525  48.340  1.00  0.00     0.084 C 
HETATM   11  C   UNL     1      27.946  41.207  47.775  1.00  0.00     0.028 C 
HETATM   12  C   UNL     1      28.726  40.225  48.652  1.00  0.00     0.034 C 
HETATM   13  C   UNL     1      27.940  38.950  48.956  1.00  0.00     0.118 C 
HETATM   14  C   UNL     1      26.536  39.242  49.483  1.00  0.00     0.034 C 
HETATM   15  C   UNL     1      25.766  40.235  48.606  1.00  0.00     0.028 C 
BRANCH  13  16
HETATM   16  O   UNL     1      27.858  38.131  47.792  1.00  0.00    -0.396 OA
HETATM   17  H   UNL     1      27.537  38.664  47.047  1.00  0.00     0.210 HD
ENDBRANCH  13  16
ENDBRANCH   7  10
ENDBRANCH   5   6
BRANCH   1  18
HETATM   18  C   UNL     1      25.663  46.668  50.587  1.00  0.00    -0.004 A 
HETATM   19  C   UNL     1      26.680  47.531  50.155  1.00  0.00     0.021 A 
HETATM   20  C   UNL     1      26.402  48.633  49.326  1.00  0.00    -0.055 A 
HETATM   21  C   UNL     1      25.068  48.905  48.966  1.00  0.00    -0.056 A 
HETATM   22  C   UNL     1      27.535  49.517  48.882  1.00  0.00     0.049 C 
HETATM   23  C   UNL     1      24.710  50.077  48.094  1.00  0.00     0.049 C 
HETATM   24  C   UNL     1      24.050  48.049  49.412  1.00  0.00     0.008 A 
HETATM   25  C   UNL     1      24.344  46.945  50.215  1.00  0.00     0.014 A 
ENDBRANCH   1  18
BRANCH   3  26
HETATM   26  C   UNL     1      26.694  44.152  54.583  1.00  0.00     0.189 C 
BRANCH  26  27
HETATM   27  C   UNL     1      28.164  44.244  54.915  1.00  0.00    -0.038 A 
HETATM   28  C   UNL     1      28.668  45.350  55.615  1.00  0.00     0.009 A 
HETATM   29  C   UNL     1      30.025  45.426  55.939  1.00  0.00     0.001 A 
HETATM   30  C   UNL     1      30.892  44.399  55.571  1.00  0.00     0.000 A 
HETATM   31  C   UNL     1      30.403  43.290  54.884  1.00  0.00     0.001 A 
HETATM   32  C   UNL     1      29.047  43.209  54.564  1.00  0.00     0.009 A 
ENDBRANCH  26  27
ENDBRANCH   3  26
TORSDOF 6
ENDMDL
MODEL 2
REMARK VINA RESULT:      -9.4      2.386      7.562
REMARK  6 active torsions:
REMARK  status: ('A' for Active; 'I' for Inactive)
REMARK    1  A    between atoms: C_6  and  C_7 
REMARK    2  A    between atoms: N_9  and  C_10 
REMARK    3  A    between atoms: C_10  and  C_11 
REMARK    4  A    between atoms: C_18  and  C_19 
REMARK       I    between atoms: C_19  and  N_20 
REMARK    5  A    between atoms: N_20  and  C_21 
REMARK    6  A    between atoms: C_24  and  O_25 
ROOT
HETATM    1  C   UNL     1      28.617  42.636  53.401  1.00  0.00     0.104 A 
HETATM    2  N   UNL     1      29.307  41.584  52.925  1.00  0.00    -0.171 NA
HETATM    3  N   UNL     1      28.534  41.085  51.942  1.00  0.00    -0.275 N 
HETATM    4  C   UNL     1      27.384  41.789  51.752  1.00  0.00     0.132 A 
HETATM    5  C   UNL     1      27.365  42.774  52.721  1.00  0.00     0.080 A 
ENDROOT
BRANCH   5   6
HETATM    6  C   UNL     1      26.267  43.700  52.927  1.00  0.00     0.255 C 
HETATM    7  N   UNL     1      25.999  44.510  51.845  1.00  0.00    -0.352 N 
HETATM    8  H   UNL     1      26.610  44.443  51.041  1.00  0.00     0.163 HD
HETATM    9  O   UNL     1      25.662  43.775  53.991  1.00  0.00    -0.268 OA
BRANCH   7  10
HETATM   10  C   UNL     1      24.922  45.488  51.835  1.00  0.00     0.084 C 
HETATM   11  C   UNL     1      25.404  46.884  52.252  1.00  0.00     0.028 C 
HETATM   12  C   UNL     1      26.303  47.535  51.199  1.00  0.00     0.034 C 
HETATM   13  C   UNL     1      25.666  47.555  49.810  1.00  0.00     0.118 C 
HETATM   14  C   UNL     1      25.142  46.183  49.388  1.00  0.00     0.034 C 
HETATM   15  C   UNL     1      24.253  45.533  50.453  1.00  0.00     0.028 C 
BRANCH  13  16
HETATM   16  O   UNL     1      24.609  48.511  49.764  1.00  0.00    -0.396 OA
HETATM   17  H   UNL     1      24.821  49.192  49.107  1.00  0.00     0.210 HD
ENDBRANCH  13  16
ENDBRANCH   7  10
ENDBRANCH   5   6
BRANCH   1  18
HETATM   18  C   UNL     1      29.179  43.452  54.480  1.00  0.00    -0.004 A 
HETATM   19  C   UNL     1      30.236  42.984  55.271  1.00  0.00     0.021 A 
HETATM   20  C   UNL     1      30.810  43.784  56.276  1.00  0.00    -0.055 A 
HETATM   21  C   UNL     1      30.275  45.062  56.526  1.00  0.00    -0.056 A 
HETATM   22  C   UNL     1      31.952  43.234  57.085  1.00  0.00     0.049 C 
HETATM   23  C   UNL     1      30.838  45.956  57.597  1.00  0.00     0.049 C 
HETATM   24  C   UNL     1      29.206  45.524  55.744  1.00  0.00     0.008 A 
HETATM   25  C   UNL     1      28.663  44.727  54.734  1.00  0.00     0.014 A 
ENDBRANCH   1  18
BRANCH   3  26
HETATM   26  C   UNL     1      28.968  39.904  51.205  1.00  0.00     0.189 C 
BRANCH  26  27
HETATM   27  C   UNL     1      28.272  39.784  49.869  1.00  0.00    -0.038 A 
HETATM   28  C   UNL     1      28.770  40.459  48.746  1.00  0.00     0.009 A 
HETATM   29  C   UNL     1      28.138  40.335  47.506  1.00  0.00     0.001 A 
HETATM   30  C   UNL     1      27.006  39.533  47.374  1.00  0.00     0.000 A 
HETATM   31  C   UNL     1      26.507  38.848  48.481  1.00  0.00     0.001 A 
HETATM   32  C   UNL     1      27.139  38.967  49.719  1.00  0.00     0.009 A 
ENDBRANCH  26  27
ENDBRANCH   3  26
TORSDOF 6
ENDMDL
MODEL 3
REMARK VINA RESULT:      -9.3      1.378      5.973
REMARK  6 active torsions:
REMARK  status: ('A' for Active; 'I' for Inactive)
REMARK    1  A    between atoms: C_6  and  C_7 
REMARK    2  A    between atoms: N_9  and  C_10 
REMARK    3  A    between atoms: C_10  and  C_11 
REMARK    4  A    between atoms: C_18  and  C_19 
REMARK       I    between atoms: C_19  and  N_20 
REMARK    5  A    between atoms: N_20  and  C_21 
REMARK    6  A    between atoms: C_24  and  O_25 
ROOT
HETATM    1  C   UNL     1      27.206  44.334  52.463  1.00  0.00     0.104 A 
HETATM    2  N   UNL     1      26.537  45.486  52.276  1.00  0.00    -0.171 NA
HETATM    3  N   UNL     1      25.638  45.207  51.314  1.00  0.00    -0.275 N 
HETATM    4  C   UNL     1      25.686  43.914  50.891  1.00  0.00     0.132 A 
HETATM    5  C   UNL     1      26.734  43.321  51.570  1.00  0.00     0.080 A 
ENDROOT
BRANCH   5   6
HETATM    6  C   UNL     1      27.185  41.958  51.352  1.00  0.00     0.255 C 
HETATM    7  N   UNL     1      27.418  41.644  50.031  1.00  0.00    -0.352 N 
HETATM    8  H   UNL     1      27.203  42.343  49.333  1.00  0.00     0.163 HD
HETATM    9  O   UNL     1      27.305  41.152  52.268  1.00  0.00    -0.268 OA
BRANCH   7  10
HETATM   10  C   UNL     1      27.900  40.340  49.600  1.00  0.00     0.084 C 
HETATM   11  C   UNL     1      26.752  39.360  49.328  1.00  0.00     0.028 C 
HETATM   12  C   UNL     1      25.953  39.724  48.075  1.00  0.00     0.034 C 
HETATM   13  C   UNL     1      26.837  39.906  46.842  1.00  0.00     0.118 C 
HETATM   14  C   UNL     1      28.011  40.849  47.101  1.00  0.00     0.034 C 
HETATM   15  C   UNL     1      28.799  40.484  48.363  1.00  0.00     0.028 C 
BRANCH  13  16
HETATM   16  O   UNL     1      27.321  38.644  46.390  1.00  0.00    -0.396 OA
HETATM   17  H   UNL     1      27.388  38.655  45.422  1.00  0.00     0.210 HD
ENDBRANCH  13  16
ENDBRANCH   7  10
ENDBRANCH   5   6
BRANCH   1  18
HETATM   18  C   UNL     1      28.260  44.256  53.477  1.00  0.00    -0.004 A 
HETATM   19  C   UNL     1      28.258  45.101  54.595  1.00  0.00     0.021 A 
HETATM   20  C   UNL     1      29.242  44.996  55.594  1.00  0.00    -0.055 A 
HETATM   21  C   UNL     1      30.281  44.057  55.442  1.00  0.00    -0.056 A 
HETATM   22  C   UNL     1      29.182  45.920  56.779  1.00  0.00     0.049 C 
HETATM   23  C   UNL     1      31.367  43.909  56.471  1.00  0.00     0.049 C 
HETATM   24  C   UNL     1      30.289  43.222  54.315  1.00  0.00     0.008 A 
HETATM   25  C   UNL     1      29.292  43.322  53.343  1.00  0.00     0.014 A 
ENDBRANCH   1  18
BRANCH   3  26
HETATM   26  C   UNL     1      24.739  46.251  50.834  1.00  0.00     0.189 C 
BRANCH  26  27
HETATM   27  C   UNL     1      25.472  47.306  50.039  1.00  0.00    -0.038 A 
HETATM   28  C   UNL     1      24.782  48.410  49.518  1.00  0.00     0.009 A 
HETATM   29  C   UNL     1      25.463  49.395  48.798  1.00  0.00     0.001 A 
HETATM   30  C   UNL     1      26.837  49.291  48.595  1.00  0.00     0.000 A 
HETATM   31  C   UNL     1      27.536  48.205  49.116  1.00  0.00     0.001 A 
HETATM   32  C   UNL     1      26.860  47.222  49.840  1.00  0.00     0.009 A 
ENDBRANCH  26  27
ENDBRANCH   3  26
TORSDOF 6
ENDMDL
MODEL 4
REMARK VINA RESULT:      -9.1      3.004      4.936
REMARK  6 active torsions:
REMARK  status: ('A' for Active; 'I' for Inactive)
REMARK    1  A    between atoms: C_6  and  C_7 
REMARK    2  A    between atoms: N_9  and  C_10 
REMARK    3  A    between atoms: C_10  and  C_11 
REMARK    4  A    between atoms: C_18  and  C_19 
REMARK       I    between atoms: C_19  and  N_20 
REMARK    5  A    between atoms: N_20  and  C_21 
REMARK    6  A    between atoms: C_24  and  O_25 
ROOT
HETATM    1  C   UNL     1      25.105  45.858  51.173  1.00  0.00     0.104 A 
HETATM    2  N   UNL     1      25.591  45.825  52.427  1.00  0.00    -0.171 NA
HETATM    3  N   UNL     1      25.231  44.619  52.902  1.00  0.00    -0.275 N 
HETATM    4  C   UNL     1      24.552  43.864  51.995  1.00  0.00     0.132 A 
HETATM    5  C   UNL     1      24.393  44.654  50.872  1.00  0.00     0.080 A 
ENDROOT
BRANCH   5   6
HETATM    6  C   UNL     1      23.646  44.259  49.692  1.00  0.00     0.255 C 
HETATM    7  N   UNL     1      22.435  44.899  49.548  1.00  0.00    -0.352 N 
HETATM    8  H   UNL     1      22.141  45.526  50.285  1.00  0.00     0.163 HD
HETATM    9  O   UNL     1      24.049  43.398  48.917  1.00  0.00    -0.268 OA
BRANCH   7  10
HETATM   10  C   UNL     1      21.545  44.668  48.421  1.00  0.00     0.084 C 
HETATM   11  C   UNL     1      20.114  45.144  48.706  1.00  0.00     0.028 C 
HETATM   12  C   UNL     1      20.002  46.668  48.765  1.00  0.00     0.034 C 
HETATM   13  C   UNL     1      20.583  47.352  47.528  1.00  0.00     0.118 C 
HETATM   14  C   UNL     1      21.994  46.865  47.201  1.00  0.00     0.034 C 
HETATM   15  C   UNL     1      22.100  45.337  47.155  1.00  0.00     0.028 C 
BRANCH  13  16
HETATM   16  O   UNL     1      19.729  47.150  46.405  1.00  0.00    -0.396 OA
HETATM   17  H   UNL     1      20.152  46.530  45.789  1.00  0.00     0.210 HD
ENDBRANCH  13  16
ENDBRANCH   7  10
ENDBRANCH   5   6
BRANCH   1  18
HETATM   18  C   UNL     1      25.338  47.031  50.328  1.00  0.00    -0.004 A 
HETATM   19  C   UNL     1      24.279  47.844  49.904  1.00  0.00     0.021 A 
HETATM   20  C   UNL     1      24.504  48.998  49.132  1.00  0.00    -0.055 A 
HETATM   21  C   UNL     1      25.818  49.314  48.734  1.00  0.00    -0.056 A 
HETATM   22  C   UNL     1      23.330  49.841  48.718  1.00  0.00     0.049 C 
HETATM   23  C   UNL     1      26.117  50.527  47.897  1.00  0.00     0.049 C 
HETATM   24  C   UNL     1      26.875  48.490  49.145  1.00  0.00     0.008 A 
HETATM   25  C   UNL     1      26.638  47.361  49.932  1.00  0.00     0.014 A 
ENDBRANCH   1  18
BRANCH   3  26
HETATM   26  C   UNL     1      25.578  44.242  54.268  1.00  0.00     0.189 C 
BRANCH  26  27
HETATM   27  C   UNL     1      27.063  44.016  54.431  1.00  0.00    -0.038 A 
HETATM   28  C   UNL     1      27.870  44.995  55.027  1.00  0.00     0.009 A 
HETATM   29  C   UNL     1      29.240  44.779  55.195  1.00  0.00     0.001 A 
HETATM   30  C   UNL     1      29.817  43.583  54.774  1.00  0.00     0.000 A 
HETATM   31  C   UNL     1      29.025  42.597  54.190  1.00  0.00     0.001 A 
HETATM   32  C   UNL     1      27.656  42.808  54.025  1.00  0.00     0.009 A 
ENDBRANCH  26  27
ENDBRANCH   3  26
TORSDOF 6
ENDMDL
MODEL 5
REMARK VINA RESULT:      -9.0      2.334      6.543
REMARK  6 active torsions:
REMARK  status: ('A' for Active; 'I' for Inactive)
REMARK    1  A    between atoms: C_6  and  C_7 
REMARK    2  A    between atoms: N_9  and  C_10 
REMARK    3  A    between atoms: C_10  and  C_11 
REMARK    4  A    between atoms: C_18  and  C_19 
REMARK       I    between atoms: C_19  and  N_20 
REMARK    5  A    between atoms: N_20  and  C_21 
REMARK    6  A    between atoms: C_24  and  O_25 
ROOT
HETATM    1  C   UNL     1      25.237  46.373  51.173  1.00  0.00     0.104 A 
HETATM    2  N   UNL     1      25.116  47.600  50.635  1.00  0.00    -0.171 NA
HETATM    3  N   UNL     1      24.269  47.437  49.602  1.00  0.00    -0.275 N 
HETATM    4  C   UNL     1      23.823  46.158  49.468  1.00  0.00     0.132 A 
HETATM    5  C   UNL     1      24.474  45.415  50.435  1.00  0.00     0.080 A 
ENDROOT
BRANCH   5   6
HETATM    6  C   UNL     1      24.347  43.977  50.587  1.00  0.00     0.255 C 
HETATM    7  N   UNL     1      25.231  43.247  49.823  1.00  0.00    -0.352 N 
HETATM    8  H   UNL     1      25.836  43.751  49.188  1.00  0.00     0.163 HD
HETATM    9  O   UNL     1      23.495  43.465  51.306  1.00  0.00    -0.268 OA
BRANCH   7  10
HETATM   10  C   UNL     1      25.288  41.793  49.849  1.00  0.00     0.084 C 
HETATM   11  C   UNL     1      25.695  41.206  48.490  1.00  0.00     0.028 C 
HETATM   12  C   UNL     1      27.161  41.478  48.149  1.00  0.00     0.034 C 
HETATM   13  C   UNL     1      28.118  41.040  49.257  1.00  0.00     0.118 C 
HETATM   14  C   UNL     1      27.710  41.580  50.627  1.00  0.00     0.034 C 
HETATM   15  C   UNL     1      26.238  41.314  50.956  1.00  0.00     0.028 C 
BRANCH  13  16
HETATM   16  O   UNL     1      28.202  39.618  49.304  1.00  0.00    -0.396 OA
HETATM   17  H   UNL     1      29.088  39.358  49.604  1.00  0.00     0.210 HD
ENDBRANCH  13  16
ENDBRANCH   7  10
ENDBRANCH   5   6
BRANCH   1  18
HETATM   18  C   UNL     1      26.075  46.174  52.359  1.00  0.00    -0.004 A 
HETATM   19  C   UNL     1      26.814  44.997  52.537  1.00  0.00     0.021 A 
HETATM   20  C   UNL     1      27.657  44.823  53.650  1.00  0.00    -0.055 A 
HETATM   21  C   UNL     1      27.718  45.830  54.631  1.00  0.00    -0.056 A 
HETATM   22  C   UNL     1      28.437  43.544  53.782  1.00  0.00     0.049 C 
HETATM   23  C   UNL     1      28.591  45.692  55.849  1.00  0.00     0.049 C 
HETATM   24  C   UNL     1      26.966  47.001  54.459  1.00  0.00     0.008 A 
HETATM   25  C   UNL     1      26.152  47.170  53.337  1.00  0.00     0.014 A 
ENDBRANCH   1  18
BRANCH   3  26
HETATM   26  C   UNL     1      23.920  48.577  48.761  1.00  0.00     0.189 C 
BRANCH  26  27
HETATM   27  C   UNL     1      22.575  49.159  49.129  1.00  0.00    -0.038 A 
HETATM   28  C   UNL     1      22.474  50.479  49.590  1.00  0.00     0.009 A 
HETATM   29  C   UNL     1      21.229  51.024  49.913  1.00  0.00     0.001 A 
HETATM   30  C   UNL     1      20.072  50.259  49.776  1.00  0.00     0.000 A 
HETATM   31  C   UNL     1      20.158  48.949  49.309  1.00  0.00     0.001 A 
HETATM   32  C   UNL     1      21.399  48.404  48.981  1.00  0.00     0.009 A 
ENDBRANCH  26  27
ENDBRANCH   3  26
TORSDOF 6
ENDMDL
MODEL 6
REMARK VINA RESULT:      -8.9      2.548      6.592
REMARK  6 active torsions:
REMARK  status: ('A' for Active; 'I' for Inactive)
REMARK    1  A    between atoms: C_6  and  C_7 
REMARK    2  A    between atoms: N_9  and  C_10 
REMARK    3  A    between atoms: C_10  and  C_11 
REMARK    4  A    between atoms: C_18  and  C_19 
REMARK       I    between atoms: C_19  and  N_20 
REMARK    5  A    between atoms: N_20  and  C_21 
REMARK    6  A    between atoms: C_24  and  O_25 
ROOT
HETATM    1  C   UNL     1      24.875  46.318  50.925  1.00  0.00     0.104 A 
HETATM    2  N   UNL     1      24.695  47.541  50.397  1.00  0.00    -0.171 NA
HETATM    3  N   UNL     1      23.836  47.351  49.379  1.00  0.00    -0.275 N 
HETATM    4  C   UNL     1      23.438  46.056  49.246  1.00  0.00     0.132 A 
HETATM    5  C   UNL     1      24.136  45.334  50.195  1.00  0.00     0.080 A 
ENDROOT
BRANCH   5   6
HETATM    6  C   UNL     1      24.069  43.891  50.340  1.00  0.00     0.255 C 
HETATM    7  N   UNL     1      24.977  43.202  49.567  1.00  0.00    -0.352 N 
HETATM    8  H   UNL     1      25.557  43.733  48.931  1.00  0.00     0.163 HD
HETATM    9  O   UNL     1      23.243  43.342  51.061  1.00  0.00    -0.268 OA
BRANCH   7  10
HETATM   10  C   UNL     1      25.093  41.751  49.585  1.00  0.00     0.084 C 
HETATM   11  C   UNL     1      25.678  41.202  48.276  1.00  0.00     0.028 C 
HETATM   12  C   UNL     1      27.160  41.539  48.108  1.00  0.00     0.034 C 
HETATM   13  C   UNL     1      28.002  41.125  49.314  1.00  0.00     0.118 C 
HETATM   14  C   UNL     1      27.417  41.628  50.633  1.00  0.00     0.034 C 
HETATM   15  C   UNL     1      25.930  41.296  50.789  1.00  0.00     0.028 C 
BRANCH  13  16
HETATM   16  O   UNL     1      28.141  39.707  49.356  1.00  0.00    -0.396 OA
HETATM   17  H   UNL     1      28.311  39.429  50.270  1.00  0.00     0.210 HD
ENDBRANCH  13  16
ENDBRANCH   7  10
ENDBRANCH   5   6
BRANCH   1  18
HETATM   18  C   UNL     1      25.743  46.144  52.093  1.00  0.00    -0.004 A 
HETATM   19  C   UNL     1      25.793  47.107  53.111  1.00  0.00     0.021 A 
HETATM   20  C   UNL     1      26.588  46.920  54.256  1.00  0.00    -0.055 A 
HETATM   21  C   UNL     1      27.390  45.767  54.358  1.00  0.00    -0.056 A 
HETATM   22  C   UNL     1      26.592  47.981  55.323  1.00  0.00     0.049 C 
HETATM   23  C   UNL     1      28.270  45.523  55.552  1.00  0.00     0.049 C 
HETATM   24  C   UNL     1      27.350  44.813  53.331  1.00  0.00     0.008 A 
HETATM   25  C   UNL     1      26.538  45.000  52.211  1.00  0.00     0.014 A 
ENDBRANCH   1  18
BRANCH   3  26
HETATM   26  C   UNL     1      23.426  48.481  48.553  1.00  0.00     0.189 C 
BRANCH  26  27
HETATM   27  C   UNL     1      22.177  49.145  49.083  1.00  0.00    -0.038 A 
HETATM   28  C   UNL     1      20.948  48.470  49.059  1.00  0.00     0.009 A 
HETATM   29  C   UNL     1      19.796  49.077  49.566  1.00  0.00     0.001 A 
HETATM   30  C   UNL     1      19.860  50.360  50.105  1.00  0.00     0.000 A 
HETATM   31  C   UNL     1      21.076  51.038  50.145  1.00  0.00     0.001 A 
HETATM   32  C   UNL     1      22.229  50.432  49.644  1.00  0.00     0.009 A 
ENDBRANCH  26  27
ENDBRANCH   3  26
TORSDOF 6
ENDMDL
MODEL 7
REMARK VINA RESULT:      -8.8      5.468      8.544
REMARK  6 active torsions:
REMARK  status: ('A' for Active; 'I' for Inactive)
REMARK    1  A    between atoms: C_6  and  C_7 
REMARK    2  A    between atoms: N_9  and  C_10 
REMARK    3  A    between atoms: C_10  and  C_11 
REMARK    4  A    between atoms: C_18  and  C_19 
REMARK       I    between atoms: C_19  and  N_20 
REMARK    5  A    between atoms: N_20  and  C_21 
REMARK    6  A    between atoms: C_24  and  O_25 
ROOT
HETATM    1  C   UNL     1      21.733  48.765  49.165  1.00  0.00     0.104 A 
HETATM    2  N   UNL     1      22.950  49.170  49.567  1.00  0.00    -0.171 NA
HETATM    3  N   UNL     1      23.776  48.166  49.221  1.00  0.00    -0.275 N 
HETATM    4  C   UNL     1      23.142  47.139  48.591  1.00  0.00     0.132 A 
HETATM    5  C   UNL     1      21.797  47.458  48.585  1.00  0.00     0.080 A 
ENDROOT
BRANCH   5   6
HETATM    6  C   UNL     1      20.751  46.588  48.079  1.00  0.00     0.255 C 
HETATM    7  N   UNL     1      19.632  47.252  47.627  1.00  0.00    -0.352 N 
HETATM    8  H   UNL     1      19.600  48.257  47.738  1.00  0.00     0.163 HD
HETATM    9  O   UNL     1      20.848  45.366  48.094  1.00  0.00    -0.268 OA
BRANCH   7  10
HETATM   10  C   UNL     1      18.481  46.569  47.056  1.00  0.00     0.084 C 
HETATM   11  C   UNL     1      17.458  46.165  48.127  1.00  0.00     0.028 C 
HETATM   12  C   UNL     1      16.726  47.367  48.725  1.00  0.00     0.034 C 
HETATM   13  C   UNL     1      16.096  48.264  47.660  1.00  0.00     0.118 C 
HETATM   14  C   UNL     1      17.085  48.649  46.561  1.00  0.00     0.034 C 
HETATM   15  C   UNL     1      17.823  47.440  45.976  1.00  0.00     0.028 C 
BRANCH  13  16
HETATM   16  O   UNL     1      14.959  47.625  47.085  1.00  0.00    -0.396 OA
HETATM   17  H   UNL     1      14.293  47.474  47.775  1.00  0.00     0.210 HD
ENDBRANCH  13  16
ENDBRANCH   7  10
ENDBRANCH   5   6
BRANCH   1  18
HETATM   18  C   UNL     1      20.571  49.636  49.355  1.00  0.00    -0.004 A 
HETATM   19  C   UNL     1      20.388  50.786  48.575  1.00  0.00     0.021 A 
HETATM   20  C   UNL     1      19.249  51.598  48.722  1.00  0.00    -0.055 A 
HETATM   21  C   UNL     1      18.299  51.278  49.711  1.00  0.00    -0.056 A 
HETATM   22  C   UNL     1      19.099  52.812  47.847  1.00  0.00     0.049 C 
HETATM   23  C   UNL     1      17.069  52.118  49.924  1.00  0.00     0.049 C 
HETATM   24  C   UNL     1      18.491  50.136  50.502  1.00  0.00     0.008 A 
HETATM   25  C   UNL     1      19.615  49.326  50.327  1.00  0.00     0.014 A 
ENDBRANCH   1  18
BRANCH   3  26
HETATM   26  C   UNL     1      25.199  48.255  49.530  1.00  0.00     0.189 C 
BRANCH  26  27
HETATM   27  C   UNL     1      25.680  47.063  50.324  1.00  0.00    -0.038 A 
HETATM   28  C   UNL     1      25.296  46.899  51.663  1.00  0.00     0.009 A 
HETATM   29  C   UNL     1      25.727  45.787  52.392  1.00  0.00     0.001 A 
HETATM   30  C   UNL     1      26.540  44.828  51.793  1.00  0.00     0.000 A 
HETATM   31  C   UNL     1      26.921  44.975  50.461  1.00  0.00     0.001 A 
HETATM   32  C   UNL     1      26.489  46.081  49.728  1.00  0.00     0.009 A 
ENDBRANCH  26  27
ENDBRANCH   3  26
TORSDOF 6
ENDMDL
MODEL 8
REMARK VINA RESULT:      -8.8      2.580      6.671
REMARK  6 active torsions:
REMARK  status: ('A' for Active; 'I' for Inactive)
REMARK    1  A    between atoms: C_6  and  C_7 
REMARK    2  A    between atoms: N_9  and  C_10 
REMARK    3  A    between atoms: C_10  and  C_11 
REMARK    4  A    between atoms: C_18  and  C_19 
REMARK       I    between atoms: C_19  and  N_20 
REMARK    5  A    between atoms: N_20  and  C_21 
REMARK    6  A    between atoms: C_24  and  O_25 
ROOT
HETATM    1  C   UNL     1      25.059  45.246  51.536  1.00  0.00     0.104 A 
HETATM    2  N   UNL     1      25.372  44.961  52.812  1.00  0.00    -0.171 NA
HETATM    3  N   UNL     1      25.798  46.129  53.328  1.00  0.00    -0.275 N 
HETATM    4  C   UNL     1      25.750  47.160  52.440  1.00  0.00     0.132 A 
HETATM    5  C   UNL     1      25.330  46.619  51.239  1.00  0.00     0.080 A 
ENDROOT
BRANCH   5   6
HETATM    6  C   UNL     1      25.222  47.365  49.998  1.00  0.00     0.255 C 
HETATM    7  N   UNL     1      23.970  47.887  49.758  1.00  0.00    -0.352 N 
HETATM    8  H   UNL     1      23.231  47.663  50.412  1.00  0.00     0.163 HD
HETATM    9  O   UNL     1      26.161  47.480  49.218  1.00  0.00    -0.268 OA
BRANCH   7  10
HETATM   10  C   UNL     1      23.657  48.688  48.585  1.00  0.00     0.084 C 
HETATM   11  C   UNL     1      22.308  48.302  47.964  1.00  0.00     0.028 C 
HETATM   12  C   UNL     1      21.120  48.715  48.836  1.00  0.00     0.034 C 
HETATM   13  C   UNL     1      21.155  50.192  49.223  1.00  0.00     0.118 C 
HETATM   14  C   UNL     1      22.504  50.610  49.808  1.00  0.00     0.034 C 
HETATM   15  C   UNL     1      23.688  50.183  48.935  1.00  0.00     0.028 C 
BRANCH  13  16
HETATM   16  O   UNL     1      20.845  51.006  48.095  1.00  0.00    -0.396 OA
HETATM   17  H   UNL     1      20.148  51.637  48.336  1.00  0.00     0.210 HD
ENDBRANCH  13  16
ENDBRANCH   7  10
ENDBRANCH   5   6
BRANCH   1  18
HETATM   18  C   UNL     1      24.522  44.199  50.662  1.00  0.00    -0.004 A 
HETATM   19  C   UNL     1      25.257  43.041  50.379  1.00  0.00     0.021 A 
HETATM   20  C   UNL     1      24.725  42.013  49.580  1.00  0.00    -0.055 A 
HETATM   21  C   UNL     1      23.447  42.174  49.011  1.00  0.00    -0.056 A 
HETATM   22  C   UNL     1      25.555  40.785  49.321  1.00  0.00     0.049 C 
HETATM   23  C   UNL     1      22.834  41.115  48.138  1.00  0.00     0.049 C 
HETATM   24  C   UNL     1      22.719  43.342  49.283  1.00  0.00     0.008 A 
HETATM   25  C   UNL     1      23.251  44.343  50.098  1.00  0.00     0.014 A 
ENDBRANCH   1  18
BRANCH   3  26
HETATM   26  C   UNL     1      26.249  46.190  54.714  1.00  0.00     0.189 C 
BRANCH  26  27
HETATM   27  C   UNL     1      27.583  45.507  54.905  1.00  0.00    -0.038 A 
HETATM   28  C   UNL     1      28.576  46.096  55.701  1.00  0.00     0.009 A 
HETATM   29  C   UNL     1      29.803  45.456  55.892  1.00  0.00     0.001 A 
HETATM   30  C   UNL     1      30.051  44.222  55.296  1.00  0.00     0.000 A 
HETATM   31  C   UNL     1      29.069  43.621  54.510  1.00  0.00     0.001 A 
HETATM   32  C   UNL     1      27.841  44.255  54.321  1.00  0.00     0.009 A 
ENDBRANCH  26  27
ENDBRANCH   3  26
TORSDOF 6
ENDMDL
MODEL 9
REMARK VINA RESULT:      -8.7      1.401      5.769
REMARK  6 active torsions:
REMARK  status: ('A' for Active; 'I' for Inactive)
REMARK    1  A    between atoms: C_6  and  C_7 
REMARK    2  A    between atoms: N_9  and  C_10 
REMARK    3  A    between atoms: C_10  and  C_11 
REMARK    4  A    between atoms: C_18  and  C_19 
REMARK       I    between atoms: C_19  and  N_20 
REMARK    5  A    between atoms: N_20  and  C_21 
REMARK    6  A    between atoms: C_24  and  O_25 
ROOT
HETATM    1  C   UNL     1      25.720  45.213  51.611  1.00  0.00     0.104 A 
HETATM    2  N   UNL     1      25.499  46.510  51.332  1.00  0.00    -0.171 NA
HETATM    3  N   UNL     1      24.486  46.501  50.446  1.00  0.00    -0.275 N 
HETATM    4  C   UNL     1      24.031  45.250  50.161  1.00  0.00     0.132 A 
HETATM    5  C   UNL     1      24.846  44.372  50.852  1.00  0.00     0.080 A 
ENDROOT
BRANCH   5   6
HETATM    6  C   UNL     1      24.756  42.926  50.761  1.00  0.00     0.255 C 
HETATM    7  N   UNL     1      25.642  42.360  49.871  1.00  0.00    -0.352 N 
HETATM    8  H   UNL     1      26.223  42.979  49.322  1.00  0.00     0.163 HD
HETATM    9  O   UNL     1      23.931  42.278  51.396  1.00  0.00    -0.268 OA
BRANCH   7  10
HETATM   10  C   UNL     1      25.734  40.924  49.650  1.00  0.00     0.084 C 
HETATM   11  C   UNL     1      25.971  40.581  48.173  1.00  0.00     0.028 C 
HETATM   12  C   UNL     1      27.372  40.967  47.697  1.00  0.00     0.034 C 
HETATM   13  C   UNL     1      28.476  40.399  48.587  1.00  0.00     0.118 C 
HETATM   14  C   UNL     1      28.242  40.695  50.068  1.00  0.00     0.034 C 
HETATM   15  C   UNL     1      26.833  40.316  50.534  1.00  0.00     0.028 C 
BRANCH  13  16
HETATM   16  O   UNL     1      28.597  38.993  48.389  1.00  0.00    -0.396 OA
HETATM   17  H   UNL     1      29.053  38.826  47.548  1.00  0.00     0.210 HD
ENDBRANCH  13  16
ENDBRANCH   7  10
ENDBRANCH   5   6
BRANCH   1  18
HETATM   18  C   UNL     1      26.753  44.839  52.580  1.00  0.00    -0.004 A 
HETATM   19  C   UNL     1      27.783  43.951  52.239  1.00  0.00     0.021 A 
HETATM   20  C   UNL     1      28.803  43.628  53.152  1.00  0.00    -0.055 A 
HETATM   21  C   UNL     1      28.760  44.166  54.452  1.00  0.00    -0.056 A 
HETATM   22  C   UNL     1      29.891  42.680  52.726  1.00  0.00     0.049 C 
HETATM   23  C   UNL     1      29.815  43.843  55.474  1.00  0.00     0.049 C 
HETATM   24  C   UNL     1      27.719  45.041  54.797  1.00  0.00     0.008 A 
HETATM   25  C   UNL     1      26.727  45.372  53.872  1.00  0.00     0.014 A 
ENDBRANCH   1  18
BRANCH   3  26
HETATM   26  C   UNL     1      23.989  47.757  49.897  1.00  0.00     0.189 C 
BRANCH  26  27
HETATM   27  C   UNL     1      25.100  48.601  49.319  1.00  0.00    -0.038 A 
HETATM   28  C   UNL     1      24.807  49.690  48.486  1.00  0.00     0.009 A 
HETATM   29  C   UNL     1      25.834  50.482  47.965  1.00  0.00     0.001 A 
HETATM   30  C   UNL     1      27.162  50.198  48.275  1.00  0.00     0.000 A 
HETATM   31  C   UNL     1      27.467  49.125  49.110  1.00  0.00     0.001 A 
HETATM   32  C   UNL     1      26.444  48.336  49.635  1.00  0.00     0.009 A 
ENDBRANCH  26  27
ENDBRANCH   3  26
TORSDOF 6
ENDMDL
MODEL 10
REMARK VINA RESULT:      -8.6      1.969      2.800
REMARK  6 active torsions:
REMARK  status: ('A' for Active; 'I' for Inactive)
REMARK    1  A    between atoms: C_6  and  C_7 
REMARK    2  A    between atoms: N_9  and  C_10 
REMARK    3  A    between atoms: C_10  and  C_11 
REMARK    4  A    between atoms: C_18  and  C_19 
REMARK       I    between atoms: C_19  and  N_20 
REMARK    5  A    between atoms: N_20  and  C_21 
REMARK    6  A    between atoms: C_24  and  O_25 
ROOT
HETATM    1  C   UNL     1      25.987  45.667  51.347  1.00  0.00     0.104 A 
HETATM    2  N   UNL     1      26.110  45.798  52.680  1.00  0.00    -0.171 NA
HETATM    3  N   UNL     1      26.476  44.577  53.112  1.00  0.00    -0.275 N 
HETATM    4  C   UNL     1      26.615  43.670  52.106  1.00  0.00     0.132 A 
HETATM    5  C   UNL     1      26.248  44.319  50.943  1.00  0.00     0.080 A 
ENDROOT
BRANCH   5   6
HETATM    6  C   UNL     1      26.173  43.685  49.639  1.00  0.00     0.255 C 
HETATM    7  N   UNL     1      24.909  43.666  49.091  1.00  0.00    -0.352 N 
HETATM    8  H   UNL     1      24.146  44.026  49.649  1.00  0.00     0.163 HD
HETATM    9  O   UNL     1      27.150  43.176  49.099  1.00  0.00    -0.268 OA
BRANCH   7  10
HETATM   10  C   UNL     1      24.622  43.101  47.781  1.00  0.00     0.084 C 
HETATM   11  C   UNL     1      24.237  41.618  47.862  1.00  0.00     0.028 C 
HETATM   12  C   UNL     1      22.865  41.400  48.501  1.00  0.00     0.034 C 
HETATM   13  C   UNL     1      21.766  42.228  47.836  1.00  0.00     0.118 C 
HETATM   14  C   UNL     1      22.142  43.703  47.709  1.00  0.00     0.034 C 
HETATM   15  C   UNL     1      23.523  43.912  47.078  1.00  0.00     0.028 C 
BRANCH  13  16
HETATM   16  O   UNL     1      21.455  41.695  46.551  1.00  0.00    -0.396 OA
HETATM   17  H   UNL     1      20.588  42.026  46.268  1.00  0.00     0.210 HD
ENDBRANCH  13  16
ENDBRANCH   7  10
ENDBRANCH   5   6
BRANCH   1  18
HETATM   18  C   UNL     1      25.624  46.825  50.528  1.00  0.00    -0.004 A 
HETATM   19  C   UNL     1      26.596  47.725  50.070  1.00  0.00     0.021 A 
HETATM   20  C   UNL     1      26.256  48.811  49.242  1.00  0.00    -0.055 A 
HETATM   21  C   UNL     1      24.905  49.028  48.911  1.00  0.00    -0.056 A 
HETATM   22  C   UNL     1      27.343  49.737  48.769  1.00  0.00     0.049 C 
HETATM   23  C   UNL     1      24.482  50.180  48.042  1.00  0.00     0.049 C 
HETATM   24  C   UNL     1      23.932  48.135  49.383  1.00  0.00     0.008 A 
HETATM   25  C   UNL     1      24.287  47.047  50.184  1.00  0.00     0.014 A 
ENDBRANCH   1  18
BRANCH   3  26
HETATM   26  C   UNL     1      26.681  44.341  54.536  1.00  0.00     0.189 C 
BRANCH  26  27
HETATM   27  C   UNL     1      28.146  44.353  54.906  1.00  0.00    -0.038 A 
HETATM   28  C   UNL     1      28.684  45.416  55.646  1.00  0.00     0.009 A 
HETATM   29  C   UNL     1      30.035  45.419  56.003  1.00  0.00     0.001 A 
HETATM   30  C   UNL     1      30.860  44.360  55.630  1.00  0.00     0.000 A 
HETATM   31  C   UNL     1      30.336  43.293  54.903  1.00  0.00     0.001 A 
HETATM   32  C   UNL     1      28.987  43.285  54.549  1.00  0.00     0.009 A 
ENDBRANCH  26  27
ENDBRANCH   3  26
TORSDOF 6
ENDMDL
