MODEL 1
REMARK VINA RESULT:      -9.2      0.000      0.000
REMARK  1 active torsions:
REMARK  status: ('A' for Active; 'I' for Inactive)
REMARK    1  A    between atoms: C_8  and  C_9 
ROOT
HETATM    1  C   UNL     1      20.467  50.958  50.324  1.00  0.00     0.073 C 
HETATM    2  C   UNL     1      19.692  49.688  50.252  1.00  0.00     0.062 A 
HETATM    3  N   UNL     1      18.865  49.385  51.256  1.00  0.00    -0.178 NA
HETATM    4  N   UNL     1      18.268  48.266  50.850  1.00  0.00    -0.262 N 
HETATM    5  H   UNL     1      17.564  47.861  51.455  1.00  0.00     0.191 HD
HETATM    6  C   UNL     1      18.707  47.792  49.642  1.00  0.00     0.134 A 
HETATM    7  C   UNL     1      19.668  48.694  49.205  1.00  0.00     0.032 A 
HETATM    8  C   UNL     1      20.400  48.810  47.903  1.00  0.00     0.119 C 
HETATM    9  S   UNL     1      20.097  47.613  46.589  1.00  0.00    -0.141 SA
HETATM   10  C   UNL     1      19.887  46.030  47.450  1.00  0.00     0.136 C 
HETATM   11  C   UNL     1      20.988  45.579  48.395  1.00  0.00     0.031 C 
HETATM   12  C   UNL     1      18.511  45.898  48.074  1.00  0.00     0.236 C 
HETATM   13  O   UNL     1      17.740  45.002  47.710  1.00  0.00    -0.272 OA
HETATM   14  N   UNL     1      18.121  46.660  49.133  1.00  0.00    -0.311 N 
HETATM   15  H   UNL     1      17.254  46.328  49.539  1.00  0.00     0.170 HD
ENDROOT
BRANCH   8  16
HETATM   16  C   UNL     1      21.884  49.079  48.135  1.00  0.00    -0.039 A 
HETATM   17  C   UNL     1      22.607  48.167  48.936  1.00  0.00     0.021 A 
HETATM   18  C   UNL     1      23.988  48.300  49.163  1.00  0.00    -0.025 A 
HETATM   19  C   UNL     1      24.674  49.396  48.600  1.00  0.00    -0.026 A 
HETATM   20  C   UNL     1      24.700  47.360  49.926  1.00  0.00     0.012 A 
HETATM   21  C   UNL     1      23.961  50.322  47.828  1.00  0.00     0.013 A 
HETATM   22  C   UNL     1      26.056  49.527  48.817  1.00  0.00     0.012 A 
HETATM   23  C   UNL     1      22.589  50.163  47.594  1.00  0.00     0.009 A 
HETATM   24  C   UNL     1      26.752  48.582  49.574  1.00  0.00     0.001 A 
HETATM   25  C   UNL     1      26.075  47.499  50.127  1.00  0.00     0.001 A 
ENDBRANCH   8  16
TORSDOF 1
ENDMDL
MODEL 2
REMARK VINA RESULT:      -8.8      2.363      3.540
REMARK  1 active torsions:
REMARK  status: ('A' for Active; 'I' for Inactive)
REMARK    1  A    between atoms: C_8  and  C_9 
ROOT
HETATM    1  C   UNL     1      21.494  46.770  46.926  1.00  0.00     0.073 C 
HETATM    2  C   UNL     1      20.254  47.595  46.940  1.00  0.00     0.062 A 
HETATM    3  N   UNL     1      19.361  47.423  45.963  1.00  0.00    -0.178 NA
HETATM    4  N   UNL     1      18.351  48.219  46.311  1.00  0.00    -0.262 N 
HETATM    5  H   UNL     1      17.532  48.229  45.716  1.00  0.00     0.191 HD
HETATM    6  C   UNL     1      18.567  48.946  47.452  1.00  0.00     0.134 A 
HETATM    7  C   UNL     1      19.827  48.581  47.905  1.00  0.00     0.032 A 
HETATM    8  C   UNL     1      20.560  48.909  49.169  1.00  0.00     0.119 C 
HETATM    9  S   UNL     1      19.799  49.986  50.400  1.00  0.00    -0.141 SA
HETATM   10  C   UNL     1      18.921  51.242  49.428  1.00  0.00     0.136 C 
HETATM   11  C   UNL     1      19.710  52.023  48.391  1.00  0.00     0.031 C 
HETATM   12  C   UNL     1      17.610  50.721  48.874  1.00  0.00     0.236 C 
HETATM   13  O   UNL     1      16.537  51.237  49.207  1.00  0.00    -0.272 OA
HETATM   14  N   UNL     1      17.563  49.768  47.902  1.00  0.00    -0.311 N 
HETATM   15  H   UNL     1      16.630  49.663  47.519  1.00  0.00     0.170 HD
ENDROOT
BRANCH   8  16
HETATM   16  C   UNL     1      22.014  49.271  48.878  1.00  0.00    -0.039 A 
HETATM   17  C   UNL     1      23.025  48.510  49.505  1.00  0.00     0.021 A 
HETATM   18  C   UNL     1      24.391  48.732  49.258  1.00  0.00    -0.025 A 
HETATM   19  C   UNL     1      24.772  49.767  48.380  1.00  0.00    -0.026 A 
HETATM   20  C   UNL     1      25.384  47.937  49.856  1.00  0.00     0.012 A 
HETATM   21  C   UNL     1      23.777  50.546  47.776  1.00  0.00     0.013 A 
HETATM   22  C   UNL     1      26.135  49.986  48.124  1.00  0.00     0.012 A 
HETATM   23  C   UNL     1      22.420  50.298  48.016  1.00  0.00     0.009 A 
HETATM   24  C   UNL     1      27.111  49.185  48.721  1.00  0.00     0.001 A 
HETATM   25  C   UNL     1      26.736  48.161  49.586  1.00  0.00     0.001 A 
ENDBRANCH   8  16
TORSDOF 1
ENDMDL
MODEL 3
REMARK VINA RESULT:      -8.5      4.578      6.494
REMARK  1 active torsions:
REMARK  status: ('A' for Active; 'I' for Inactive)
REMARK    1  A    between atoms: C_8  and  C_9 
ROOT
HETATM    1  C   UNL     1      26.368  47.497  50.834  1.00  0.00     0.073 C 
HETATM    2  C   UNL     1      25.071  47.093  50.223  1.00  0.00     0.062 A 
HETATM    3  N   UNL     1      24.121  48.018  50.069  1.00  0.00    -0.178 NA
HETATM    4  N   UNL     1      23.150  47.374  49.424  1.00  0.00    -0.262 N 
HETATM    5  H   UNL     1      22.323  47.900  49.171  1.00  0.00     0.191 HD
HETATM    6  C   UNL     1      23.403  46.047  49.194  1.00  0.00     0.134 A 
HETATM    7  C   UNL     1      24.664  45.802  49.719  1.00  0.00     0.032 A 
HETATM    8  C   UNL     1      25.551  44.597  49.649  1.00  0.00     0.119 C 
HETATM    9  S   UNL     1      24.995  43.117  48.781  1.00  0.00    -0.141 SA
HETATM   10  C   UNL     1      23.224  43.003  49.160  1.00  0.00     0.136 C 
HETATM   11  C   UNL     1      22.805  43.004  50.621  1.00  0.00     0.031 C 
HETATM   12  C   UNL     1      22.399  43.966  48.329  1.00  0.00     0.236 C 
HETATM   13  O   UNL     1      21.543  43.544  47.543  1.00  0.00    -0.272 OA
HETATM   14  N   UNL     1      22.469  45.315  48.504  1.00  0.00    -0.311 N 
HETATM   15  H   UNL     1      21.733  45.800  48.004  1.00  0.00     0.170 HD
ENDROOT
BRANCH   8  16
HETATM   16  C   UNL     1      26.167  44.293  51.012  1.00  0.00    -0.039 A 
HETATM   17  C   UNL     1      27.510  43.856  51.051  1.00  0.00     0.021 A 
HETATM   18  C   UNL     1      28.180  43.603  52.260  1.00  0.00    -0.025 A 
HETATM   19  C   UNL     1      27.485  43.760  53.477  1.00  0.00    -0.026 A 
HETATM   20  C   UNL     1      29.529  43.211  52.284  1.00  0.00     0.012 A 
HETATM   21  C   UNL     1      26.145  44.165  53.448  1.00  0.00     0.013 A 
HETATM   22  C   UNL     1      28.155  43.517  54.688  1.00  0.00     0.012 A 
HETATM   23  C   UNL     1      25.498  44.433  52.235  1.00  0.00     0.009 A 
HETATM   24  C   UNL     1      29.497  43.132  54.696  1.00  0.00     0.001 A 
HETATM   25  C   UNL     1      30.184  42.981  53.495  1.00  0.00     0.001 A 
ENDBRANCH   8  16
TORSDOF 1
ENDMDL
MODEL 4
REMARK VINA RESULT:      -8.4     10.508     12.156
REMARK  1 active torsions:
REMARK  status: ('A' for Active; 'I' for Inactive)
REMARK    1  A    between atoms: C_8  and  C_9 
ROOT
HETATM    1  C   UNL     1      29.865  53.681  40.298  1.00  0.00     0.073 C 
HETATM    2  C   UNL     1      28.837  52.661  40.647  1.00  0.00     0.062 A 
HETATM    3  N   UNL     1      27.686  53.071  41.184  1.00  0.00    -0.178 NA
HETATM    4  N   UNL     1      26.966  51.955  41.286  1.00  0.00    -0.262 N 
HETATM    5  H   UNL     1      26.024  52.033  41.650  1.00  0.00     0.191 HD
HETATM    6  C   UNL     1      27.619  50.819  40.885  1.00  0.00     0.134 A 
HETATM    7  C   UNL     1      28.876  51.229  40.464  1.00  0.00     0.032 A 
HETATM    8  C   UNL     1      29.985  50.487  39.783  1.00  0.00     0.119 C 
HETATM    9  S   UNL     1      29.800  48.732  39.409  1.00  0.00    -0.141 SA
HETATM   10  C   UNL     1      28.903  48.053  40.833  1.00  0.00     0.136 C 
HETATM   11  C   UNL     1      29.481  48.287  42.219  1.00  0.00     0.031 C 
HETATM   12  C   UNL     1      27.420  48.362  40.774  1.00  0.00     0.236 C 
HETATM   13  O   UNL     1      26.590  47.448  40.705  1.00  0.00    -0.272 OA
HETATM   14  N   UNL     1      26.938  49.627  40.925  1.00  0.00    -0.311 N 
HETATM   15  H   UNL     1      25.931  49.637  41.039  1.00  0.00     0.170 HD
ENDROOT
BRANCH   8  16
HETATM   16  C   UNL     1      31.333  50.823  40.414  1.00  0.00    -0.039 A 
HETATM   17  C   UNL     1      31.355  51.185  41.780  1.00  0.00     0.021 A 
HETATM   18  C   UNL     1      32.552  51.460  42.462  1.00  0.00    -0.025 A 
HETATM   19  C   UNL     1      33.773  51.405  41.759  1.00  0.00    -0.026 A 
HETATM   20  C   UNL     1      32.561  51.776  43.831  1.00  0.00     0.012 A 
HETATM   21  C   UNL     1      33.759  51.076  40.398  1.00  0.00     0.013 A 
HETATM   22  C   UNL     1      34.972  51.670  42.441  1.00  0.00     0.012 A 
HETATM   23  C   UNL     1      32.560  50.784  39.737  1.00  0.00     0.009 A 
HETATM   24  C   UNL     1      34.966  51.978  43.803  1.00  0.00     0.001 A 
HETATM   25  C   UNL     1      33.762  52.029  44.498  1.00  0.00     0.001 A 
ENDBRANCH   8  16
TORSDOF 1
ENDMDL
MODEL 5
REMARK VINA RESULT:      -8.3     11.908     13.818
REMARK  1 active torsions:
REMARK  status: ('A' for Active; 'I' for Inactive)
REMARK    1  A    between atoms: C_8  and  C_9 
ROOT
HETATM    1  C   UNL     1      30.428  51.616  37.692  1.00  0.00     0.073 C 
HETATM    2  C   UNL     1      31.612  51.529  38.593  1.00  0.00     0.062 A 
HETATM    3  N   UNL     1      32.813  51.313  38.052  1.00  0.00    -0.178 NA
HETATM    4  N   UNL     1      33.647  51.384  39.088  1.00  0.00    -0.262 N 
HETATM    5  H   UNL     1      34.637  51.277  38.905  1.00  0.00     0.191 HD
HETATM    6  C   UNL     1      33.035  51.586  40.297  1.00  0.00     0.134 A 
HETATM    7  C   UNL     1      31.676  51.675  40.028  1.00  0.00     0.032 A 
HETATM    8  C   UNL     1      30.514  52.035  40.901  1.00  0.00     0.119 C 
HETATM    9  S   UNL     1      30.779  52.419  42.643  1.00  0.00    -0.141 SA
HETATM   10  C   UNL     1      32.075  51.265  43.174  1.00  0.00     0.136 C 
HETATM   11  C   UNL     1      31.849  49.780  42.940  1.00  0.00     0.031 C 
HETATM   12  C   UNL     1      33.453  51.709  42.725  1.00  0.00     0.236 C 
HETATM   13  O   UNL     1      34.329  51.977  43.557  1.00  0.00    -0.272 OA
HETATM   14  N   UNL     1      33.823  51.706  41.415  1.00  0.00    -0.311 N 
HETATM   15  H   UNL     1      34.820  51.856  41.302  1.00  0.00     0.170 HD
ENDROOT
BRANCH   8  16
HETATM   16  C   UNL     1      29.344  51.083  40.671  1.00  0.00    -0.039 A 
HETATM   17  C   UNL     1      29.600  49.694  40.719  1.00  0.00     0.021 A 
HETATM   18  C   UNL     1      28.578  48.740  40.573  1.00  0.00    -0.025 A 
HETATM   19  C   UNL     1      27.258  49.175  40.340  1.00  0.00    -0.026 A 
HETATM   20  C   UNL     1      28.842  47.363  40.667  1.00  0.00     0.012 A 
HETATM   21  C   UNL     1      26.999  50.550  40.261  1.00  0.00     0.013 A 
HETATM   22  C   UNL     1      26.234  48.224  40.202  1.00  0.00     0.012 A 
HETATM   23  C   UNL     1      28.024  51.488  40.431  1.00  0.00     0.009 A 
HETATM   24  C   UNL     1      26.509  46.859  40.303  1.00  0.00     0.001 A 
HETATM   25  C   UNL     1      27.812  46.429  40.536  1.00  0.00     0.001 A 
ENDBRANCH   8  16
TORSDOF 1
ENDMDL
MODEL 6
REMARK VINA RESULT:      -8.2     11.381     12.991
REMARK  1 active torsions:
REMARK  status: ('A' for Active; 'I' for Inactive)
REMARK    1  A    between atoms: C_8  and  C_9 
ROOT
HETATM    1  C   UNL     1      31.940  48.344  42.429  1.00  0.00     0.073 C 
HETATM    2  C   UNL     1      31.584  49.790  42.428  1.00  0.00     0.062 A 
HETATM    3  N   UNL     1      31.937  50.536  43.478  1.00  0.00    -0.178 NA
HETATM    4  N   UNL     1      31.568  51.768  43.131  1.00  0.00    -0.262 N 
HETATM    5  H   UNL     1      31.768  52.520  43.780  1.00  0.00     0.191 HD
HETATM    6  C   UNL     1      30.940  51.854  41.917  1.00  0.00     0.134 A 
HETATM    7  C   UNL     1      30.910  50.562  41.410  1.00  0.00     0.032 A 
HETATM    8  C   UNL     1      30.495  50.030  40.073  1.00  0.00     0.119 C 
HETATM    9  S   UNL     1      29.877  51.156  38.807  1.00  0.00    -0.141 SA
HETATM   10  C   UNL     1      28.889  52.373  39.720  1.00  0.00     0.136 C 
HETATM   11  C   UNL     1      27.780  51.860  40.624  1.00  0.00     0.031 C 
HETATM   12  C   UNL     1      29.755  53.408  40.412  1.00  0.00     0.236 C 
HETATM   13  O   UNL     1      29.667  54.604  40.110  1.00  0.00    -0.272 OA
HETATM   14  N   UNL     1      30.556  53.093  41.467  1.00  0.00    -0.311 N 
HETATM   15  H   UNL     1      30.925  53.920  41.923  1.00  0.00     0.170 HD
ENDROOT
BRANCH   8  16
HETATM   16  C   UNL     1      29.638  48.777  40.227  1.00  0.00    -0.039 A 
HETATM   17  C   UNL     1      29.962  47.651  39.437  1.00  0.00     0.021 A 
HETATM   18  C   UNL     1      29.266  46.435  39.546  1.00  0.00    -0.025 A 
HETATM   19  C   UNL     1      28.188  46.338  40.450  1.00  0.00    -0.026 A 
HETATM   20  C   UNL     1      29.628  45.310  38.785  1.00  0.00     0.012 A 
HETATM   21  C   UNL     1      27.841  47.458  41.216  1.00  0.00     0.013 A 
HETATM   22  C   UNL     1      27.496  45.122  40.568  1.00  0.00     0.012 A 
HETATM   23  C   UNL     1      28.558  48.656  41.111  1.00  0.00     0.009 A 
HETATM   24  C   UNL     1      27.870  44.011  39.809  1.00  0.00     0.001 A 
HETATM   25  C   UNL     1      28.936  44.105  38.919  1.00  0.00     0.001 A 
ENDBRANCH   8  16
TORSDOF 1
ENDMDL
MODEL 7
REMARK VINA RESULT:      -7.9      7.059      9.631
REMARK  1 active torsions:
REMARK  status: ('A' for Active; 'I' for Inactive)
REMARK    1  A    between atoms: C_8  and  C_9 
ROOT
HETATM    1  C   UNL     1      28.799  40.240  52.084  1.00  0.00     0.073 C 
HETATM    2  C   UNL     1      28.138  40.892  50.919  1.00  0.00     0.062 A 
HETATM    3  N   UNL     1      28.368  40.405  49.698  1.00  0.00    -0.178 NA
HETATM    4  N   UNL     1      27.575  41.129  48.911  1.00  0.00    -0.262 N 
HETATM    5  H   UNL     1      27.563  40.910  47.922  1.00  0.00     0.191 HD
HETATM    6  C   UNL     1      26.871  42.109  49.560  1.00  0.00     0.134 A 
HETATM    7  C   UNL     1      27.219  42.006  50.899  1.00  0.00     0.032 A 
HETATM    8  C   UNL     1      26.681  42.688  52.119  1.00  0.00     0.119 C 
HETATM    9  S   UNL     1      25.361  43.907  51.963  1.00  0.00    -0.141 SA
HETATM   10  C   UNL     1      25.747  44.806  50.434  1.00  0.00     0.136 C 
HETATM   11  C   UNL     1      27.125  45.431  50.301  1.00  0.00     0.031 C 
HETATM   12  C   UNL     1      25.355  44.021  49.197  1.00  0.00     0.236 C 
HETATM   13  O   UNL     1      24.506  44.464  48.415  1.00  0.00    -0.272 OA
HETATM   14  N   UNL     1      26.002  42.881  48.829  1.00  0.00    -0.311 N 
HETATM   15  H   UNL     1      25.742  42.583  47.895  1.00  0.00     0.170 HD
ENDROOT
BRANCH   8  16
HETATM   16  C   UNL     1      27.816  43.151  53.030  1.00  0.00    -0.039 A 
HETATM   17  C   UNL     1      27.535  44.158  53.979  1.00  0.00     0.021 A 
HETATM   18  C   UNL     1      28.500  44.611  54.897  1.00  0.00    -0.025 A 
HETATM   19  C   UNL     1      29.800  44.068  54.852  1.00  0.00    -0.026 A 
HETATM   20  C   UNL     1      28.193  45.582  55.864  1.00  0.00     0.012 A 
HETATM   21  C   UNL     1      30.096  43.090  53.894  1.00  0.00     0.013 A 
HETATM   22  C   UNL     1      30.763  44.512  55.773  1.00  0.00     0.012 A 
HETATM   23  C   UNL     1      29.118  42.634  53.001  1.00  0.00     0.009 A 
HETATM   24  C   UNL     1      30.443  45.475  56.732  1.00  0.00     0.001 A 
HETATM   25  C   UNL     1      29.158  46.008  56.779  1.00  0.00     0.001 A 
ENDBRANCH   8  16
TORSDOF 1
ENDMDL
MODEL 8
REMARK VINA RESULT:      -7.7      6.519      9.109
REMARK  1 active torsions:
REMARK  status: ('A' for Active; 'I' for Inactive)
REMARK    1  A    between atoms: C_8  and  C_9 
ROOT
HETATM    1  C   UNL     1      27.640  41.556  51.145  1.00  0.00     0.073 C 
HETATM    2  C   UNL     1      27.043  42.777  50.536  1.00  0.00     0.062 A 
HETATM    3  N   UNL     1      27.061  42.903  49.207  1.00  0.00    -0.178 NA
HETATM    4  N   UNL     1      26.382  44.026  48.984  1.00  0.00    -0.262 N 
HETATM    5  H   UNL     1      26.242  44.310  48.022  1.00  0.00     0.191 HD
HETATM    6  C   UNL     1      25.963  44.672  50.117  1.00  0.00     0.134 A 
HETATM    7  C   UNL     1      26.390  43.891  51.182  1.00  0.00     0.032 A 
HETATM    8  C   UNL     1      26.115  43.982  52.652  1.00  0.00     0.119 C 
HETATM    9  S   UNL     1      25.083  45.313  53.295  1.00  0.00    -0.141 SA
HETATM   10  C   UNL     1      25.528  46.761  52.296  1.00  0.00     0.136 C 
HETATM   11  C   UNL     1      26.993  47.155  52.221  1.00  0.00     0.031 C 
HETATM   12  C   UNL     1      24.874  46.732  50.928  1.00  0.00     0.236 C 
HETATM   13  O   UNL     1      24.081  47.619  50.591  1.00  0.00    -0.272 OA
HETATM   14  N   UNL     1      25.226  45.822  49.978  1.00  0.00    -0.311 N 
HETATM   15  H   UNL     1      24.831  46.049  49.072  1.00  0.00     0.170 HD
ENDROOT
BRANCH   8  16
HETATM   16  C   UNL     1      27.394  43.774  53.458  1.00  0.00    -0.039 A 
HETATM   17  C   UNL     1      27.819  44.820  54.308  1.00  0.00     0.021 A 
HETATM   18  C   UNL     1      28.953  44.701  55.131  1.00  0.00    -0.025 A 
HETATM   19  C   UNL     1      29.713  43.515  55.087  1.00  0.00    -0.026 A 
HETATM   20  C   UNL     1      29.337  45.733  56.003  1.00  0.00     0.012 A 
HETATM   21  C   UNL     1      29.316  42.484  54.226  1.00  0.00     0.013 A 
HETATM   22  C   UNL     1      30.842  43.390  55.914  1.00  0.00     0.012 A 
HETATM   23  C   UNL     1      28.172  42.609  53.429  1.00  0.00     0.009 A 
HETATM   24  C   UNL     1      31.209  44.422  56.780  1.00  0.00     0.001 A 
HETATM   25  C   UNL     1      30.457  45.592  56.825  1.00  0.00     0.001 A 
ENDBRANCH   8  16
TORSDOF 1
ENDMDL
MODEL 9
REMARK VINA RESULT:      -7.7     11.912     13.428
REMARK  1 active torsions:
REMARK  status: ('A' for Active; 'I' for Inactive)
REMARK    1  A    between atoms: C_8  and  C_9 
ROOT
HETATM    1  C   UNL     1      27.831  50.885  39.858  1.00  0.00     0.073 C 
HETATM    2  C   UNL     1      29.056  51.584  40.338  1.00  0.00     0.062 A 
HETATM    3  N   UNL     1      29.224  52.870  40.025  1.00  0.00    -0.178 NA
HETATM    4  N   UNL     1      30.338  53.213  40.669  1.00  0.00    -0.262 N 
HETATM    5  H   UNL     1      30.648  54.174  40.596  1.00  0.00     0.191 HD
HETATM    6  C   UNL     1      30.938  52.188  41.352  1.00  0.00     0.134 A 
HETATM    7  C   UNL     1      30.134  51.074  41.154  1.00  0.00     0.032 A 
HETATM    8  C   UNL     1      30.172  49.703  41.756  1.00  0.00     0.119 C 
HETATM    9  S   UNL     1      31.459  49.276  42.946  1.00  0.00    -0.141 SA
HETATM   10  C   UNL     1      32.947  50.112  42.330  1.00  0.00     0.136 C 
HETATM   11  C   UNL     1      33.377  49.843  40.898  1.00  0.00     0.031 C 
HETATM   12  C   UNL     1      32.946  51.593  42.656  1.00  0.00     0.236 C 
HETATM   13  O   UNL     1      33.824  52.078  43.379  1.00  0.00    -0.272 OA
HETATM   14  N   UNL     1      32.074  52.461  42.072  1.00  0.00    -0.311 N 
HETATM   15  H   UNL     1      32.320  53.427  42.258  1.00  0.00     0.170 HD
ENDROOT
BRANCH   8  16
HETATM   16  C   UNL     1      29.969  48.633  40.687  1.00  0.00    -0.039 A 
HETATM   17  C   UNL     1      29.024  47.614  40.940  1.00  0.00     0.021 A 
HETATM   18  C   UNL     1      28.729  46.616  39.995  1.00  0.00    -0.025 A 
HETATM   19  C   UNL     1      29.417  46.608  38.765  1.00  0.00    -0.026 A 
HETATM   20  C   UNL     1      27.754  45.635  40.244  1.00  0.00     0.012 A 
HETATM   21  C   UNL     1      30.377  47.598  38.516  1.00  0.00     0.013 A 
HETATM   22  C   UNL     1      29.118  45.618  37.815  1.00  0.00     0.012 A 
HETATM   23  C   UNL     1      30.644  48.597  39.460  1.00  0.00     0.009 A 
HETATM   24  C   UNL     1      28.144  44.652  38.074  1.00  0.00     0.001 A 
HETATM   25  C   UNL     1      27.462  44.661  39.287  1.00  0.00     0.001 A 
ENDBRANCH   8  16
TORSDOF 1
ENDMDL
MODEL 10
REMARK VINA RESULT:      -7.7      4.508      7.613
REMARK  1 active torsions:
REMARK  status: ('A' for Active; 'I' for Inactive)
REMARK    1  A    between atoms: C_8  and  C_9 
ROOT
HETATM    1  C   UNL     1      15.343  48.575  47.750  1.00  0.00     0.073 C 
HETATM    2  C   UNL     1      16.649  48.121  48.306  1.00  0.00     0.062 A 
HETATM    3  N   UNL     1      16.721  46.909  48.860  1.00  0.00    -0.178 NA
HETATM    4  N   UNL     1      18.011  46.774  49.163  1.00  0.00    -0.262 N 
HETATM    5  H   UNL     1      18.309  45.899  49.577  1.00  0.00     0.191 HD
HETATM    6  C   UNL     1      18.781  47.871  48.877  1.00  0.00     0.134 A 
HETATM    7  C   UNL     1      17.921  48.805  48.318  1.00  0.00     0.032 A 
HETATM    8  C   UNL     1      18.181  50.131  47.670  1.00  0.00     0.119 C 
HETATM    9  S   UNL     1      19.866  50.761  47.553  1.00  0.00    -0.141 SA
HETATM   10  C   UNL     1      20.648  50.270  49.115  1.00  0.00     0.136 C 
HETATM   11  C   UNL     1      19.970  50.678  50.413  1.00  0.00     0.031 C 
HETATM   12  C   UNL     1      21.050  48.808  49.117  1.00  0.00     0.236 C 
HETATM   13  O   UNL     1      22.238  48.483  49.232  1.00  0.00    -0.272 OA
HETATM   14  N   UNL     1      20.129  47.805  49.127  1.00  0.00    -0.311 N 
HETATM   15  H   UNL     1      20.554  46.902  49.308  1.00  0.00     0.170 HD
ENDROOT
BRANCH   8  16
HETATM   16  C   UNL     1      17.183  51.179  48.154  1.00  0.00    -0.039 A 
HETATM   17  C   UNL     1      16.399  51.846  47.186  1.00  0.00     0.021 A 
HETATM   18  C   UNL     1      15.417  52.787  47.538  1.00  0.00    -0.025 A 
HETATM   19  C   UNL     1      15.224  53.105  48.898  1.00  0.00    -0.026 A 
HETATM   20  C   UNL     1      14.615  53.409  46.566  1.00  0.00     0.012 A 
HETATM   21  C   UNL     1      16.017  52.471  49.863  1.00  0.00     0.013 A 
HETATM   22  C   UNL     1      14.237  54.038  49.254  1.00  0.00     0.012 A 
HETATM   23  C   UNL     1      16.977  51.519  49.498  1.00  0.00     0.009 A 
HETATM   24  C   UNL     1      13.444  54.645  48.278  1.00  0.00     0.001 A 
HETATM   25  C   UNL     1      13.632  54.330  46.935  1.00  0.00     0.001 A 
ENDBRANCH   8  16
TORSDOF 1
ENDMDL
