MODEL 1
REMARK VINA RESULT:      -9.8      0.000      0.000
REMARK  6 active torsions:
REMARK  status: ('A' for Active; 'I' for Inactive)
REMARK    1  A    between atoms: O_2  and  C_3 
REMARK    2  A    between atoms: C_6  and  C_7 
REMARK    3  A    between atoms: C_12  and  C_13 
REMARK       I    between atoms: C_13  and  N_14 
REMARK    4  A    between atoms: N_14  and  C_15 
REMARK    5  A    between atoms: C_15  and  C_16 
REMARK    6  A    between atoms: C_24  and  C_25 
ROOT
HETATM    1  C   UNL     1      26.830  43.966  52.100  1.00  0.00     0.118 C 
HETATM    2  N   UNL     1      27.266  44.804  50.981  1.00  0.00    -0.366 N 
HETATM    3  C   UNL     1      26.492  45.787  50.480  1.00  0.00     0.123 A 
HETATM    4  N   UNL     1      25.147  45.806  50.711  1.00  0.00    -0.240 N 
HETATM    5  N   UNL     1      24.532  46.918  50.276  1.00  0.00    -0.165 NA
HETATM    6  C   UNL     1      25.520  47.587  49.633  1.00  0.00     0.148 A 
HETATM    7  C   UNL     1      26.759  46.893  49.721  1.00  0.00     0.088 A 
HETATM    8  C   UNL     1      24.475  44.801  51.507  1.00  0.00     0.221 C 
HETATM    9  C   UNL     1      25.423  44.343  52.622  1.00  0.00     0.066 C 
HETATM   10  H   UNL     1      28.275  44.819  50.830  1.00  0.00     0.161 HD
ENDROOT
BRANCH   6  11
HETATM   11  C   UNL     1      25.288  48.882  48.976  1.00  0.00     0.272 C 
HETATM   12  N   UNL     1      23.962  49.129  48.723  1.00  0.00    -0.351 N 
HETATM   13  H   UNL     1      23.303  48.448  49.089  1.00  0.00     0.163 HD
HETATM   14  O   UNL     1      26.193  49.664  48.702  1.00  0.00    -0.266 OA
BRANCH  12  15
HETATM   15  C   UNL     1      23.504  50.373  48.170  1.00  0.00     0.161 C 
BRANCH  15  16
HETATM   16  C   UNL     1      22.102  50.687  48.624  1.00  0.00    -0.041 A 
HETATM   17  C   UNL     1      21.805  50.841  49.984  1.00  0.00     0.009 A 
HETATM   18  C   UNL     1      20.505  51.137  50.395  1.00  0.00     0.001 A 
HETATM   19  C   UNL     1      19.490  51.283  49.452  1.00  0.00     0.000 A 
HETATM   20  C   UNL     1      19.773  51.138  48.096  1.00  0.00     0.001 A 
HETATM   21  C   UNL     1      21.073  50.846  47.682  1.00  0.00     0.009 A 
ENDBRANCH  15  16
ENDBRANCH  12  15
ENDBRANCH   6  11
BRANCH   8  22
HETATM   22  C   UNL     1      24.006  43.661  50.633  1.00  0.00     0.409 C 
HETATM   23  F   UNL     1      24.591  43.671  49.415  1.00  0.00    -0.169 F 
HETATM   24  F   UNL     1      24.202  42.443  51.178  1.00  0.00    -0.169 F 
HETATM   25  F   UNL     1      22.668  43.776  50.418  1.00  0.00    -0.169 F 
ENDBRANCH   8  22
BRANCH   1  26
HETATM   26  C   UNL     1      27.868  44.081  53.206  1.00  0.00    -0.035 A 
HETATM   27  C   UNL     1      28.909  43.140  53.315  1.00  0.00     0.012 A 
HETATM   28  C   UNL     1      29.870  43.238  54.322  1.00  0.00     0.037 A 
HETATM   29  C   UNL     1      29.804  44.274  55.251  1.00  0.00     0.068 A 
HETATM   30  C   UNL     1      28.755  45.193  55.173  1.00  0.00     0.037 A 
HETATM   31  C   UNL     1      27.795  45.104  54.158  1.00  0.00     0.012 A 
BRANCH  29  32
HETATM   32  O   UNL     1      30.683  44.483  56.277  1.00  0.00    -0.356 OA
HETATM   33  C   UNL     1      31.405  43.344  56.733  1.00  0.00     0.210 C 
ENDBRANCH  29  32
ENDBRANCH   1  26
TORSDOF 6
ENDMDL
MODEL 2
REMARK VINA RESULT:      -9.6      2.601      3.668
REMARK  6 active torsions:
REMARK  status: ('A' for Active; 'I' for Inactive)
REMARK    1  A    between atoms: O_2  and  C_3 
REMARK    2  A    between atoms: C_6  and  C_7 
REMARK    3  A    between atoms: C_12  and  C_13 
REMARK       I    between atoms: C_13  and  N_14 
REMARK    4  A    between atoms: N_14  and  C_15 
REMARK    5  A    between atoms: C_15  and  C_16 
REMARK    6  A    between atoms: C_24  and  C_25 
ROOT
HETATM    1  C   UNL     1      28.919  42.938  52.753  1.00  0.00     0.118 C 
HETATM    2  N   UNL     1      28.331  43.930  51.849  1.00  0.00    -0.366 N 
HETATM    3  C   UNL     1      27.068  43.823  51.394  1.00  0.00     0.123 A 
HETATM    4  N   UNL     1      26.413  42.626  51.423  1.00  0.00    -0.240 N 
HETATM    5  N   UNL     1      25.117  42.702  51.074  1.00  0.00    -0.165 NA
HETATM    6  C   UNL     1      24.975  43.994  50.693  1.00  0.00     0.148 A 
HETATM    7  C   UNL     1      26.187  44.721  50.858  1.00  0.00     0.088 A 
HETATM    8  C   UNL     1      27.011  41.418  51.949  1.00  0.00     0.221 C 
HETATM    9  C   UNL     1      27.938  41.796  53.112  1.00  0.00     0.066 C 
HETATM   10  H   UNL     1      28.799  44.837  51.855  1.00  0.00     0.161 HD
ENDROOT
BRANCH   6  11
HETATM   11  C   UNL     1      23.693  44.531  50.211  1.00  0.00     0.272 C 
HETATM   12  N   UNL     1      23.805  45.784  49.662  1.00  0.00    -0.351 N 
HETATM   13  H   UNL     1      24.749  46.149  49.572  1.00  0.00     0.163 HD
HETATM   14  O   UNL     1      22.638  43.908  50.281  1.00  0.00    -0.266 OA
BRANCH  12  15
HETATM   15  C   UNL     1      22.694  46.456  49.049  1.00  0.00     0.161 C 
BRANCH  15  16
HETATM   16  C   UNL     1      23.049  47.874  48.685  1.00  0.00    -0.041 A 
HETATM   17  C   UNL     1      22.130  48.697  48.023  1.00  0.00     0.009 A 
HETATM   18  C   UNL     1      22.465  50.012  47.694  1.00  0.00     0.001 A 
HETATM   19  C   UNL     1      23.721  50.516  48.026  1.00  0.00     0.000 A 
HETATM   20  C   UNL     1      24.643  49.710  48.689  1.00  0.00     0.001 A 
HETATM   21  C   UNL     1      24.308  48.397  49.023  1.00  0.00     0.009 A 
ENDBRANCH  15  16
ENDBRANCH  12  15
ENDBRANCH   6  11
BRANCH   8  22
HETATM   22  C   UNL     1      27.724  40.660  50.854  1.00  0.00     0.409 C 
HETATM   23  F   UNL     1      28.052  41.451  49.810  1.00  0.00    -0.169 F 
HETATM   24  F   UNL     1      28.845  40.033  51.268  1.00  0.00    -0.169 F 
HETATM   25  F   UNL     1      26.902  39.694  50.363  1.00  0.00    -0.169 F 
ENDBRANCH   8  22
BRANCH   1  26
HETATM   26  C   UNL     1      29.389  43.662  54.005  1.00  0.00    -0.035 A 
HETATM   27  C   UNL     1      30.473  43.169  54.755  1.00  0.00     0.012 A 
HETATM   28  C   UNL     1      30.918  43.827  55.903  1.00  0.00     0.037 A 
HETATM   29  C   UNL     1      30.280  44.988  56.332  1.00  0.00     0.068 A 
HETATM   30  C   UNL     1      29.181  45.467  55.615  1.00  0.00     0.037 A 
HETATM   31  C   UNL     1      28.739  44.815  54.458  1.00  0.00     0.012 A 
BRANCH  29  32
HETATM   32  O   UNL     1      30.621  45.725  57.432  1.00  0.00    -0.356 OA
HETATM   33  C   UNL     1      31.115  44.999  58.552  1.00  0.00     0.210 C 
ENDBRANCH  29  32
ENDBRANCH   1  26
TORSDOF 6
ENDMDL
MODEL 3
REMARK VINA RESULT:      -9.0      3.124      9.710
REMARK  6 active torsions:
REMARK  status: ('A' for Active; 'I' for Inactive)
REMARK    1  A    between atoms: O_2  and  C_3 
REMARK    2  A    between atoms: C_6  and  C_7 
REMARK    3  A    between atoms: C_12  and  C_13 
REMARK       I    between atoms: C_13  and  N_14 
REMARK    4  A    between atoms: N_14  and  C_15 
REMARK    5  A    between atoms: C_15  and  C_16 
REMARK    6  A    between atoms: C_24  and  C_25 
ROOT
HETATM    1  C   UNL     1      22.915  49.714  47.927  1.00  0.00     0.118 C 
HETATM    2  N   UNL     1      22.962  48.254  48.020  1.00  0.00    -0.366 N 
HETATM    3  C   UNL     1      23.675  47.620  48.971  1.00  0.00     0.123 A 
HETATM    4  N   UNL     1      24.678  48.261  49.638  1.00  0.00    -0.240 N 
HETATM    5  N   UNL     1      25.201  47.554  50.655  1.00  0.00    -0.165 NA
HETATM    6  C   UNL     1      24.573  46.357  50.553  1.00  0.00     0.148 A 
HETATM    7  C   UNL     1      23.625  46.355  49.492  1.00  0.00     0.088 A 
HETATM    8  C   UNL     1      25.029  49.642  49.386  1.00  0.00     0.221 C 
HETATM    9  C   UNL     1      23.753  50.414  49.025  1.00  0.00     0.066 C 
HETATM   10  H   UNL     1      22.191  47.775  47.553  1.00  0.00     0.161 HD
ENDROOT
BRANCH   6  11
HETATM   11  C   UNL     1      24.852  45.248  51.477  1.00  0.00     0.272 C 
HETATM   12  N   UNL     1      26.175  45.159  51.830  1.00  0.00    -0.351 N 
HETATM   13  H   UNL     1      26.778  45.905  51.494  1.00  0.00     0.163 HD
HETATM   14  O   UNL     1      23.981  44.493  51.898  1.00  0.00    -0.266 OA
BRANCH  12  15
HETATM   15  C   UNL     1      26.652  44.205  52.793  1.00  0.00     0.161 C 
BRANCH  15  16
HETATM   16  C   UNL     1      27.521  44.866  53.830  1.00  0.00    -0.041 A 
HETATM   17  C   UNL     1      28.621  44.194  54.379  1.00  0.00     0.009 A 
HETATM   18  C   UNL     1      29.425  44.816  55.336  1.00  0.00     0.001 A 
HETATM   19  C   UNL     1      29.139  46.115  55.751  1.00  0.00     0.000 A 
HETATM   20  C   UNL     1      28.052  46.797  55.208  1.00  0.00     0.001 A 
HETATM   21  C   UNL     1      27.250  46.179  54.248  1.00  0.00     0.009 A 
ENDBRANCH  15  16
ENDBRANCH  12  15
ENDBRANCH   6  11
BRANCH   8  22
HETATM   22  C   UNL     1      26.090  49.731  48.314  1.00  0.00     0.409 C 
HETATM   23  F   UNL     1      26.809  48.593  48.205  1.00  0.00    -0.169 F 
HETATM   24  F   UNL     1      25.603  50.033  47.092  1.00  0.00    -0.169 F 
HETATM   25  F   UNL     1      26.972  50.716  48.630  1.00  0.00    -0.169 F 
ENDBRANCH   8  22
BRANCH   1  26
HETATM   26  C   UNL     1      21.459  50.146  47.999  1.00  0.00    -0.035 A 
HETATM   27  C   UNL     1      20.438  49.312  47.505  1.00  0.00     0.012 A 
HETATM   28  C   UNL     1      19.097  49.695  47.571  1.00  0.00     0.037 A 
HETATM   29  C   UNL     1      18.749  50.925  48.122  1.00  0.00     0.068 A 
HETATM   30  C   UNL     1      19.757  51.775  48.584  1.00  0.00     0.037 A 
HETATM   31  C   UNL     1      21.102  51.390  48.529  1.00  0.00     0.012 A 
BRANCH  29  32
HETATM   32  O   UNL     1      17.477  51.412  48.249  1.00  0.00    -0.356 OA
HETATM   33  C   UNL     1      17.199  52.156  49.429  1.00  0.00     0.210 C 
ENDBRANCH  29  32
ENDBRANCH   1  26
TORSDOF 6
ENDMDL
MODEL 4
REMARK VINA RESULT:      -8.9      3.280      4.112
REMARK  6 active torsions:
REMARK  status: ('A' for Active; 'I' for Inactive)
REMARK    1  A    between atoms: O_2  and  C_3 
REMARK    2  A    between atoms: C_6  and  C_7 
REMARK    3  A    between atoms: C_12  and  C_13 
REMARK       I    between atoms: C_13  and  N_14 
REMARK    4  A    between atoms: N_14  and  C_15 
REMARK    5  A    between atoms: C_15  and  C_16 
REMARK    6  A    between atoms: C_24  and  C_25 
ROOT
HETATM    1  C   UNL     1      26.659  43.185  52.736  1.00  0.00     0.118 C 
HETATM    2  N   UNL     1      25.406  43.572  52.083  1.00  0.00    -0.366 N 
HETATM    3  C   UNL     1      25.182  44.829  51.653  1.00  0.00     0.123 A 
HETATM    4  N   UNL     1      25.915  45.874  52.135  1.00  0.00    -0.240 N 
HETATM    5  N   UNL     1      25.681  47.042  51.511  1.00  0.00    -0.165 NA
HETATM    6  C   UNL     1      24.663  46.743  50.667  1.00  0.00     0.148 A 
HETATM    7  C   UNL     1      24.309  45.367  50.748  1.00  0.00     0.088 A 
HETATM    8  C   UNL     1      26.972  45.707  53.109  1.00  0.00     0.221 C 
HETATM    9  C   UNL     1      27.660  44.359  52.859  1.00  0.00     0.066 C 
HETATM   10  H   UNL     1      24.876  42.793  51.690  1.00  0.00     0.161 HD
ENDROOT
BRANCH   6  11
HETATM   11  C   UNL     1      24.065  47.748  49.777  1.00  0.00     0.272 C 
HETATM   12  N   UNL     1      22.936  47.299  49.138  1.00  0.00    -0.351 N 
HETATM   13  H   UNL     1      22.602  46.381  49.415  1.00  0.00     0.163 HD
HETATM   14  O   UNL     1      24.525  48.877  49.638  1.00  0.00    -0.266 OA
BRANCH  12  15
HETATM   15  C   UNL     1      22.142  48.148  48.293  1.00  0.00     0.161 C 
BRANCH  15  16
HETATM   16  C   UNL     1      21.027  48.798  49.069  1.00  0.00    -0.041 A 
HETATM   17  C   UNL     1      21.119  50.136  49.473  1.00  0.00     0.009 A 
HETATM   18  C   UNL     1      20.078  50.734  50.186  1.00  0.00     0.001 A 
HETATM   19  C   UNL     1      18.936  50.000  50.501  1.00  0.00     0.000 A 
HETATM   20  C   UNL     1      18.830  48.670  50.100  1.00  0.00     0.001 A 
HETATM   21  C   UNL     1      19.867  48.073  49.383  1.00  0.00     0.009 A 
ENDBRANCH  15  16
ENDBRANCH  12  15
ENDBRANCH   6  11
BRANCH   8  22
HETATM   22  C   UNL     1      26.425  45.834  54.511  1.00  0.00     0.409 C 
HETATM   23  F   UNL     1      25.139  45.429  54.601  1.00  0.00    -0.169 F 
HETATM   24  F   UNL     1      27.138  45.159  55.436  1.00  0.00    -0.169 F 
HETATM   25  F   UNL     1      26.444  47.141  54.888  1.00  0.00    -0.169 F 
ENDBRANCH   8  22
BRANCH   1  26
HETATM   26  C   UNL     1      27.266  42.035  51.948  1.00  0.00    -0.035 A 
HETATM   27  C   UNL     1      26.765  41.691  50.679  1.00  0.00     0.012 A 
HETATM   28  C   UNL     1      27.317  40.640  49.944  1.00  0.00     0.037 A 
HETATM   29  C   UNL     1      28.377  39.904  50.468  1.00  0.00     0.068 A 
HETATM   30  C   UNL     1      28.860  40.216  51.741  1.00  0.00     0.037 A 
HETATM   31  C   UNL     1      28.314  41.274  52.477  1.00  0.00     0.012 A 
BRANCH  29  32
HETATM   32  O   UNL     1      29.006  38.860  49.848  1.00  0.00    -0.356 OA
HETATM   33  C   UNL     1      29.839  38.047  50.667  1.00  0.00     0.210 C 
ENDBRANCH  29  32
ENDBRANCH   1  26
TORSDOF 6
ENDMDL
MODEL 5
REMARK VINA RESULT:      -8.9      4.977      7.534
REMARK  6 active torsions:
REMARK  status: ('A' for Active; 'I' for Inactive)
REMARK    1  A    between atoms: O_2  and  C_3 
REMARK    2  A    between atoms: C_6  and  C_7 
REMARK    3  A    between atoms: C_12  and  C_13 
REMARK       I    between atoms: C_13  and  N_14 
REMARK    4  A    between atoms: N_14  and  C_15 
REMARK    5  A    between atoms: C_15  and  C_16 
REMARK    6  A    between atoms: C_24  and  C_25 
ROOT
HETATM    1  C   UNL     1      27.084  43.515  52.915  1.00  0.00     0.118 C 
HETATM    2  N   UNL     1      27.157  42.098  52.552  1.00  0.00    -0.366 N 
HETATM    3  C   UNL     1      27.281  41.693  51.273  1.00  0.00     0.123 A 
HETATM    4  N   UNL     1      26.958  42.525  50.241  1.00  0.00    -0.240 N 
HETATM    5  N   UNL     1      27.269  42.039  49.027  1.00  0.00    -0.165 NA
HETATM    6  C   UNL     1      27.706  40.786  49.299  1.00  0.00     0.148 A 
HETATM    7  C   UNL     1      27.704  40.526  50.698  1.00  0.00     0.088 A 
HETATM    8  C   UNL     1      26.485  43.878  50.443  1.00  0.00     0.221 C 
HETATM    9  C   UNL     1      27.171  44.455  51.689  1.00  0.00     0.066 C 
HETATM   10  H   UNL     1      27.435  41.480  53.315  1.00  0.00     0.161 HD
ENDROOT
BRANCH   6  11
HETATM   11  C   UNL     1      28.149  39.866  48.241  1.00  0.00     0.272 C 
HETATM   12  N   UNL     1      27.578  40.131  47.021  1.00  0.00    -0.351 N 
HETATM   13  H   UNL     1      27.000  40.966  46.971  1.00  0.00     0.163 HD
HETATM   14  O   UNL     1      28.960  38.966  48.433  1.00  0.00    -0.266 OA
BRANCH  12  15
HETATM   15  C   UNL     1      27.939  39.413  45.831  1.00  0.00     0.161 C 
BRANCH  15  16
HETATM   16  C   UNL     1      27.903  40.310  44.621  1.00  0.00    -0.041 A 
HETATM   17  C   UNL     1      26.806  41.148  44.382  1.00  0.00     0.009 A 
HETATM   18  C   UNL     1      26.783  41.981  43.261  1.00  0.00     0.001 A 
HETATM   19  C   UNL     1      27.856  41.985  42.372  1.00  0.00     0.000 A 
HETATM   20  C   UNL     1      28.955  41.160  42.602  1.00  0.00     0.001 A 
HETATM   21  C   UNL     1      28.982  40.331  43.723  1.00  0.00     0.009 A 
ENDBRANCH  15  16
ENDBRANCH  12  15
ENDBRANCH   6  11
BRANCH   8  22
HETATM   22  C   UNL     1      24.978  43.903  50.541  1.00  0.00     0.409 C 
HETATM   23  F   UNL     1      24.389  44.179  49.357  1.00  0.00    -0.169 F 
HETATM   24  F   UNL     1      24.445  42.755  51.011  1.00  0.00    -0.169 F 
HETATM   25  F   UNL     1      24.595  44.885  51.400  1.00  0.00    -0.169 F 
ENDBRANCH   8  22
BRANCH   1  26
HETATM   26  C   UNL     1      28.203  43.808  53.902  1.00  0.00    -0.035 A 
HETATM   27  C   UNL     1      28.202  44.995  54.657  1.00  0.00     0.012 A 
HETATM   28  C   UNL     1      29.221  45.272  55.571  1.00  0.00     0.037 A 
HETATM   29  C   UNL     1      30.270  44.372  55.740  1.00  0.00     0.068 A 
HETATM   30  C   UNL     1      30.299  43.206  54.970  1.00  0.00     0.037 A 
HETATM   31  C   UNL     1      29.274  42.921  54.061  1.00  0.00     0.012 A 
BRANCH  29  32
HETATM   32  O   UNL     1      31.321  44.523  56.602  1.00  0.00    -0.356 OA
HETATM   33  C   UNL     1      31.848  43.332  57.174  1.00  0.00     0.210 C 
ENDBRANCH  29  32
ENDBRANCH   1  26
TORSDOF 6
ENDMDL
MODEL 6
REMARK VINA RESULT:      -8.7      4.780      8.386
REMARK  6 active torsions:
REMARK  status: ('A' for Active; 'I' for Inactive)
REMARK    1  A    between atoms: O_2  and  C_3 
REMARK    2  A    between atoms: C_6  and  C_7 
REMARK    3  A    between atoms: C_12  and  C_13 
REMARK       I    between atoms: C_13  and  N_14 
REMARK    4  A    between atoms: N_14  and  C_15 
REMARK    5  A    between atoms: C_15  and  C_16 
REMARK    6  A    between atoms: C_24  and  C_25 
ROOT
HETATM    1  C   UNL     1      26.755  44.092  53.289  1.00  0.00     0.118 C 
HETATM    2  N   UNL     1      27.030  42.688  52.977  1.00  0.00    -0.366 N 
HETATM    3  C   UNL     1      27.233  42.263  51.715  1.00  0.00     0.123 A 
HETATM    4  N   UNL     1      26.818  43.008  50.650  1.00  0.00    -0.240 N 
HETATM    5  N   UNL     1      27.217  42.531  49.458  1.00  0.00    -0.165 NA
HETATM    6  C   UNL     1      27.818  41.359  49.780  1.00  0.00     0.148 A 
HETATM    7  C   UNL     1      27.825  41.148  51.187  1.00  0.00     0.088 A 
HETATM    8  C   UNL     1      26.159  44.288  50.798  1.00  0.00     0.221 C 
HETATM    9  C   UNL     1      26.734  44.995  52.032  1.00  0.00     0.066 C 
HETATM   10  H   UNL     1      27.376  42.139  53.765  1.00  0.00     0.161 HD
ENDROOT
BRANCH   6  11
HETATM   11  C   UNL     1      28.404  40.476  48.761  1.00  0.00     0.272 C 
HETATM   12  N   UNL     1      28.942  39.329  49.287  1.00  0.00    -0.351 N 
HETATM   13  H   UNL     1      28.798  39.183  50.282  1.00  0.00     0.163 HD
HETATM   14  O   UNL     1      28.393  40.738  47.562  1.00  0.00    -0.266 OA
BRANCH  12  15
HETATM   15  C   UNL     1      29.485  38.286  48.462  1.00  0.00     0.161 C 
BRANCH  15  16
HETATM   16  C   UNL     1      28.393  37.423  47.886  1.00  0.00    -0.041 A 
HETATM   17  C   UNL     1      27.275  37.073  48.652  1.00  0.00     0.009 A 
HETATM   18  C   UNL     1      26.264  36.278  48.109  1.00  0.00     0.001 A 
HETATM   19  C   UNL     1      26.362  35.827  46.794  1.00  0.00     0.000 A 
HETATM   20  C   UNL     1      27.466  36.173  46.019  1.00  0.00     0.001 A 
HETATM   21  C   UNL     1      28.475  36.971  46.559  1.00  0.00     0.009 A 
ENDBRANCH  15  16
ENDBRANCH  12  15
ENDBRANCH   6  11
BRANCH   8  22
HETATM   22  C   UNL     1      24.661  44.106  50.873  1.00  0.00     0.409 C 
HETATM   23  F   UNL     1      24.312  42.853  51.235  1.00  0.00    -0.169 F 
HETATM   24  F   UNL     1      24.051  44.967  51.713  1.00  0.00    -0.169 F 
HETATM   25  F   UNL     1      24.118  44.317  49.644  1.00  0.00    -0.169 F 
ENDBRANCH   8  22
BRANCH   1  26
HETATM   26  C   UNL     1      27.804  44.570  54.282  1.00  0.00    -0.035 A 
HETATM   27  C   UNL     1      28.985  43.834  54.487  1.00  0.00     0.012 A 
HETATM   28  C   UNL     1      29.958  44.264  55.391  1.00  0.00     0.037 A 
HETATM   29  C   UNL     1      29.764  45.436  56.119  1.00  0.00     0.068 A 
HETATM   30  C   UNL     1      28.579  46.155  55.949  1.00  0.00     0.037 A 
HETATM   31  C   UNL     1      27.606  45.732  55.036  1.00  0.00     0.012 A 
BRANCH  29  32
HETATM   32  O   UNL     1      30.638  45.965  57.028  1.00  0.00    -0.356 OA
HETATM   33  C   UNL     1      30.406  45.638  58.393  1.00  0.00     0.210 C 
ENDBRANCH  29  32
ENDBRANCH   1  26
TORSDOF 6
ENDMDL
MODEL 7
REMARK VINA RESULT:      -8.6      2.257      9.233
REMARK  6 active torsions:
REMARK  status: ('A' for Active; 'I' for Inactive)
REMARK    1  A    between atoms: O_2  and  C_3 
REMARK    2  A    between atoms: C_6  and  C_7 
REMARK    3  A    between atoms: C_12  and  C_13 
REMARK       I    between atoms: C_13  and  N_14 
REMARK    4  A    between atoms: N_14  and  C_15 
REMARK    5  A    between atoms: C_15  and  C_16 
REMARK    6  A    between atoms: C_24  and  C_25 
ROOT
HETATM    1  C   UNL     1      24.131  44.978  49.573  1.00  0.00     0.118 C 
HETATM    2  N   UNL     1      23.941  44.845  51.020  1.00  0.00    -0.366 N 
HETATM    3  C   UNL     1      24.981  44.771  51.873  1.00  0.00     0.123 A 
HETATM    4  N   UNL     1      26.226  44.426  51.432  1.00  0.00    -0.240 N 
HETATM    5  N   UNL     1      27.188  44.535  52.364  1.00  0.00    -0.165 NA
HETATM    6  C   UNL     1      26.497  44.855  53.486  1.00  0.00     0.148 A 
HETATM    7  C   UNL     1      25.105  44.987  53.219  1.00  0.00     0.088 A 
HETATM    8  C   UNL     1      26.513  44.138  50.043  1.00  0.00     0.221 C 
HETATM    9  C   UNL     1      25.623  45.027  49.164  1.00  0.00     0.066 C 
HETATM   10  H   UNL     1      23.023  45.138  51.355  1.00  0.00     0.161 HD
ENDROOT
BRANCH   6  11
HETATM   11  C   UNL     1      27.161  45.062  54.781  1.00  0.00     0.272 C 
HETATM   12  N   UNL     1      28.216  45.937  54.712  1.00  0.00    -0.351 N 
HETATM   13  H   UNL     1      28.357  46.397  53.817  1.00  0.00     0.163 HD
HETATM   14  O   UNL     1      26.792  44.518  55.817  1.00  0.00    -0.266 OA
BRANCH  12  15
HETATM   15  C   UNL     1      28.948  46.353  55.876  1.00  0.00     0.161 C 
BRANCH  15  16
HETATM   16  C   UNL     1      29.915  45.287  56.320  1.00  0.00    -0.041 A 
HETATM   17  C   UNL     1      30.250  44.223  55.473  1.00  0.00     0.009 A 
HETATM   18  C   UNL     1      31.152  43.242  55.890  1.00  0.00     0.001 A 
HETATM   19  C   UNL     1      31.728  43.317  57.156  1.00  0.00     0.000 A 
HETATM   20  C   UNL     1      31.408  44.373  58.006  1.00  0.00     0.001 A 
HETATM   21  C   UNL     1      30.511  45.357  57.590  1.00  0.00     0.009 A 
ENDBRANCH  15  16
ENDBRANCH  12  15
ENDBRANCH   6  11
BRANCH   8  22
HETATM   22  C   UNL     1      26.332  42.666  49.760  1.00  0.00     0.409 C 
HETATM   23  F   UNL     1      25.740  42.013  50.783  1.00  0.00    -0.169 F 
HETATM   24  F   UNL     1      25.623  42.411  48.640  1.00  0.00    -0.169 F 
HETATM   25  F   UNL     1      27.549  42.085  49.585  1.00  0.00    -0.169 F 
ENDBRANCH   8  22
BRANCH   1  26
HETATM   26  C   UNL     1      23.401  46.231  49.115  1.00  0.00    -0.035 A 
HETATM   27  C   UNL     1      23.797  47.500  49.575  1.00  0.00     0.012 A 
HETATM   28  C   UNL     1      23.139  48.659  49.157  1.00  0.00     0.037 A 
HETATM   29  C   UNL     1      22.062  48.571  48.278  1.00  0.00     0.068 A 
HETATM   30  C   UNL     1      21.640  47.312  47.843  1.00  0.00     0.037 A 
HETATM   31  C   UNL     1      22.304  46.150  48.252  1.00  0.00     0.012 A 
BRANCH  29  32
HETATM   32  O   UNL     1      21.341  49.625  47.792  1.00  0.00    -0.356 OA
HETATM   33  C   UNL     1      21.636  50.902  48.346  1.00  0.00     0.210 C 
ENDBRANCH  29  32
ENDBRANCH   1  26
TORSDOF 6
ENDMDL
MODEL 8
REMARK VINA RESULT:      -8.5      4.246      9.298
REMARK  6 active torsions:
REMARK  status: ('A' for Active; 'I' for Inactive)
REMARK    1  A    between atoms: O_2  and  C_3 
REMARK    2  A    between atoms: C_6  and  C_7 
REMARK    3  A    between atoms: C_12  and  C_13 
REMARK       I    between atoms: C_13  and  N_14 
REMARK    4  A    between atoms: N_14  and  C_15 
REMARK    5  A    between atoms: C_15  and  C_16 
REMARK    6  A    between atoms: C_24  and  C_25 
ROOT
HETATM    1  C   UNL     1      24.324  42.427  49.551  1.00  0.00     0.118 C 
HETATM    2  N   UNL     1      24.190  42.915  50.925  1.00  0.00    -0.366 N 
HETATM    3  C   UNL     1      25.187  43.570  51.552  1.00  0.00     0.123 A 
HETATM    4  N   UNL     1      26.474  43.475  51.108  1.00  0.00    -0.240 N 
HETATM    5  N   UNL     1      27.334  44.294  51.739  1.00  0.00    -0.165 NA
HETATM    6  C   UNL     1      26.572  44.852  52.711  1.00  0.00     0.148 A 
HETATM    7  C   UNL     1      25.224  44.402  52.637  1.00  0.00     0.088 A 
HETATM    8  C   UNL     1      26.848  42.694  49.949  1.00  0.00     0.221 C 
HETATM    9  C   UNL     1      25.703  42.753  48.929  1.00  0.00     0.066 C 
HETATM   10  H   UNL     1      23.227  43.021  51.245  1.00  0.00     0.161 HD
ENDROOT
BRANCH   6  11
HETATM   11  C   UNL     1      27.117  45.824  53.670  1.00  0.00     0.272 C 
HETATM   12  N   UNL     1      28.076  45.290  54.493  1.00  0.00    -0.351 N 
HETATM   13  H   UNL     1      28.356  44.335  54.291  1.00  0.00     0.163 HD
HETATM   14  O   UNL     1      26.757  46.997  53.711  1.00  0.00    -0.266 OA
BRANCH  12  15
HETATM   15  C   UNL     1      28.804  46.086  55.442  1.00  0.00     0.161 C 
BRANCH  15  16
HETATM   16  C   UNL     1      29.813  45.254  56.189  1.00  0.00    -0.041 A 
HETATM   17  C   UNL     1      30.234  45.618  57.474  1.00  0.00     0.009 A 
HETATM   18  C   UNL     1      31.166  44.838  58.162  1.00  0.00     0.001 A 
HETATM   19  C   UNL     1      31.684  43.687  57.572  1.00  0.00     0.000 A 
HETATM   20  C   UNL     1      31.269  43.310  56.297  1.00  0.00     0.001 A 
HETATM   21  C   UNL     1      30.335  44.086  55.610  1.00  0.00     0.009 A 
ENDBRANCH  15  16
ENDBRANCH  12  15
ENDBRANCH   6  11
BRANCH   8  22
HETATM   22  C   UNL     1      27.200  41.282  50.353  1.00  0.00     0.409 C 
HETATM   23  F   UNL     1      26.868  40.376  49.407  1.00  0.00    -0.169 F 
HETATM   24  F   UNL     1      28.505  41.111  50.651  1.00  0.00    -0.169 F 
HETATM   25  F   UNL     1      26.503  40.944  51.471  1.00  0.00    -0.169 F 
ENDBRANCH   8  22
BRANCH   1  26
HETATM   26  C   UNL     1      23.200  43.032  48.724  1.00  0.00    -0.035 A 
HETATM   27  C   UNL     1      22.908  42.537  47.440  1.00  0.00     0.012 A 
HETATM   28  C   UNL     1      21.875  43.080  46.674  1.00  0.00     0.037 A 
HETATM   29  C   UNL     1      21.118  44.138  47.172  1.00  0.00     0.068 A 
HETATM   30  C   UNL     1      21.423  44.659  48.432  1.00  0.00     0.037 A 
HETATM   31  C   UNL     1      22.452  44.111  49.207  1.00  0.00     0.012 A 
BRANCH  29  32
HETATM   32  O   UNL     1      20.082  44.752  46.526  1.00  0.00    -0.356 OA
HETATM   33  C   UNL     1      19.149  43.898  45.872  1.00  0.00     0.210 C 
ENDBRANCH  29  32
ENDBRANCH   1  26
TORSDOF 6
ENDMDL
MODEL 9
REMARK VINA RESULT:      -8.4      3.774      4.816
REMARK  6 active torsions:
REMARK  status: ('A' for Active; 'I' for Inactive)
REMARK    1  A    between atoms: O_2  and  C_3 
REMARK    2  A    between atoms: C_6  and  C_7 
REMARK    3  A    between atoms: C_12  and  C_13 
REMARK       I    between atoms: C_13  and  N_14 
REMARK    4  A    between atoms: N_14  and  C_15 
REMARK    5  A    between atoms: C_15  and  C_16 
REMARK    6  A    between atoms: C_24  and  C_25 
ROOT
HETATM    1  C   UNL     1      28.805  42.727  52.363  1.00  0.00     0.118 C 
HETATM    2  N   UNL     1      28.112  43.714  51.532  1.00  0.00    -0.366 N 
HETATM    3  C   UNL     1      26.842  43.535  51.119  1.00  0.00     0.123 A 
HETATM    4  N   UNL     1      26.276  42.293  51.113  1.00  0.00    -0.240 N 
HETATM    5  N   UNL     1      24.965  42.289  50.817  1.00  0.00    -0.165 NA
HETATM    6  C   UNL     1      24.714  43.584  50.506  1.00  0.00     0.148 A 
HETATM    7  C   UNL     1      25.876  44.390  50.662  1.00  0.00     0.088 A 
HETATM    8  C   UNL     1      26.981  41.109  51.556  1.00  0.00     0.221 C 
HETATM    9  C   UNL     1      27.925  41.500  52.700  1.00  0.00     0.066 C 
HETATM   10  H   UNL     1      28.513  44.652  51.565  1.00  0.00     0.161 HD
ENDROOT
BRANCH   6  11
HETATM   11  C   UNL     1      23.379  44.046  50.101  1.00  0.00     0.272 C 
HETATM   12  N   UNL     1      23.412  44.959  49.076  1.00  0.00    -0.351 N 
HETATM   13  H   UNL     1      24.324  45.137  48.667  1.00  0.00     0.163 HD
HETATM   14  O   UNL     1      22.344  43.639  50.619  1.00  0.00    -0.266 OA
BRANCH  12  15
HETATM   15  C   UNL     1      22.218  45.472  48.465  1.00  0.00     0.161 C 
BRANCH  15  16
HETATM   16  C   UNL     1      22.221  45.232  46.978  1.00  0.00    -0.041 A 
HETATM   17  C   UNL     1      21.363  45.947  46.133  1.00  0.00     0.009 A 
HETATM   18  C   UNL     1      21.376  45.723  44.755  1.00  0.00     0.001 A 
HETATM   19  C   UNL     1      22.249  44.783  44.210  1.00  0.00     0.000 A 
HETATM   20  C   UNL     1      23.111  44.069  45.038  1.00  0.00     0.001 A 
HETATM   21  C   UNL     1      23.102  44.295  46.414  1.00  0.00     0.009 A 
ENDBRANCH  15  16
ENDBRANCH  12  15
ENDBRANCH   6  11
BRANCH   8  22
HETATM   22  C   UNL     1      27.701  40.458  50.399  1.00  0.00     0.409 C 
HETATM   23  F   UNL     1      28.883  39.917  50.766  1.00  0.00    -0.169 F 
HETATM   24  F   UNL     1      26.980  39.500  49.779  1.00  0.00    -0.169 F 
HETATM   25  F   UNL     1      27.984  41.397  49.456  1.00  0.00    -0.169 F 
ENDBRANCH   8  22
BRANCH   1  26
HETATM   26  C   UNL     1      29.274  43.424  53.631  1.00  0.00    -0.035 A 
HETATM   27  C   UNL     1      28.573  44.531  54.142  1.00  0.00     0.012 A 
HETATM   28  C   UNL     1      28.990  45.176  55.308  1.00  0.00     0.037 A 
HETATM   29  C   UNL     1      30.125  44.732  55.983  1.00  0.00     0.068 A 
HETATM   30  C   UNL     1      30.847  43.654  55.465  1.00  0.00     0.037 A 
HETATM   31  C   UNL     1      30.426  43.000  54.301  1.00  0.00     0.012 A 
BRANCH  29  32
HETATM   32  O   UNL     1      30.631  45.271  57.132  1.00  0.00    -0.356 OA
HETATM   33  C   UNL     1      29.709  45.961  57.968  1.00  0.00     0.210 C 
ENDBRANCH  29  32
ENDBRANCH   1  26
TORSDOF 6
ENDMDL
MODEL 10
REMARK VINA RESULT:      -8.2      4.826     10.654
REMARK  6 active torsions:
REMARK  status: ('A' for Active; 'I' for Inactive)
REMARK    1  A    between atoms: O_2  and  C_3 
REMARK    2  A    between atoms: C_6  and  C_7 
REMARK    3  A    between atoms: C_12  and  C_13 
REMARK       I    between atoms: C_13  and  N_14 
REMARK    4  A    between atoms: N_14  and  C_15 
REMARK    5  A    between atoms: C_15  and  C_16 
REMARK    6  A    between atoms: C_24  and  C_25 
ROOT
HETATM    1  C   UNL     1      20.223  50.954  48.229  1.00  0.00     0.118 C 
HETATM    2  N   UNL     1      20.188  49.718  47.444  1.00  0.00    -0.366 N 
HETATM    3  C   UNL     1      20.861  48.613  47.821  1.00  0.00     0.123 A 
HETATM    4  N   UNL     1      21.896  48.691  48.707  1.00  0.00    -0.240 N 
HETATM    5  N   UNL     1      22.374  47.498  49.098  1.00  0.00    -0.165 NA
HETATM    6  C   UNL     1      21.681  46.621  48.331  1.00  0.00     0.148 A 
HETATM    7  C   UNL     1      20.739  47.288  47.500  1.00  0.00     0.088 A 
HETATM    8  C   UNL     1      22.323  49.938  49.304  1.00  0.00     0.221 C 
HETATM    9  C   UNL     1      21.093  50.834  49.503  1.00  0.00     0.066 C 
HETATM   10  H   UNL     1      19.393  49.643  46.808  1.00  0.00     0.161 HD
ENDROOT
BRANCH   6  11
HETATM   11  C   UNL     1      21.894  45.169  48.418  1.00  0.00     0.272 C 
HETATM   12  N   UNL     1      22.523  44.784  49.576  1.00  0.00    -0.351 N 
HETATM   13  H   UNL     1      22.684  45.516  50.261  1.00  0.00     0.163 HD
HETATM   14  O   UNL     1      21.528  44.385  47.547  1.00  0.00    -0.266 OA
BRANCH  12  15
HETATM   15  C   UNL     1      22.748  43.404  49.906  1.00  0.00     0.161 C 
BRANCH  15  16
HETATM   16  C   UNL     1      24.189  43.021  49.691  1.00  0.00    -0.041 A 
HETATM   17  C   UNL     1      24.537  41.716  49.317  1.00  0.00     0.009 A 
HETATM   18  C   UNL     1      25.874  41.371  49.115  1.00  0.00     0.001 A 
HETATM   19  C   UNL     1      26.875  42.326  49.282  1.00  0.00     0.000 A 
HETATM   20  C   UNL     1      26.542  43.627  49.648  1.00  0.00     0.001 A 
HETATM   21  C   UNL     1      25.206  43.976  49.847  1.00  0.00     0.009 A 
ENDBRANCH  15  16
ENDBRANCH  12  15
ENDBRANCH   6  11
BRANCH   8  22
HETATM   22  C   UNL     1      23.391  50.591  48.458  1.00  0.00     0.409 C 
HETATM   23  F   UNL     1      23.407  50.119  47.192  1.00  0.00    -0.169 F 
HETATM   24  F   UNL     1      23.292  51.935  48.398  1.00  0.00    -0.169 F 
HETATM   25  F   UNL     1      24.615  50.319  48.985  1.00  0.00    -0.169 F 
ENDBRANCH   8  22
BRANCH   1  26
HETATM   26  C   UNL     1      18.792  51.329  48.584  1.00  0.00    -0.035 A 
HETATM   27  C   UNL     1      18.525  52.248  49.615  1.00  0.00     0.012 A 
HETATM   28  C   UNL     1      17.216  52.604  49.945  1.00  0.00     0.037 A 
HETATM   29  C   UNL     1      16.145  52.038  49.258  1.00  0.00     0.068 A 
HETATM   30  C   UNL     1      16.398  51.098  48.256  1.00  0.00     0.037 A 
HETATM   31  C   UNL     1      17.709  50.747  47.915  1.00  0.00     0.012 A 
BRANCH  29  32
HETATM   32  O   UNL     1      14.823  52.306  49.483  1.00  0.00    -0.356 OA
HETATM   33  C   UNL     1      14.523  53.096  50.627  1.00  0.00     0.210 C 
ENDBRANCH  29  32
ENDBRANCH   1  26
TORSDOF 6
ENDMDL
