MODEL 1
REMARK VINA RESULT:     -10.2      0.000      0.000
REMARK  5 active torsions:
REMARK  status: ('A' for Active; 'I' for Inactive)
REMARK    1  A    between atoms: C_5  and  C_6 
REMARK    2  A    between atoms: C_10  and  C_11 
REMARK       I    between atoms: C_11  and  N_12 
REMARK    3  A    between atoms: N_12  and  N_13 
REMARK       I    between atoms: N_13  and  C_14 
REMARK       I    between atoms: C_14  and  N_15 
REMARK    4  A    between atoms: N_15  and  C_16 
REMARK    5  A    between atoms: C_16  and  C_17 
ROOT
HETATM    1  C   UNL     1      26.031  44.782  50.096  1.00  0.00     0.288 C 
HETATM    2  N   UNL     1      25.483  44.048  51.136  1.00  0.00    -0.261 N 
HETATM    3  O   UNL     1      26.935  44.338  49.390  1.00  0.00    -0.264 OA
HETATM    4  H   UNL     1      24.561  44.284  51.489  1.00  0.00     0.190 HD
ENDROOT
BRANCH   2   5
HETATM    5  N   UNL     1      25.836  42.692  51.198  1.00  0.00    -0.249 N 
HETATM    6  C   UNL     1      26.932  42.216  51.864  1.00  0.00     0.334 C 
HETATM    7  N   UNL     1      27.736  43.189  52.412  1.00  0.00    -0.341 N 
HETATM    8  O   UNL     1      27.145  41.013  51.954  1.00  0.00    -0.246 OA
HETATM    9  H   UNL     1      27.745  44.024  51.844  1.00  0.00     0.164 HD
HETATM   10  H   UNL     1      25.244  42.025  50.706  1.00  0.00     0.192 HD
BRANCH   7  11
HETATM   11  C   UNL     1      28.998  42.783  53.000  1.00  0.00     0.129 C 
BRANCH  11  12
HETATM   12  C   UNL     1      29.606  43.792  53.983  1.00  0.00     0.004 C 
HETATM   13  C   UNL     1      30.387  43.106  55.115  1.00  0.00     0.010 C 
HETATM   14  C   UNL     1      31.067  44.143  56.022  1.00  0.00    -0.018 C 
HETATM   15  C   UNL     1      31.825  43.459  57.157  1.00  0.00     0.010 C 
HETATM   16  C   UNL     1      30.041  45.141  56.577  1.00  0.00     0.004 C 
HETATM   17  C   UNL     1      29.230  45.802  55.464  1.00  0.00     0.001 C 
HETATM   18  C   UNL     1      28.569  44.768  54.556  1.00  0.00     0.006 C 
ENDBRANCH  11  12
ENDBRANCH   7  11
ENDBRANCH   2   5
BRANCH   1  19
HETATM   19  C   UNL     1      25.454  46.078  49.869  1.00  0.00     0.121 A 
HETATM   20  N   UNL     1      26.209  47.213  49.961  1.00  0.00    -0.272 N 
HETATM   21  N   UNL     1      25.530  48.345  49.737  1.00  0.00    -0.174 NA
HETATM   22  H   UNL     1      27.200  47.270  50.180  1.00  0.00     0.189 HD
HETATM   23  C   UNL     1      24.275  47.947  49.481  1.00  0.00     0.089 A 
HETATM   24  C   UNL     1      24.186  46.526  49.554  1.00  0.00     0.071 A 
BRANCH  23  25
HETATM   25  C   UNL     1      23.208  48.912  49.194  1.00  0.00    -0.006 A 
HETATM   26  C   UNL     1      21.860  48.526  49.176  1.00  0.00     0.014 A 
HETATM   27  C   UNL     1      20.852  49.462  48.917  1.00  0.00     0.007 A 
HETATM   28  C   UNL     1      21.171  50.799  48.660  1.00  0.00    -0.062 A 
HETATM   29  C   UNL     1      20.095  51.815  48.415  1.00  0.00     0.048 C 
HETATM   30  C   UNL     1      22.513  51.191  48.679  1.00  0.00     0.007 A 
HETATM   31  C   UNL     1      23.520  50.255  48.938  1.00  0.00     0.014 A 
ENDBRANCH  23  25
ENDBRANCH   1  19
TORSDOF 5
ENDMDL
MODEL 2
REMARK VINA RESULT:     -10.1      2.131     10.353
REMARK  5 active torsions:
REMARK  status: ('A' for Active; 'I' for Inactive)
REMARK    1  A    between atoms: C_5  and  C_6 
REMARK    2  A    between atoms: C_10  and  C_11 
REMARK       I    between atoms: C_11  and  N_12 
REMARK    3  A    between atoms: N_12  and  N_13 
REMARK       I    between atoms: N_13  and  C_14 
REMARK       I    between atoms: C_14  and  N_15 
REMARK    4  A    between atoms: N_15  and  C_16 
REMARK    5  A    between atoms: C_16  and  C_17 
ROOT
HETATM    1  C   UNL     1      24.566  44.996  51.603  1.00  0.00     0.288 C 
HETATM    2  N   UNL     1      24.285  46.104  50.819  1.00  0.00    -0.261 N 
HETATM    3  O   UNL     1      23.963  43.932  51.470  1.00  0.00    -0.264 OA
HETATM    4  H   UNL     1      24.975  46.841  50.721  1.00  0.00     0.190 HD
ENDROOT
BRANCH   2   5
HETATM    5  N   UNL     1      23.451  45.890  49.712  1.00  0.00    -0.249 N 
HETATM    6  C   UNL     1      23.090  46.867  48.825  1.00  0.00     0.334 C 
HETATM    7  N   UNL     1      23.539  48.127  49.148  1.00  0.00    -0.341 N 
HETATM    8  O   UNL     1      22.426  46.605  47.829  1.00  0.00    -0.246 OA
HETATM    9  H   UNL     1      23.572  48.263  50.148  1.00  0.00     0.164 HD
HETATM   10  H   UNL     1      23.085  44.950  49.569  1.00  0.00     0.192 HD
BRANCH   7  11
HETATM   11  C   UNL     1      23.073  49.245  48.350  1.00  0.00     0.129 C 
BRANCH  11  12
HETATM   12  C   UNL     1      21.661  49.738  48.693  1.00  0.00     0.004 C 
HETATM   13  C   UNL     1      20.876  50.173  47.445  1.00  0.00     0.010 C 
HETATM   14  C   UNL     1      19.436  50.563  47.808  1.00  0.00    -0.018 C 
HETATM   15  C   UNL     1      18.665  51.013  46.569  1.00  0.00     0.010 C 
HETATM   16  C   UNL     1      19.420  51.657  48.885  1.00  0.00     0.004 C 
HETATM   17  C   UNL     1      20.230  51.254  50.116  1.00  0.00     0.001 C 
HETATM   18  C   UNL     1      21.656  50.852  49.749  1.00  0.00     0.006 C 
ENDBRANCH  11  12
ENDBRANCH   7  11
ENDBRANCH   2   5
BRANCH   1  19
HETATM   19  C   UNL     1      25.631  45.153  52.555  1.00  0.00     0.121 A 
HETATM   20  N   UNL     1      25.804  46.326  53.234  1.00  0.00    -0.272 N 
HETATM   21  N   UNL     1      26.846  46.325  54.075  1.00  0.00    -0.174 NA
HETATM   22  H   UNL     1      25.237  47.166  53.156  1.00  0.00     0.189 HD
HETATM   23  C   UNL     1      27.384  45.102  53.954  1.00  0.00     0.089 A 
HETATM   24  C   UNL     1      26.647  44.334  53.007  1.00  0.00     0.071 A 
BRANCH  23  25
HETATM   25  C   UNL     1      28.572  44.710  54.719  1.00  0.00    -0.006 A 
HETATM   26  C   UNL     1      29.136  45.562  55.679  1.00  0.00     0.014 A 
HETATM   27  C   UNL     1      30.262  45.167  56.413  1.00  0.00     0.007 A 
HETATM   28  C   UNL     1      30.851  43.917  56.194  1.00  0.00    -0.062 A 
HETATM   29  C   UNL     1      32.035  43.473  57.000  1.00  0.00     0.048 C 
HETATM   30  C   UNL     1      30.291  43.062  55.240  1.00  0.00     0.007 A 
HETATM   31  C   UNL     1      29.168  43.458  54.507  1.00  0.00     0.014 A 
ENDBRANCH  23  25
ENDBRANCH   1  19
TORSDOF 5
ENDMDL
MODEL 3
REMARK VINA RESULT:      -9.7      2.096      9.443
REMARK  5 active torsions:
REMARK  status: ('A' for Active; 'I' for Inactive)
REMARK    1  A    between atoms: C_5  and  C_6 
REMARK    2  A    between atoms: C_10  and  C_11 
REMARK       I    between atoms: C_11  and  N_12 
REMARK    3  A    between atoms: N_12  and  N_13 
REMARK       I    between atoms: N_13  and  C_14 
REMARK       I    between atoms: C_14  and  N_15 
REMARK    4  A    between atoms: N_15  and  C_16 
REMARK    5  A    between atoms: C_16  and  C_17 
ROOT
HETATM    1  C   UNL     1      24.551  43.580  50.866  1.00  0.00     0.288 C 
HETATM    2  N   UNL     1      23.686  44.556  50.397  1.00  0.00    -0.261 N 
HETATM    3  O   UNL     1      24.497  42.416  50.471  1.00  0.00    -0.264 OA
HETATM    4  H   UNL     1      23.936  45.536  50.483  1.00  0.00     0.190 HD
ENDROOT
BRANCH   2   5
HETATM    5  N   UNL     1      22.907  44.217  49.282  1.00  0.00    -0.249 N 
HETATM    6  C   UNL     1      22.094  45.095  48.619  1.00  0.00     0.334 C 
HETATM    7  N   UNL     1      22.021  46.347  49.186  1.00  0.00    -0.341 N 
HETATM    8  O   UNL     1      21.499  44.764  47.600  1.00  0.00    -0.246 OA
HETATM    9  H   UNL     1      22.095  46.302  50.192  1.00  0.00     0.164 HD
HETATM   10  H   UNL     1      22.942  43.253  48.954  1.00  0.00     0.192 HD
BRANCH   7  11
HETATM   11  C   UNL     1      21.064  47.291  48.640  1.00  0.00     0.129 C 
BRANCH  11  12
HETATM   12  C   UNL     1      21.653  48.654  48.254  1.00  0.00     0.004 C 
HETATM   13  C   UNL     1      23.187  48.677  48.356  1.00  0.00     0.010 C 
HETATM   14  C   UNL     1      23.751  50.019  47.866  1.00  0.00    -0.018 C 
HETATM   15  C   UNL     1      25.274  50.045  47.988  1.00  0.00     0.010 C 
HETATM   16  C   UNL     1      23.124  51.190  48.635  1.00  0.00     0.004 C 
HETATM   17  C   UNL     1      21.598  51.158  48.575  1.00  0.00     0.001 C 
HETATM   18  C   UNL     1      21.042  49.817  49.048  1.00  0.00     0.006 C 
ENDBRANCH  11  12
ENDBRANCH   7  11
ENDBRANCH   2   5
BRANCH   1  19
HETATM   19  C   UNL     1      25.538  44.017  51.814  1.00  0.00     0.121 A 
HETATM   20  N   UNL     1      25.593  45.318  52.228  1.00  0.00    -0.272 N 
HETATM   21  N   UNL     1      26.574  45.576  53.101  1.00  0.00    -0.174 NA
HETATM   22  H   UNL     1      24.982  46.077  51.938  1.00  0.00     0.189 HD
HETATM   23  C   UNL     1      27.193  44.399  53.279  1.00  0.00     0.089 A 
HETATM   24  C   UNL     1      26.570  43.392  52.486  1.00  0.00     0.071 A 
BRANCH  23  25
HETATM   25  C   UNL     1      28.350  44.270  54.172  1.00  0.00    -0.006 A 
HETATM   26  C   UNL     1      28.702  45.293  55.063  1.00  0.00     0.014 A 
HETATM   27  C   UNL     1      29.799  45.149  55.921  1.00  0.00     0.007 A 
HETATM   28  C   UNL     1      30.572  43.984  55.897  1.00  0.00    -0.062 A 
HETATM   29  C   UNL     1      31.728  43.807  56.836  1.00  0.00     0.048 C 
HETATM   30  C   UNL     1      30.225  42.958  55.012  1.00  0.00     0.007 A 
HETATM   31  C   UNL     1      29.129  43.104  54.155  1.00  0.00     0.014 A 
ENDBRANCH  23  25
ENDBRANCH   1  19
TORSDOF 5
ENDMDL
MODEL 4
REMARK VINA RESULT:      -9.5      1.552      2.437
REMARK  5 active torsions:
REMARK  status: ('A' for Active; 'I' for Inactive)
REMARK    1  A    between atoms: C_5  and  C_6 
REMARK    2  A    between atoms: C_10  and  C_11 
REMARK       I    between atoms: C_11  and  N_12 
REMARK    3  A    between atoms: N_12  and  N_13 
REMARK       I    between atoms: N_13  and  C_14 
REMARK       I    between atoms: C_14  and  N_15 
REMARK    4  A    between atoms: N_15  and  C_16 
REMARK    5  A    between atoms: C_16  and  C_17 
ROOT
HETATM    1  C   UNL     1      25.733  47.412  49.461  1.00  0.00     0.288 C 
HETATM    2  N   UNL     1      25.238  46.132  49.649  1.00  0.00    -0.261 N 
HETATM    3  O   UNL     1      26.940  47.653  49.472  1.00  0.00    -0.264 OA
HETATM    4  H   UNL     1      24.303  45.901  49.331  1.00  0.00     0.190 HD
ENDROOT
BRANCH   2   5
HETATM    5  N   UNL     1      26.174  45.088  49.615  1.00  0.00    -0.249 N 
HETATM    6  C   UNL     1      26.534  44.345  50.706  1.00  0.00     0.334 C 
HETATM    7  N   UNL     1      25.967  44.757  51.890  1.00  0.00    -0.341 N 
HETATM    8  O   UNL     1      27.296  43.391  50.600  1.00  0.00    -0.246 OA
HETATM    9  H   UNL     1      25.841  45.758  51.912  1.00  0.00     0.164 HD
HETATM   10  H   UNL     1      26.620  44.880  48.723  1.00  0.00     0.192 HD
BRANCH   7  11
HETATM   11  C   UNL     1      26.413  44.126  53.118  1.00  0.00     0.129 C 
BRANCH  11  12
HETATM   12  C   UNL     1      27.676  44.740  53.737  1.00  0.00     0.004 C 
HETATM   13  C   UNL     1      28.555  43.689  54.432  1.00  0.00     0.010 C 
HETATM   14  C   UNL     1      29.858  44.316  54.950  1.00  0.00    -0.018 C 
HETATM   15  C   UNL     1      30.720  43.272  55.658  1.00  0.00     0.010 C 
HETATM   16  C   UNL     1      29.563  45.499  55.882  1.00  0.00     0.004 C 
HETATM   17  C   UNL     1      28.657  46.534  55.218  1.00  0.00     0.001 C 
HETATM   18  C   UNL     1      27.370  45.904  54.690  1.00  0.00     0.006 C 
ENDBRANCH  11  12
ENDBRANCH   7  11
ENDBRANCH   2   5
BRANCH   1  19
HETATM   19  C   UNL     1      24.755  48.435  49.215  1.00  0.00     0.121 A 
HETATM   20  N   UNL     1      25.106  49.627  48.647  1.00  0.00    -0.272 N 
HETATM   21  N   UNL     1      24.089  50.484  48.495  1.00  0.00    -0.174 NA
HETATM   22  H   UNL     1      26.036  49.909  48.347  1.00  0.00     0.189 HD
HETATM   23  C   UNL     1      23.019  49.835  48.976  1.00  0.00     0.089 A 
HETATM   24  C   UNL     1      23.396  48.541  49.439  1.00  0.00     0.071 A 
BRANCH  23  25
HETATM   25  C   UNL     1      21.691  50.458  48.996  1.00  0.00    -0.006 A 
HETATM   26  C   UNL     1      21.100  50.878  50.197  1.00  0.00     0.014 A 
HETATM   27  C   UNL     1      19.839  51.486  50.199  1.00  0.00     0.007 A 
HETATM   28  C   UNL     1      19.139  51.676  49.003  1.00  0.00    -0.062 A 
HETATM   29  C   UNL     1      17.803  52.357  48.993  1.00  0.00     0.048 C 
HETATM   30  C   UNL     1      19.723  51.261  47.803  1.00  0.00     0.007 A 
HETATM   31  C   UNL     1      20.983  50.654  47.802  1.00  0.00     0.014 A 
ENDBRANCH  23  25
ENDBRANCH   1  19
TORSDOF 5
ENDMDL
MODEL 5
REMARK VINA RESULT:      -9.4      2.218     10.092
REMARK  5 active torsions:
REMARK  status: ('A' for Active; 'I' for Inactive)
REMARK    1  A    between atoms: C_5  and  C_6 
REMARK    2  A    between atoms: C_10  and  C_11 
REMARK       I    between atoms: C_11  and  N_12 
REMARK    3  A    between atoms: N_12  and  N_13 
REMARK       I    between atoms: N_13  and  C_14 
REMARK       I    between atoms: C_14  and  N_15 
REMARK    4  A    between atoms: N_15  and  C_16 
REMARK    5  A    between atoms: C_16  and  C_17 
ROOT
HETATM    1  C   UNL     1      24.309  45.653  49.869  1.00  0.00     0.288 C 
HETATM    2  N   UNL     1      23.831  46.954  49.878  1.00  0.00    -0.261 N 
HETATM    3  O   UNL     1      24.163  44.911  48.899  1.00  0.00    -0.264 OA
HETATM    4  H   UNL     1      24.220  47.630  50.526  1.00  0.00     0.190 HD
ENDROOT
BRANCH   2   5
HETATM    5  N   UNL     1      23.386  47.464  48.650  1.00  0.00    -0.249 N 
HETATM    6  C   UNL     1      22.977  48.756  48.460  1.00  0.00     0.334 C 
HETATM    7  N   UNL     1      22.947  49.521  49.604  1.00  0.00    -0.341 N 
HETATM    8  O   UNL     1      22.677  49.169  47.346  1.00  0.00    -0.246 OA
HETATM    9  H   UNL     1      22.699  48.968  50.412  1.00  0.00     0.164 HD
HETATM   10  H   UNL     1      23.357  46.828  47.855  1.00  0.00     0.192 HD
BRANCH   7  11
HETATM   11  C   UNL     1      22.379  50.853  49.522  1.00  0.00     0.129 C 
BRANCH  11  12
HETATM   12  C   UNL     1      20.891  50.943  49.885  1.00  0.00     0.004 C 
HETATM   13  C   UNL     1      20.249  49.557  50.058  1.00  0.00     0.010 C 
HETATM   14  C   UNL     1      18.789  49.681  50.520  1.00  0.00    -0.018 C 
HETATM   15  C   UNL     1      18.148  48.303  50.673  1.00  0.00     0.010 C 
HETATM   16  C   UNL     1      17.980  50.552  49.550  1.00  0.00     0.004 C 
HETATM   17  C   UNL     1      18.628  51.919  49.337  1.00  0.00     0.001 C 
HETATM   18  C   UNL     1      20.084  51.792  48.893  1.00  0.00     0.006 C 
ENDBRANCH  11  12
ENDBRANCH   7  11
ENDBRANCH   2   5
BRANCH   1  19
HETATM   19  C   UNL     1      25.017  45.235  51.047  1.00  0.00     0.121 A 
HETATM   20  N   UNL     1      24.348  44.825  52.166  1.00  0.00    -0.272 N 
HETATM   21  N   UNL     1      25.143  44.480  53.186  1.00  0.00    -0.174 NA
HETATM   22  H   UNL     1      23.340  44.766  52.286  1.00  0.00     0.189 HD
HETATM   23  C   UNL     1      26.390  44.664  52.727  1.00  0.00     0.089 A 
HETATM   24  C   UNL     1      26.353  45.138  51.383  1.00  0.00     0.071 A 
BRANCH  23  25
HETATM   25  C   UNL     1      27.562  44.402  53.569  1.00  0.00    -0.006 A 
HETATM   26  C   UNL     1      28.293  43.211  53.452  1.00  0.00     0.014 A 
HETATM   27  C   UNL     1      29.419  42.981  54.251  1.00  0.00     0.007 A 
HETATM   28  C   UNL     1      29.831  43.933  55.189  1.00  0.00    -0.062 A 
HETATM   29  C   UNL     1      31.057  43.710  56.025  1.00  0.00     0.048 C 
HETATM   30  C   UNL     1      29.109  45.124  55.309  1.00  0.00     0.007 A 
HETATM   31  C   UNL     1      27.983  45.351  54.511  1.00  0.00     0.014 A 
ENDBRANCH  23  25
ENDBRANCH   1  19
TORSDOF 5
ENDMDL
MODEL 6
REMARK VINA RESULT:      -9.4      2.739     10.132
REMARK  5 active torsions:
REMARK  status: ('A' for Active; 'I' for Inactive)
REMARK    1  A    between atoms: C_5  and  C_6 
REMARK    2  A    between atoms: C_10  and  C_11 
REMARK       I    between atoms: C_11  and  N_12 
REMARK    3  A    between atoms: N_12  and  N_13 
REMARK       I    between atoms: N_13  and  C_14 
REMARK       I    between atoms: C_14  and  N_15 
REMARK    4  A    between atoms: N_15  and  C_16 
REMARK    5  A    between atoms: C_16  and  C_17 
ROOT
HETATM    1  C   UNL     1      23.599  44.507  49.199  1.00  0.00     0.288 C 
HETATM    2  N   UNL     1      22.283  44.873  49.439  1.00  0.00    -0.261 N 
HETATM    3  O   UNL     1      23.975  44.111  48.097  1.00  0.00    -0.264 OA
HETATM    4  H   UNL     1      22.063  45.476  50.224  1.00  0.00     0.190 HD
ENDROOT
BRANCH   2   5
HETATM    5  N   UNL     1      21.455  44.999  48.314  1.00  0.00    -0.249 N 
HETATM    6  C   UNL     1      20.488  45.958  48.179  1.00  0.00     0.334 C 
HETATM    7  N   UNL     1      20.316  46.758  49.285  1.00  0.00    -0.341 N 
HETATM    8  O   UNL     1      19.850  46.072  47.139  1.00  0.00    -0.246 OA
HETATM    9  H   UNL     1      20.483  46.247  50.140  1.00  0.00     0.164 HD
HETATM   10  H   UNL     1      21.577  44.328  47.558  1.00  0.00     0.192 HD
BRANCH   7  11
HETATM   11  C   UNL     1      19.209  47.695  49.287  1.00  0.00     0.129 C 
BRANCH  11  12
HETATM   12  C   UNL     1      19.615  49.171  49.390  1.00  0.00     0.004 C 
HETATM   13  C   UNL     1      18.399  50.103  49.516  1.00  0.00     0.010 C 
HETATM   14  C   UNL     1      18.841  51.560  49.719  1.00  0.00    -0.018 C 
HETATM   15  C   UNL     1      17.630  52.485  49.824  1.00  0.00     0.010 C 
HETATM   16  C   UNL     1      19.774  52.012  48.588  1.00  0.00     0.004 C 
HETATM   17  C   UNL     1      20.967  51.072  48.425  1.00  0.00     0.001 C 
HETATM   18  C   UNL     1      20.525  49.623  48.239  1.00  0.00     0.006 C 
ENDBRANCH  11  12
ENDBRANCH   7  11
ENDBRANCH   2   5
BRANCH   1  19
HETATM   19  C   UNL     1      24.504  44.653  50.305  1.00  0.00     0.121 A 
HETATM   20  N   UNL     1      24.340  45.649  51.226  1.00  0.00    -0.272 N 
HETATM   21  N   UNL     1      25.269  45.666  52.189  1.00  0.00    -0.174 NA
HETATM   22  H   UNL     1      23.606  46.352  51.239  1.00  0.00     0.189 HD
HETATM   23  C   UNL     1      26.081  44.638  51.901  1.00  0.00     0.089 A 
HETATM   24  C   UNL     1      25.632  43.974  50.721  1.00  0.00     0.071 A 
BRANCH  23  25
HETATM   25  C   UNL     1      27.250  44.328  52.731  1.00  0.00    -0.006 A 
HETATM   26  C   UNL     1      27.399  44.876  54.013  1.00  0.00     0.014 A 
HETATM   27  C   UNL     1      28.512  44.559  54.801  1.00  0.00     0.007 A 
HETATM   28  C   UNL     1      29.502  43.696  54.319  1.00  0.00    -0.062 A 
HETATM   29  C   UNL     1      30.680  43.324  55.170  1.00  0.00     0.048 C 
HETATM   30  C   UNL     1      29.357  43.144  53.043  1.00  0.00     0.007 A 
HETATM   31  C   UNL     1      28.245  43.462  52.257  1.00  0.00     0.014 A 
ENDBRANCH  23  25
ENDBRANCH   1  19
TORSDOF 5
ENDMDL
MODEL 7
REMARK VINA RESULT:      -8.9      2.761      4.744
REMARK  5 active torsions:
REMARK  status: ('A' for Active; 'I' for Inactive)
REMARK    1  A    between atoms: C_5  and  C_6 
REMARK    2  A    between atoms: C_10  and  C_11 
REMARK       I    between atoms: C_11  and  N_12 
REMARK    3  A    between atoms: N_12  and  N_13 
REMARK       I    between atoms: N_13  and  C_14 
REMARK       I    between atoms: C_14  and  N_15 
REMARK    4  A    between atoms: N_15  and  C_16 
REMARK    5  A    between atoms: C_16  and  C_17 
ROOT
HETATM    1  C   UNL     1      23.609  49.325  48.801  1.00  0.00     0.288 C 
HETATM    2  N   UNL     1      24.167  48.360  49.625  1.00  0.00    -0.261 N 
HETATM    3  O   UNL     1      24.275  49.931  47.962  1.00  0.00    -0.264 OA
HETATM    4  H   UNL     1      23.570  47.670  50.069  1.00  0.00     0.190 HD
ENDROOT
BRANCH   2   5
HETATM    5  N   UNL     1      25.463  47.936  49.301  1.00  0.00    -0.249 N 
HETATM    6  C   UNL     1      26.031  46.782  49.769  1.00  0.00     0.334 C 
HETATM    7  N   UNL     1      25.259  46.090  50.673  1.00  0.00    -0.341 N 
HETATM    8  O   UNL     1      27.138  46.420  49.386  1.00  0.00    -0.246 OA
HETATM    9  H   UNL     1      24.708  46.715  51.244  1.00  0.00     0.164 HD
HETATM   10  H   UNL     1      26.017  48.531  48.687  1.00  0.00     0.192 HD
BRANCH   7  11
HETATM   11  C   UNL     1      25.846  44.942  51.337  1.00  0.00     0.129 C 
BRANCH  11  12
HETATM   12  C   UNL     1      26.804  45.282  52.486  1.00  0.00     0.004 C 
HETATM   13  C   UNL     1      27.619  44.062  52.946  1.00  0.00     0.010 C 
HETATM   14  C   UNL     1      28.640  44.456  54.024  1.00  0.00    -0.018 C 
HETATM   15  C   UNL     1      29.433  43.238  54.493  1.00  0.00     0.010 C 
HETATM   16  C   UNL     1      27.946  45.142  55.209  1.00  0.00     0.004 C 
HETATM   17  C   UNL     1      27.101  46.333  54.762  1.00  0.00     0.001 C 
HETATM   18  C   UNL     1      26.098  45.941  53.679  1.00  0.00     0.006 C 
ENDBRANCH  11  12
ENDBRANCH   7  11
ENDBRANCH   2   5
BRANCH   1  19
HETATM   19  C   UNL     1      22.199  49.549  48.959  1.00  0.00     0.121 A 
HETATM   20  N   UNL     1      21.373  48.559  49.413  1.00  0.00    -0.272 N 
HETATM   21  N   UNL     1      20.084  48.913  49.495  1.00  0.00    -0.174 NA
HETATM   22  H   UNL     1      21.640  47.615  49.678  1.00  0.00     0.189 HD
HETATM   23  C   UNL     1      20.052  50.190  49.084  1.00  0.00     0.089 A 
HETATM   24  C   UNL     1      21.365  50.627  48.738  1.00  0.00     0.071 A 
BRANCH  23  25
HETATM   25  C   UNL     1      18.795  50.942  49.018  1.00  0.00    -0.006 A 
HETATM   26  C   UNL     1      18.561  52.046  49.850  1.00  0.00     0.014 A 
HETATM   27  C   UNL     1      17.362  52.764  49.764  1.00  0.00     0.007 A 
HETATM   28  C   UNL     1      16.370  52.387  48.853  1.00  0.00    -0.062 A 
HETATM   29  C   UNL     1      15.098  53.172  48.731  1.00  0.00     0.048 C 
HETATM   30  C   UNL     1      16.599  51.289  48.019  1.00  0.00     0.007 A 
HETATM   31  C   UNL     1      17.796  50.572  48.106  1.00  0.00     0.014 A 
ENDBRANCH  23  25
ENDBRANCH   1  19
TORSDOF 5
ENDMDL
MODEL 8
REMARK VINA RESULT:      -8.9     10.054     14.549
REMARK  5 active torsions:
REMARK  status: ('A' for Active; 'I' for Inactive)
REMARK    1  A    between atoms: C_5  and  C_6 
REMARK    2  A    between atoms: C_10  and  C_11 
REMARK       I    between atoms: C_11  and  N_12 
REMARK    3  A    between atoms: N_12  and  N_13 
REMARK       I    between atoms: N_13  and  C_14 
REMARK       I    between atoms: C_14  and  N_15 
REMARK    4  A    between atoms: N_15  and  C_16 
REMARK    5  A    between atoms: C_16  and  C_17 
ROOT
HETATM    1  C   UNL     1      14.354  55.100  52.122  1.00  0.00     0.288 C 
HETATM    2  N   UNL     1      15.340  54.390  51.455  1.00  0.00    -0.261 N 
HETATM    3  O   UNL     1      13.158  54.930  51.890  1.00  0.00    -0.264 OA
HETATM    4  H   UNL     1      16.266  54.307  51.862  1.00  0.00     0.190 HD
ENDROOT
BRANCH   2   5
HETATM    5  N   UNL     1      14.911  53.304  50.678  1.00  0.00    -0.249 N 
HETATM    6  C   UNL     1      15.721  52.601  49.829  1.00  0.00     0.334 C 
HETATM    7  N   UNL     1      17.000  53.097  49.717  1.00  0.00    -0.341 N 
HETATM    8  O   UNL     1      15.312  51.609  49.238  1.00  0.00    -0.246 OA
HETATM    9  H   UNL     1      17.015  54.103  49.801  1.00  0.00     0.164 HD
HETATM   10  H   UNL     1      13.932  53.032  50.745  1.00  0.00     0.192 HD
BRANCH   7  11
HETATM   11  C   UNL     1      17.878  52.509  48.724  1.00  0.00     0.129 C 
BRANCH  11  12
HETATM   12  C   UNL     1      18.958  51.577  49.289  1.00  0.00     0.004 C 
HETATM   13  C   UNL     1      20.304  51.737  48.563  1.00  0.00     0.010 C 
HETATM   14  C   UNL     1      21.389  50.868  49.217  1.00  0.00    -0.018 C 
HETATM   15  C   UNL     1      22.719  51.014  48.481  1.00  0.00     0.010 C 
HETATM   16  C   UNL     1      20.955  49.397  49.268  1.00  0.00     0.004 C 
HETATM   17  C   UNL     1      19.599  49.227  49.952  1.00  0.00     0.001 C 
HETATM   18  C   UNL     1      18.527  50.105  49.309  1.00  0.00     0.006 C 
ENDBRANCH  11  12
ENDBRANCH   7  11
ENDBRANCH   2   5
BRANCH   1  19
HETATM   19  C   UNL     1      14.812  56.019  53.126  1.00  0.00     0.121 A 
HETATM   20  N   UNL     1      16.000  55.826  53.773  1.00  0.00    -0.272 N 
HETATM   21  N   UNL     1      16.284  56.758  54.691  1.00  0.00    -0.174 NA
HETATM   22  H   UNL     1      16.657  55.065  53.626  1.00  0.00     0.189 HD
HETATM   23  C   UNL     1      15.247  57.607  54.651  1.00  0.00     0.089 A 
HETATM   24  C   UNL     1      14.298  57.177  53.677  1.00  0.00     0.071 A 
BRANCH  23  25
HETATM   25  C   UNL     1      15.179  58.776  55.534  1.00  0.00    -0.006 A 
HETATM   26  C   UNL     1      14.055  59.020  56.336  1.00  0.00     0.014 A 
HETATM   27  C   UNL     1      14.011  60.132  57.186  1.00  0.00     0.007 A 
HETATM   28  C   UNL     1      15.085  61.026  57.244  1.00  0.00    -0.062 A 
HETATM   29  C   UNL     1      15.060  62.199  58.178  1.00  0.00     0.048 C 
HETATM   30  C   UNL     1      16.210  60.786  56.450  1.00  0.00     0.007 A 
HETATM   31  C   UNL     1      16.252  59.676  55.600  1.00  0.00     0.014 A 
ENDBRANCH  23  25
ENDBRANCH   1  19
TORSDOF 5
ENDMDL
MODEL 9
REMARK VINA RESULT:      -8.9      2.701      8.445
REMARK  5 active torsions:
REMARK  status: ('A' for Active; 'I' for Inactive)
REMARK    1  A    between atoms: C_5  and  C_6 
REMARK    2  A    between atoms: C_10  and  C_11 
REMARK       I    between atoms: C_11  and  N_12 
REMARK    3  A    between atoms: N_12  and  N_13 
REMARK       I    between atoms: N_13  and  C_14 
REMARK       I    between atoms: C_14  and  N_15 
REMARK    4  A    between atoms: N_15  and  C_16 
REMARK    5  A    between atoms: C_16  and  C_17 
ROOT
HETATM    1  C   UNL     1      27.194  41.337  50.210  1.00  0.00     0.288 C 
HETATM    2  N   UNL     1      26.109  40.478  50.297  1.00  0.00    -0.261 N 
HETATM    3  O   UNL     1      27.585  41.786  49.134  1.00  0.00    -0.264 OA
HETATM    4  H   UNL     1      25.617  40.375  51.178  1.00  0.00     0.190 HD
ENDROOT
BRANCH   2   5
HETATM    5  N   UNL     1      25.333  40.333  49.139  1.00  0.00    -0.249 N 
HETATM    6  C   UNL     1      24.480  41.290  48.662  1.00  0.00     0.334 C 
HETATM    7  N   UNL     1      24.363  42.403  49.464  1.00  0.00    -0.341 N 
HETATM    8  O   UNL     1      23.889  41.141  47.599  1.00  0.00    -0.246 OA
HETATM    9  H   UNL     1      24.448  42.164  50.442  1.00  0.00     0.164 HD
HETATM   10  H   UNL     1      25.403  39.454  48.628  1.00  0.00     0.192 HD
BRANCH   7  11
HETATM   11  C   UNL     1      23.365  43.396  49.116  1.00  0.00     0.129 C 
BRANCH  11  12
HETATM   12  C   UNL     1      23.870  44.845  49.118  1.00  0.00     0.004 C 
HETATM   13  C   UNL     1      24.613  45.201  50.415  1.00  0.00     0.010 C 
HETATM   14  C   UNL     1      25.193  46.622  50.345  1.00  0.00    -0.018 C 
HETATM   15  C   UNL     1      25.914  46.980  51.643  1.00  0.00     0.010 C 
HETATM   16  C   UNL     1      24.094  47.647  50.033  1.00  0.00     0.004 C 
HETATM   17  C   UNL     1      23.320  47.284  48.767  1.00  0.00     0.001 C 
HETATM   18  C   UNL     1      22.759  45.865  48.834  1.00  0.00     0.006 C 
ENDBRANCH  11  12
ENDBRANCH   7  11
ENDBRANCH   2   5
BRANCH   1  19
HETATM   19  C   UNL     1      27.810  41.700  51.456  1.00  0.00     0.121 A 
HETATM   20  N   UNL     1      28.294  40.749  52.309  1.00  0.00    -0.272 N 
HETATM   21  N   UNL     1      28.827  41.240  53.434  1.00  0.00    -0.174 NA
HETATM   22  H   UNL     1      28.281  39.742  52.170  1.00  0.00     0.189 HD
HETATM   23  C   UNL     1      28.697  42.570  53.324  1.00  0.00     0.089 A 
HETATM   24  C   UNL     1      28.061  42.901  52.091  1.00  0.00     0.071 A 
BRANCH  23  25
HETATM   25  C   UNL     1      29.158  43.476  54.382  1.00  0.00    -0.006 A 
HETATM   26  C   UNL     1      28.426  44.618  54.735  1.00  0.00     0.014 A 
HETATM   27  C   UNL     1      28.870  45.464  55.758  1.00  0.00     0.007 A 
HETATM   28  C   UNL     1      30.060  45.191  56.441  1.00  0.00    -0.062 A 
HETATM   29  C   UNL     1      30.525  46.073  57.561  1.00  0.00     0.048 C 
HETATM   30  C   UNL     1      30.793  44.052  56.095  1.00  0.00     0.007 A 
HETATM   31  C   UNL     1      30.349  43.208  55.072  1.00  0.00     0.014 A 
ENDBRANCH  23  25
ENDBRANCH   1  19
TORSDOF 5
ENDMDL
MODEL 10
REMARK VINA RESULT:      -8.8      1.999      3.178
REMARK  5 active torsions:
REMARK  status: ('A' for Active; 'I' for Inactive)
REMARK    1  A    between atoms: C_5  and  C_6 
REMARK    2  A    between atoms: C_10  and  C_11 
REMARK       I    between atoms: C_11  and  N_12 
REMARK    3  A    between atoms: N_12  and  N_13 
REMARK       I    between atoms: N_13  and  C_14 
REMARK       I    between atoms: C_14  and  N_15 
REMARK    4  A    between atoms: N_15  and  C_16 
REMARK    5  A    between atoms: C_16  and  C_17 
ROOT
HETATM    1  C   UNL     1      23.162  45.569  48.618  1.00  0.00     0.288 C 
HETATM    2  N   UNL     1      24.526  45.425  48.814  1.00  0.00    -0.261 N 
HETATM    3  O   UNL     1      22.436  44.612  48.350  1.00  0.00    -0.264 OA
HETATM    4  H   UNL     1      25.039  46.134  49.328  1.00  0.00     0.190 HD
ENDROOT
BRANCH   2   5
HETATM    5  N   UNL     1      25.006  44.113  48.929  1.00  0.00    -0.249 N 
HETATM    6  C   UNL     1      25.244  43.486  50.121  1.00  0.00     0.334 C 
HETATM    7  N   UNL     1      25.061  44.279  51.231  1.00  0.00    -0.341 N 
HETATM    8  O   UNL     1      25.584  42.309  50.162  1.00  0.00    -0.246 OA
HETATM    9  H   UNL     1      25.309  45.240  51.044  1.00  0.00     0.164 HD
HETATM   10  H   UNL     1      25.197  43.601  48.069  1.00  0.00     0.192 HD
BRANCH   7  11
HETATM   11  C   UNL     1      25.441  43.744  52.525  1.00  0.00     0.129 C 
BRANCH  11  12
HETATM   12  C   UNL     1      26.799  44.229  53.049  1.00  0.00     0.004 C 
HETATM   13  C   UNL     1      27.887  43.150  52.934  1.00  0.00     0.010 C 
HETATM   14  C   UNL     1      29.255  43.698  53.371  1.00  0.00    -0.018 C 
HETATM   15  C   UNL     1      30.330  42.617  53.274  1.00  0.00     0.010 C 
HETATM   16  C   UNL     1      29.186  44.270  54.793  1.00  0.00     0.004 C 
HETATM   17  C   UNL     1      28.081  45.316  54.932  1.00  0.00     0.001 C 
HETATM   18  C   UNL     1      26.727  44.773  54.482  1.00  0.00     0.006 C 
ENDBRANCH  11  12
ENDBRANCH   7  11
ENDBRANCH   2   5
BRANCH   1  19
HETATM   19  C   UNL     1      22.639  46.897  48.782  1.00  0.00     0.121 A 
HETATM   20  N   UNL     1      23.471  47.967  48.958  1.00  0.00    -0.272 N 
HETATM   21  N   UNL     1      22.837  49.136  49.111  1.00  0.00    -0.174 NA
HETATM   22  H   UNL     1      24.486  47.952  48.985  1.00  0.00     0.189 HD
HETATM   23  C   UNL     1      21.533  48.833  49.030  1.00  0.00     0.089 A 
HETATM   24  C   UNL     1      21.367  47.433  48.823  1.00  0.00     0.071 A 
BRANCH  23  25
HETATM   25  C   UNL     1      20.497  49.863  49.165  1.00  0.00    -0.006 A 
HETATM   26  C   UNL     1      20.631  51.117  48.552  1.00  0.00     0.014 A 
HETATM   27  C   UNL     1      19.627  52.085  48.676  1.00  0.00     0.007 A 
HETATM   28  C   UNL     1      18.475  51.822  49.423  1.00  0.00    -0.062 A 
HETATM   29  C   UNL     1      17.379  52.841  49.532  1.00  0.00     0.048 C 
HETATM   30  C   UNL     1      18.333  50.573  50.034  1.00  0.00     0.007 A 
HETATM   31  C   UNL     1      19.338  49.608  49.911  1.00  0.00     0.014 A 
ENDBRANCH  23  25
ENDBRANCH   1  19
TORSDOF 5
ENDMDL
