MODEL 1
REMARK VINA RESULT:      -9.1      0.000      0.000
REMARK  7 active torsions:
REMARK  status: ('A' for Active; 'I' for Inactive)
REMARK    1  A    between atoms: C_3  and  C_4 
REMARK    2  A    between atoms: C_4  and  N_5 
REMARK    3  A    between atoms: C_9  and  C_10 
REMARK    4  A    between atoms: C_9  and  C_28 
REMARK    5  A    between atoms: N_13  and  C_15 
REMARK    6  A    between atoms: C_15  and  C_16 
REMARK    7  A    between atoms: C_28  and  C_29 
ROOT
HETATM    1  C   UNL     1      23.120  42.781  46.384  1.00  0.00     0.112 C 
HETATM    2  C   UNL     1      23.677  42.314  47.656  1.00  0.00    -0.109 C 
HETATM    3  C   UNL     1      24.136  41.929  48.813  1.00  0.00    -0.087 C 
ENDROOT
BRANCH   3   4
HETATM    4  C   UNL     1      24.672  41.481  50.163  1.00  0.00     0.230 C 
BRANCH   4   5
HETATM    5  N   UNL     1      25.649  42.383  50.714  1.00  0.00    -0.257 N 
HETATM    6  C   UNL     1      26.973  42.095  50.818  1.00  0.00     0.327 C 
HETATM    7  O   UNL     1      27.563  41.122  50.390  1.00  0.00    -0.247 OA
HETATM    8  N   UNL     1      27.576  43.103  51.532  1.00  0.00    -0.324 N 
HETATM    9  C   UNL     1      26.636  44.076  52.062  1.00  0.00     0.123 C 
HETATM   10  H   UNL     1      28.552  43.018  51.803  1.00  0.00     0.165 HD
HETATM   11  C   UNL     1      25.344  43.465  51.480  1.00  0.00     0.257 C 
HETATM   12  O   UNL     1      24.219  43.899  51.682  1.00  0.00    -0.270 OA
BRANCH   9  13
HETATM   13  C   UNL     1      26.989  45.504  51.523  1.00  0.00     0.027 C 
HETATM   14  C   UNL     1      26.135  46.673  52.039  1.00  0.00     0.035 C 
HETATM   15  C   UNL     1      24.789  46.878  51.354  1.00  0.00     0.235 C 
HETATM   16  N   UNL     1      24.876  46.793  49.850  1.00  0.00    -0.067 N 
HETATM   17  H   UNL     1      25.262  47.691  49.532  1.00  0.00     0.280 HD
HETATM   18  C   UNL     1      25.745  45.704  49.287  1.00  0.00     0.235 C 
HETATM   19  C   UNL     1      27.086  45.640  49.991  1.00  0.00     0.035 C 
BRANCH  16  20
HETATM   20  C   UNL     1      23.489  46.679  49.224  1.00  0.00     0.273 C 
BRANCH  20  21
HETATM   21  C   UNL     1      22.788  47.992  49.034  1.00  0.00    -0.030 A 
HETATM   22  C   UNL     1      21.393  48.077  49.141  1.00  0.00     0.048 A 
HETATM   23  C   UNL     1      20.749  49.298  48.948  1.00  0.00     0.102 A 
HETATM   24  C   UNL     1      21.485  50.439  48.618  1.00  0.00     0.102 A 
HETATM   25  O   UNL     1      19.387  49.301  49.094  1.00  0.00    -0.346 OA
HETATM   26  O   UNL     1      20.915  51.661  48.385  1.00  0.00    -0.346 OA
HETATM   27  C   UNL     1      22.872  50.368  48.523  1.00  0.00     0.040 A 
HETATM   28  C   UNL     1      19.497  51.558  48.200  1.00  0.00     0.202 C 
HETATM   29  C   UNL     1      18.884  50.636  49.243  1.00  0.00     0.202 C 
HETATM   30  C   UNL     1      23.523  49.150  48.730  1.00  0.00     0.012 A 
ENDBRANCH  20  21
ENDBRANCH  16  20
ENDBRANCH   9  13
BRANCH   9  31
HETATM   31  C   UNL     1      26.503  43.956  53.605  1.00  0.00     0.080 C 
BRANCH  31  32
HETATM   32  C   UNL     1      27.736  44.312  54.399  1.00  0.00    -0.052 A 
HETATM   33  C   UNL     1      28.854  43.470  54.414  1.00  0.00     0.049 A 
HETATM   34  C   UNL     1      29.986  43.824  55.143  1.00  0.00     0.116 A 
HETATM   35  F   UNL     1      31.043  43.001  55.150  1.00  0.00    -0.206 F 
HETATM   36  C   UNL     1      30.036  45.012  55.859  1.00  0.00     0.042 A 
HETATM   37  C   UNL     1      28.936  45.865  55.844  1.00  0.00     0.003 A 
HETATM   38  C   UNL     1      27.792  45.517  55.119  1.00  0.00     0.007 A 
ENDBRANCH  31  32
ENDBRANCH   9  31
ENDBRANCH   4   5
ENDBRANCH   3   4
TORSDOF 7
ENDMDL
MODEL 2
REMARK VINA RESULT:      -9.0      3.196      8.211
REMARK  7 active torsions:
REMARK  status: ('A' for Active; 'I' for Inactive)
REMARK    1  A    between atoms: C_3  and  C_4 
REMARK    2  A    between atoms: C_4  and  N_5 
REMARK    3  A    between atoms: C_9  and  C_10 
REMARK    4  A    between atoms: C_9  and  C_28 
REMARK    5  A    between atoms: N_13  and  C_15 
REMARK    6  A    between atoms: C_15  and  C_16 
REMARK    7  A    between atoms: C_28  and  C_29 
ROOT
HETATM    1  C   UNL     1      18.834  47.788  47.842  1.00  0.00     0.112 C 
HETATM    2  C   UNL     1      19.557  46.525  47.683  1.00  0.00    -0.109 C 
HETATM    3  C   UNL     1      20.209  45.400  47.596  1.00  0.00    -0.087 C 
ENDROOT
BRANCH   3   4
HETATM    4  C   UNL     1      20.970  44.088  47.494  1.00  0.00     0.230 C 
BRANCH   4   5
HETATM    5  N   UNL     1      22.305  44.163  48.027  1.00  0.00    -0.257 N 
HETATM    6  C   UNL     1      23.429  44.058  47.273  1.00  0.00     0.327 C 
HETATM    7  O   UNL     1      23.515  43.996  46.062  1.00  0.00    -0.247 OA
HETATM    8  N   UNL     1      24.511  44.009  48.120  1.00  0.00    -0.324 N 
HETATM    9  C   UNL     1      24.141  43.951  49.524  1.00  0.00     0.123 C 
HETATM   10  H   UNL     1      25.439  43.830  47.747  1.00  0.00     0.165 HD
HETATM   11  C   UNL     1      22.610  44.017  49.345  1.00  0.00     0.257 C 
HETATM   12  O   UNL     1      21.801  43.952  50.260  1.00  0.00    -0.270 OA
BRANCH   9  13
HETATM   13  C   UNL     1      24.767  45.165  50.290  1.00  0.00     0.027 C 
HETATM   14  C   UNL     1      26.168  45.620  49.847  1.00  0.00     0.035 C 
HETATM   15  C   UNL     1      27.341  44.820  50.399  1.00  0.00     0.235 C 
HETATM   16  N   UNL     1      27.221  44.543  51.877  1.00  0.00    -0.067 N 
HETATM   17  H   UNL     1      27.487  45.412  52.357  1.00  0.00     0.280 HD
HETATM   18  C   UNL     1      25.859  44.151  52.379  1.00  0.00     0.235 C 
HETATM   19  C   UNL     1      24.778  45.059  51.827  1.00  0.00     0.035 C 
BRANCH  16  20
HETATM   20  C   UNL     1      28.225  43.484  52.323  1.00  0.00     0.273 C 
BRANCH  20  21
HETATM   21  C   UNL     1      28.915  43.796  53.619  1.00  0.00    -0.030 A 
HETATM   22  C   UNL     1      28.454  44.836  54.438  1.00  0.00     0.048 A 
HETATM   23  C   UNL     1      29.110  45.130  55.632  1.00  0.00     0.102 A 
HETATM   24  C   UNL     1      30.247  44.411  56.007  1.00  0.00     0.102 A 
HETATM   25  O   UNL     1      28.582  46.144  56.386  1.00  0.00    -0.346 OA
HETATM   26  O   UNL     1      30.958  44.667  57.148  1.00  0.00    -0.346 OA
HETATM   27  C   UNL     1      30.705  43.367  55.207  1.00  0.00     0.040 A 
HETATM   28  C   UNL     1      30.600  45.930  57.723  1.00  0.00     0.202 C 
HETATM   29  C   UNL     1      29.090  46.113  57.727  1.00  0.00     0.202 C 
HETATM   30  C   UNL     1      30.043  43.060  54.017  1.00  0.00     0.012 A 
ENDBRANCH  20  21
ENDBRANCH  16  20
ENDBRANCH   9  13
BRANCH   9  31
HETATM   31  C   UNL     1      24.435  42.551  50.131  1.00  0.00     0.080 C 
BRANCH  31  32
HETATM   32  C   UNL     1      25.281  41.633  49.282  1.00  0.00    -0.052 A 
HETATM   33  C   UNL     1      26.662  41.530  49.486  1.00  0.00     0.049 A 
HETATM   34  C   UNL     1      27.421  40.667  48.700  1.00  0.00     0.116 A 
HETATM   35  F   UNL     1      28.743  40.588  48.906  1.00  0.00    -0.206 F 
HETATM   36  C   UNL     1      26.833  39.890  47.712  1.00  0.00     0.042 A 
HETATM   37  C   UNL     1      25.458  39.973  47.507  1.00  0.00     0.003 A 
HETATM   38  C   UNL     1      24.686  40.840  48.286  1.00  0.00     0.007 A 
ENDBRANCH  31  32
ENDBRANCH   9  31
ENDBRANCH   4   5
ENDBRANCH   3   4
TORSDOF 7
ENDMDL
MODEL 3
REMARK VINA RESULT:      -8.9      6.424     11.699
REMARK  7 active torsions:
REMARK  status: ('A' for Active; 'I' for Inactive)
REMARK    1  A    between atoms: C_3  and  C_4 
REMARK    2  A    between atoms: C_4  and  N_5 
REMARK    3  A    between atoms: C_9  and  C_10 
REMARK    4  A    between atoms: C_9  and  C_28 
REMARK    5  A    between atoms: N_13  and  C_15 
REMARK    6  A    between atoms: C_15  and  C_16 
REMARK    7  A    between atoms: C_28  and  C_29 
ROOT
HETATM    1  C   UNL     1      20.035  46.007  45.106  1.00  0.00     0.112 C 
HETATM    2  C   UNL     1      18.950  46.988  45.154  1.00  0.00    -0.109 C 
HETATM    3  C   UNL     1      17.950  47.823  45.211  1.00  0.00    -0.087 C 
ENDROOT
BRANCH   3   4
HETATM    4  C   UNL     1      16.784  48.795  45.277  1.00  0.00     0.230 C 
BRANCH   4   5
HETATM    5  N   UNL     1      16.654  49.439  46.558  1.00  0.00    -0.257 N 
HETATM    6  C   UNL     1      15.560  49.326  47.356  1.00  0.00     0.327 C 
HETATM    7  O   UNL     1      14.589  48.612  47.197  1.00  0.00    -0.247 OA
HETATM    8  N   UNL     1      15.708  50.194  48.412  1.00  0.00    -0.324 N 
HETATM    9  C   UNL     1      16.882  51.043  48.299  1.00  0.00     0.123 C 
HETATM   10  H   UNL     1      14.944  50.328  49.068  1.00  0.00     0.165 HD
HETATM   11  C   UNL     1      17.432  50.474  46.975  1.00  0.00     0.257 C 
HETATM   12  O   UNL     1      18.423  50.897  46.396  1.00  0.00    -0.270 OA
BRANCH   9  13
HETATM   13  C   UNL     1      17.811  50.833  49.542  1.00  0.00     0.027 C 
HETATM   14  C   UNL     1      19.003  51.793  49.691  1.00  0.00     0.035 C 
HETATM   15  C   UNL     1      20.238  51.467  48.862  1.00  0.00     0.235 C 
HETATM   16  N   UNL     1      20.613  50.006  48.914  1.00  0.00    -0.067 N 
HETATM   17  H   UNL     1      21.084  49.861  49.815  1.00  0.00     0.280 HD
HETATM   18  C   UNL     1      19.482  49.019  48.832  1.00  0.00     0.235 C 
HETATM   19  C   UNL     1      18.340  49.401  49.753  1.00  0.00     0.035 C 
BRANCH  16  20
HETATM   20  C   UNL     1      21.637  49.661  47.836  1.00  0.00     0.273 C 
BRANCH  20  21
HETATM   21  C   UNL     1      22.977  49.248  48.370  1.00  0.00    -0.030 A 
HETATM   22  C   UNL     1      24.145  49.894  47.938  1.00  0.00     0.048 A 
HETATM   23  C   UNL     1      25.387  49.494  48.427  1.00  0.00     0.102 A 
HETATM   24  C   UNL     1      25.481  48.430  49.327  1.00  0.00     0.102 A 
HETATM   25  O   UNL     1      26.475  50.192  47.974  1.00  0.00    -0.346 OA
HETATM   26  O   UNL     1      26.670  47.966  49.823  1.00  0.00    -0.346 OA
HETATM   27  C   UNL     1      24.327  47.792  49.773  1.00  0.00     0.040 A 
HETATM   28  C   UNL     1      27.786  48.469  49.078  1.00  0.00     0.202 C 
HETATM   29  C   UNL     1      27.624  49.955  48.800  1.00  0.00     0.202 C 
HETATM   30  C   UNL     1      23.079  48.198  49.297  1.00  0.00     0.012 A 
ENDBRANCH  20  21
ENDBRANCH  16  20
ENDBRANCH   9  13
BRANCH   9  31
HETATM   31  C   UNL     1      16.491  52.516  47.996  1.00  0.00     0.080 C 
BRANCH  31  32
HETATM   32  C   UNL     1      15.394  53.094  48.858  1.00  0.00    -0.052 A 
HETATM   33  C   UNL     1      14.214  53.587  48.289  1.00  0.00     0.049 A 
HETATM   34  C   UNL     1      13.209  54.104  49.103  1.00  0.00     0.116 A 
HETATM   35  F   UNL     1      12.090  54.578  48.539  1.00  0.00    -0.206 F 
HETATM   36  C   UNL     1      13.349  54.135  50.484  1.00  0.00     0.042 A 
HETATM   37  C   UNL     1      14.512  53.637  51.063  1.00  0.00     0.003 A 
HETATM   38  C   UNL     1      15.530  53.119  50.256  1.00  0.00     0.007 A 
ENDBRANCH  31  32
ENDBRANCH   9  31
ENDBRANCH   4   5
ENDBRANCH   3   4
TORSDOF 7
ENDMDL
MODEL 4
REMARK VINA RESULT:      -8.6      1.873      2.820
REMARK  7 active torsions:
REMARK  status: ('A' for Active; 'I' for Inactive)
REMARK    1  A    between atoms: C_3  and  C_4 
REMARK    2  A    between atoms: C_4  and  N_5 
REMARK    3  A    between atoms: C_9  and  C_10 
REMARK    4  A    between atoms: C_9  and  C_28 
REMARK    5  A    between atoms: N_13  and  C_15 
REMARK    6  A    between atoms: C_15  and  C_16 
REMARK    7  A    between atoms: C_28  and  C_29 
ROOT
HETATM    1  C   UNL     1      30.309  38.371  48.920  1.00  0.00     0.112 C 
HETATM    2  C   UNL     1      28.999  38.900  49.303  1.00  0.00    -0.109 C 
HETATM    3  C   UNL     1      27.814  39.320  49.648  1.00  0.00    -0.087 C 
ENDROOT
BRANCH   3   4
HETATM    4  C   UNL     1      26.432  39.809  50.049  1.00  0.00     0.230 C 
BRANCH   4   5
HETATM    5  N   UNL     1      26.347  41.241  50.161  1.00  0.00    -0.257 N 
HETATM    6  C   UNL     1      26.181  42.075  49.102  1.00  0.00     0.327 C 
HETATM    7  O   UNL     1      25.975  41.779  47.941  1.00  0.00    -0.247 OA
HETATM    8  N   UNL     1      26.307  43.369  49.551  1.00  0.00    -0.324 N 
HETATM    9  C   UNL     1      26.699  43.458  50.947  1.00  0.00     0.123 C 
HETATM   10  H   UNL     1      26.314  44.137  48.886  1.00  0.00     0.165 HD
HETATM   11  C   UNL     1      26.741  41.947  51.256  1.00  0.00     0.257 C 
HETATM   12  O   UNL     1      27.077  41.466  52.329  1.00  0.00    -0.270 OA
BRANCH   9  13
HETATM   13  C   UNL     1      25.623  44.264  51.751  1.00  0.00     0.027 C 
HETATM   14  C   UNL     1      24.150  43.909  51.490  1.00  0.00     0.035 C 
HETATM   15  C   UNL     1      23.516  44.530  50.251  1.00  0.00     0.235 C 
HETATM   16  N   UNL     1      23.835  45.998  50.101  1.00  0.00    -0.067 N 
HETATM   17  H   UNL     1      23.221  46.495  50.759  1.00  0.00     0.280 HD
HETATM   18  C   UNL     1      25.247  46.414  50.401  1.00  0.00     0.235 C 
HETATM   19  C   UNL     1      25.748  45.799  51.693  1.00  0.00     0.035 C 
BRANCH  16  20
HETATM   20  C   UNL     1      23.466  46.502  48.709  1.00  0.00     0.273 C 
BRANCH  20  21
HETATM   21  C   UNL     1      22.810  47.852  48.696  1.00  0.00    -0.030 A 
HETATM   22  C   UNL     1      21.460  47.991  49.049  1.00  0.00     0.048 A 
HETATM   23  C   UNL     1      20.855  49.246  49.020  1.00  0.00     0.102 A 
HETATM   24  C   UNL     1      21.578  50.369  48.612  1.00  0.00     0.102 A 
HETATM   25  O   UNL     1      19.540  49.299  49.402  1.00  0.00    -0.346 OA
HETATM   26  O   UNL     1      21.039  51.624  48.530  1.00  0.00    -0.346 OA
HETATM   27  C   UNL     1      22.923  50.244  48.273  1.00  0.00     0.040 A 
HETATM   28  C   UNL     1      19.607  51.589  48.592  1.00  0.00     0.202 C 
HETATM   29  C   UNL     1      19.137  50.645  49.688  1.00  0.00     0.202 C 
HETATM   30  C   UNL     1      23.538  48.991  48.315  1.00  0.00     0.012 A 
ENDBRANCH  20  21
ENDBRANCH  16  20
ENDBRANCH   9  13
BRANCH   9  31
HETATM   31  C   UNL     1      28.162  43.960  51.096  1.00  0.00     0.080 C 
BRANCH  31  32
HETATM   32  C   UNL     1      28.762  43.832  52.475  1.00  0.00    -0.052 A 
HETATM   33  C   UNL     1      28.225  44.528  53.564  1.00  0.00     0.049 A 
HETATM   34  C   UNL     1      28.786  44.386  54.830  1.00  0.00     0.116 A 
HETATM   35  F   UNL     1      28.262  45.066  55.858  1.00  0.00    -0.206 F 
HETATM   36  C   UNL     1      29.876  43.552  55.043  1.00  0.00     0.042 A 
HETATM   37  C   UNL     1      30.413  42.844  53.971  1.00  0.00     0.003 A 
HETATM   38  C   UNL     1      29.860  42.983  52.694  1.00  0.00     0.007 A 
ENDBRANCH  31  32
ENDBRANCH   9  31
ENDBRANCH   4   5
ENDBRANCH   3   4
TORSDOF 7
ENDMDL
MODEL 5
REMARK VINA RESULT:      -8.6      6.424     10.125
REMARK  7 active torsions:
REMARK  status: ('A' for Active; 'I' for Inactive)
REMARK    1  A    between atoms: C_3  and  C_4 
REMARK    2  A    between atoms: C_4  and  N_5 
REMARK    3  A    between atoms: C_9  and  C_10 
REMARK    4  A    between atoms: C_9  and  C_28 
REMARK    5  A    between atoms: N_13  and  C_15 
REMARK    6  A    between atoms: C_15  and  C_16 
REMARK    7  A    between atoms: C_28  and  C_29 
ROOT
HETATM    1  C   UNL     1      13.375  48.496  45.298  1.00  0.00     0.112 C 
HETATM    2  C   UNL     1      14.574  48.122  46.049  1.00  0.00    -0.109 C 
HETATM    3  C   UNL     1      15.646  47.743  46.687  1.00  0.00    -0.087 C 
ENDROOT
BRANCH   3   4
HETATM    4  C   UNL     1      16.895  47.302  47.432  1.00  0.00     0.230 C 
BRANCH   4   5
HETATM    5  N   UNL     1      17.946  48.285  47.412  1.00  0.00    -0.257 N 
HETATM    6  C   UNL     1      19.003  48.248  46.560  1.00  0.00     0.327 C 
HETATM    7  O   UNL     1      19.191  47.483  45.634  1.00  0.00    -0.247 OA
HETATM    8  N   UNL     1      19.884  49.239  46.925  1.00  0.00    -0.324 N 
HETATM    9  C   UNL     1      19.506  49.921  48.151  1.00  0.00     0.123 C 
HETATM   10  H   UNL     1      20.788  49.306  46.467  1.00  0.00     0.165 HD
HETATM   11  C   UNL     1      18.190  49.163  48.423  1.00  0.00     0.257 C 
HETATM   12  O   UNL     1      17.479  49.335  49.402  1.00  0.00    -0.270 OA
BRANCH   9  13
HETATM   13  C   UNL     1      19.337  51.454  47.874  1.00  0.00     0.027 C 
HETATM   14  C   UNL     1      19.149  52.365  49.098  1.00  0.00     0.035 C 
HETATM   15  C   UNL     1      17.740  52.436  49.675  1.00  0.00     0.235 C 
HETATM   16  N   UNL     1      16.678  52.597  48.615  1.00  0.00    -0.067 N 
HETATM   17  H   UNL     1      16.697  53.586  48.336  1.00  0.00     0.280 HD
HETATM   18  C   UNL     1      16.841  51.774  47.368  1.00  0.00     0.235 C 
HETATM   19  C   UNL     1      18.261  51.837  46.840  1.00  0.00     0.035 C 
BRANCH  16  20
HETATM   20  C   UNL     1      15.286  52.341  49.187  1.00  0.00     0.273 C 
BRANCH  20  21
HETATM   21  C   UNL     1      14.569  53.578  49.641  1.00  0.00    -0.030 A 
HETATM   22  C   UNL     1      14.278  53.775  50.999  1.00  0.00     0.048 A 
HETATM   23  C   UNL     1      13.599  54.920  51.409  1.00  0.00     0.102 A 
HETATM   24  C   UNL     1      13.177  55.865  50.471  1.00  0.00     0.102 A 
HETATM   25  O   UNL     1      13.375  55.047  52.755  1.00  0.00    -0.346 OA
HETATM   26  O   UNL     1      12.478  56.994  50.802  1.00  0.00    -0.346 OA
HETATM   27  C   UNL     1      13.473  55.686  49.123  1.00  0.00     0.040 A 
HETATM   28  C   UNL     1      11.963  56.926  52.138  1.00  0.00     0.202 C 
HETATM   29  C   UNL     1      13.017  56.394  53.096  1.00  0.00     0.202 C 
HETATM   30  C   UNL     1      14.166  54.548  48.707  1.00  0.00     0.012 A 
ENDBRANCH  20  21
ENDBRANCH  16  20
ENDBRANCH   9  13
BRANCH   9  31
HETATM   31  C   UNL     1      20.456  49.552  49.323  1.00  0.00     0.080 C 
BRANCH  31  32
HETATM   32  C   UNL     1      21.933  49.612  49.014  1.00  0.00    -0.052 A 
HETATM   33  C   UNL     1      22.771  48.524  49.282  1.00  0.00     0.049 A 
HETATM   34  C   UNL     1      24.128  48.596  48.978  1.00  0.00     0.116 A 
HETATM   35  F   UNL     1      24.915  47.546  49.249  1.00  0.00    -0.206 F 
HETATM   36  C   UNL     1      24.675  49.733  48.399  1.00  0.00     0.042 A 
HETATM   37  C   UNL     1      23.851  50.819  48.116  1.00  0.00     0.003 A 
HETATM   38  C   UNL     1      22.488  50.760  48.422  1.00  0.00     0.007 A 
ENDBRANCH  31  32
ENDBRANCH   9  31
ENDBRANCH   4   5
ENDBRANCH   3   4
TORSDOF 7
ENDMDL
MODEL 6
REMARK VINA RESULT:      -8.5      2.054      4.290
REMARK  7 active torsions:
REMARK  status: ('A' for Active; 'I' for Inactive)
REMARK    1  A    between atoms: C_3  and  C_4 
REMARK    2  A    between atoms: C_4  and  N_5 
REMARK    3  A    between atoms: C_9  and  C_10 
REMARK    4  A    between atoms: C_9  and  C_28 
REMARK    5  A    between atoms: N_13  and  C_15 
REMARK    6  A    between atoms: C_15  and  C_16 
REMARK    7  A    between atoms: C_28  and  C_29 
ROOT
HETATM    1  C   UNL     1      27.654  47.488  55.122  1.00  0.00     0.112 C 
HETATM    2  C   UNL     1      26.818  47.205  53.953  1.00  0.00    -0.109 C 
HETATM    3  C   UNL     1      26.032  46.945  52.946  1.00  0.00    -0.087 C 
ENDROOT
BRANCH   3   4
HETATM    4  C   UNL     1      25.116  46.642  51.772  1.00  0.00     0.230 C 
BRANCH   4   5
HETATM    5  N   UNL     1      24.973  45.233  51.513  1.00  0.00    -0.257 N 
HETATM    6  C   UNL     1      24.897  44.288  52.485  1.00  0.00     0.327 C 
HETATM    7  O   UNL     1      24.829  44.454  53.688  1.00  0.00    -0.247 OA
HETATM    8  N   UNL     1      24.931  43.051  51.884  1.00  0.00    -0.324 N 
HETATM    9  C   UNL     1      25.165  43.113  50.452  1.00  0.00     0.123 C 
HETATM   10  H   UNL     1      24.986  42.212  52.455  1.00  0.00     0.165 HD
HETATM   11  C   UNL     1      25.221  44.649  50.310  1.00  0.00     0.257 C 
HETATM   12  O   UNL     1      25.453  45.241  49.266  1.00  0.00    -0.270 OA
BRANCH   9  13
HETATM   13  C   UNL     1      23.981  42.426  49.690  1.00  0.00     0.027 C 
HETATM   14  C   UNL     1      24.164  42.197  48.181  1.00  0.00     0.035 C 
HETATM   15  C   UNL     1      23.890  43.395  47.280  1.00  0.00     0.235 C 
HETATM   16  N   UNL     1      22.622  44.127  47.644  1.00  0.00    -0.067 N 
HETATM   17  H   UNL     1      21.847  43.567  47.267  1.00  0.00     0.280 HD
HETATM   18  C   UNL     1      22.359  44.328  49.110  1.00  0.00     0.235 C 
HETATM   19  C   UNL     1      22.590  43.055  49.899  1.00  0.00     0.035 C 
BRANCH  16  20
HETATM   20  C   UNL     1      22.549  45.483  46.948  1.00  0.00     0.273 C 
BRANCH  20  21
HETATM   21  C   UNL     1      21.903  46.562  47.767  1.00  0.00    -0.030 A 
HETATM   22  C   UNL     1      20.518  46.554  47.990  1.00  0.00     0.048 A 
HETATM   23  C   UNL     1      19.925  47.568  48.738  1.00  0.00     0.102 A 
HETATM   24  C   UNL     1      20.698  48.615  49.247  1.00  0.00     0.102 A 
HETATM   25  O   UNL     1      18.571  47.474  48.930  1.00  0.00    -0.346 OA
HETATM   26  O   UNL     1      20.176  49.658  49.962  1.00  0.00    -0.346 OA
HETATM   27  C   UNL     1      22.075  48.624  49.042  1.00  0.00     0.040 A 
HETATM   28  C   UNL     1      18.748  49.717  49.847  1.00  0.00     0.202 C 
HETATM   29  C   UNL     1      18.137  48.332  49.994  1.00  0.00     0.202 C 
HETATM   30  C   UNL     1      22.677  47.603  48.306  1.00  0.00     0.012 A 
ENDBRANCH  20  21
ENDBRANCH  16  20
ENDBRANCH   9  13
BRANCH   9  31
HETATM   31  C   UNL     1      26.585  42.602  50.085  1.00  0.00     0.080 C 
BRANCH  31  32
HETATM   32  C   UNL     1      27.558  42.489  51.234  1.00  0.00    -0.052 A 
HETATM   33  C   UNL     1      27.693  41.294  51.950  1.00  0.00     0.049 A 
HETATM   34  C   UNL     1      28.606  41.206  52.998  1.00  0.00     0.116 A 
HETATM   35  F   UNL     1      28.715  40.056  53.676  1.00  0.00    -0.206 F 
HETATM   36  C   UNL     1      29.401  42.289  53.349  1.00  0.00     0.042 A 
HETATM   37  C   UNL     1      29.286  43.480  52.638  1.00  0.00     0.003 A 
HETATM   38  C   UNL     1      28.369  43.580  51.587  1.00  0.00     0.007 A 
ENDBRANCH  31  32
ENDBRANCH   9  31
ENDBRANCH   4   5
ENDBRANCH   3   4
TORSDOF 7
ENDMDL
MODEL 7
REMARK VINA RESULT:      -8.5      5.210     11.181
REMARK  7 active torsions:
REMARK  status: ('A' for Active; 'I' for Inactive)
REMARK    1  A    between atoms: C_3  and  C_4 
REMARK    2  A    between atoms: C_4  and  N_5 
REMARK    3  A    between atoms: C_9  and  C_10 
REMARK    4  A    between atoms: C_9  and  C_28 
REMARK    5  A    between atoms: N_13  and  C_15 
REMARK    6  A    between atoms: C_15  and  C_16 
REMARK    7  A    between atoms: C_28  and  C_29 
ROOT
HETATM    1  C   UNL     1      20.188  44.590  46.649  1.00  0.00     0.112 C 
HETATM    2  C   UNL     1      19.242  45.671  46.367  1.00  0.00    -0.109 C 
HETATM    3  C   UNL     1      18.406  46.652  46.167  1.00  0.00    -0.087 C 
ENDROOT
BRANCH   3   4
HETATM    4  C   UNL     1      17.432  47.795  45.933  1.00  0.00     0.230 C 
BRANCH   4   5
HETATM    5  N   UNL     1      17.299  48.668  47.070  1.00  0.00    -0.257 N 
HETATM    6  C   UNL     1      16.170  48.769  47.819  1.00  0.00     0.327 C 
HETATM    7  O   UNL     1      15.158  48.100  47.742  1.00  0.00    -0.247 OA
HETATM    8  N   UNL     1      16.338  49.804  48.709  1.00  0.00    -0.324 N 
HETATM    9  C   UNL     1      17.571  50.544  48.506  1.00  0.00     0.123 C 
HETATM   10  H   UNL     1      15.560  50.102  49.292  1.00  0.00     0.165 HD
HETATM   11  C   UNL     1      18.131  49.711  47.334  1.00  0.00     0.257 C 
HETATM   12  O   UNL     1      19.171  49.959  46.741  1.00  0.00    -0.270 OA
BRANCH   9  13
HETATM   13  C   UNL     1      18.435  50.506  49.812  1.00  0.00     0.027 C 
HETATM   14  C   UNL     1      19.673  51.416  49.855  1.00  0.00     0.035 C 
HETATM   15  C   UNL     1      20.921  50.889  49.157  1.00  0.00     0.235 C 
HETATM   16  N   UNL     1      21.207  49.442  49.476  1.00  0.00    -0.067 N 
HETATM   17  H   UNL     1      21.632  49.432  50.412  1.00  0.00     0.280 HD
HETATM   18  C   UNL     1      20.025  48.514  49.508  1.00  0.00     0.235 C 
HETATM   19  C   UNL     1      18.870  49.107  50.291  1.00  0.00     0.035 C 
BRANCH  16  20
HETATM   20  C   UNL     1      22.252  48.864  48.526  1.00  0.00     0.273 C 
BRANCH  20  21
HETATM   21  C   UNL     1      23.076  47.757  49.117  1.00  0.00    -0.030 A 
HETATM   22  C   UNL     1      24.060  48.036  50.077  1.00  0.00     0.048 A 
HETATM   23  C   UNL     1      24.830  47.004  50.608  1.00  0.00     0.102 A 
HETATM   24  C   UNL     1      24.650  45.690  50.169  1.00  0.00     0.102 A 
HETATM   25  O   UNL     1      25.752  47.357  51.558  1.00  0.00    -0.346 OA
HETATM   26  O   UNL     1      25.392  44.635  50.625  1.00  0.00    -0.346 OA
HETATM   27  C   UNL     1      23.666  45.401  49.226  1.00  0.00     0.040 A 
HETATM   28  C   UNL     1      26.557  45.075  51.335  1.00  0.00     0.202 C 
HETATM   29  C   UNL     1      26.212  46.210  52.287  1.00  0.00     0.202 C 
HETATM   30  C   UNL     1      22.882  46.429  48.701  1.00  0.00     0.012 A 
ENDBRANCH  20  21
ENDBRANCH  16  20
ENDBRANCH   9  13
BRANCH   9  31
HETATM   31  C   UNL     1      17.296  51.958  47.926  1.00  0.00     0.080 C 
BRANCH  31  32
HETATM   32  C   UNL     1      16.217  52.754  48.620  1.00  0.00    -0.052 A 
HETATM   33  C   UNL     1      15.072  53.172  47.932  1.00  0.00     0.049 A 
HETATM   34  C   UNL     1      14.083  53.894  48.595  1.00  0.00     0.116 A 
HETATM   35  F   UNL     1      12.998  54.291  47.917  1.00  0.00    -0.206 F 
HETATM   36  C   UNL     1      14.203  54.206  49.942  1.00  0.00     0.042 A 
HETATM   37  C   UNL     1      15.331  53.786  50.642  1.00  0.00     0.003 A 
HETATM   38  C   UNL     1      16.333  53.065  49.985  1.00  0.00     0.007 A 
ENDBRANCH  31  32
ENDBRANCH   9  31
ENDBRANCH   4   5
ENDBRANCH   3   4
TORSDOF 7
ENDMDL
MODEL 8
REMARK VINA RESULT:      -8.2     11.465     14.016
REMARK  7 active torsions:
REMARK  status: ('A' for Active; 'I' for Inactive)
REMARK    1  A    between atoms: C_3  and  C_4 
REMARK    2  A    between atoms: C_4  and  N_5 
REMARK    3  A    between atoms: C_9  and  C_10 
REMARK    4  A    between atoms: C_9  and  C_28 
REMARK    5  A    between atoms: N_13  and  C_15 
REMARK    6  A    between atoms: C_15  and  C_16 
REMARK    7  A    between atoms: C_28  and  C_29 
ROOT
HETATM    1  C   UNL     1      38.416  50.604  37.864  1.00  0.00     0.112 C 
HETATM    2  C   UNL     1      37.479  51.153  38.847  1.00  0.00    -0.109 C 
HETATM    3  C   UNL     1      36.685  51.641  39.759  1.00  0.00    -0.087 C 
ENDROOT
BRANCH   3   4
HETATM    4  C   UNL     1      35.759  52.209  40.822  1.00  0.00     0.230 C 
BRANCH   4   5
HETATM    5  N   UNL     1      34.520  51.487  40.940  1.00  0.00    -0.257 N 
HETATM    6  C   UNL     1      33.668  51.270  39.905  1.00  0.00     0.327 C 
HETATM    7  O   UNL     1      33.835  51.533  38.730  1.00  0.00    -0.247 OA
HETATM    8  N   UNL     1      32.521  50.698  40.406  1.00  0.00    -0.324 N 
HETATM    9  C   UNL     1      32.504  50.621  41.857  1.00  0.00     0.123 C 
HETATM   10  H   UNL     1      31.721  50.551  39.798  1.00  0.00     0.165 HD
HETATM   11  C   UNL     1      33.898  51.227  42.122  1.00  0.00     0.257 C 
HETATM   12  O   UNL     1      34.365  51.434  43.233  1.00  0.00    -0.270 OA
BRANCH   9  13
HETATM   13  C   UNL     1      32.338  49.129  42.307  1.00  0.00     0.027 C 
HETATM   14  C   UNL     1      32.740  48.047  41.293  1.00  0.00     0.035 C 
HETATM   15  C   UNL     1      31.710  47.713  40.221  1.00  0.00     0.235 C 
HETATM   16  N   UNL     1      30.315  47.552  40.775  1.00  0.00    -0.067 N 
HETATM   17  H   UNL     1      30.282  46.621  41.208  1.00  0.00     0.280 HD
HETATM   18  C   UNL     1      29.887  48.548  41.817  1.00  0.00     0.235 C 
HETATM   19  C   UNL     1      30.956  48.746  42.873  1.00  0.00     0.035 C 
BRANCH  16  20
HETATM   20  C   UNL     1      29.276  47.542  39.658  1.00  0.00     0.273 C 
BRANCH  20  21
HETATM   21  C   UNL     1      27.863  47.361  40.133  1.00  0.00    -0.030 A 
HETATM   22  C   UNL     1      27.484  46.195  40.812  1.00  0.00     0.048 A 
HETATM   23  C   UNL     1      26.167  46.029  41.236  1.00  0.00     0.102 A 
HETATM   24  C   UNL     1      25.209  47.008  40.961  1.00  0.00     0.102 A 
HETATM   25  O   UNL     1      25.885  44.872  41.913  1.00  0.00    -0.346 OA
HETATM   26  O   UNL     1      23.893  46.895  41.320  1.00  0.00    -0.346 OA
HETATM   27  C   UNL     1      25.579  48.176  40.299  1.00  0.00     0.040 A 
HETATM   28  C   UNL     1      23.562  45.554  41.703  1.00  0.00     0.202 C 
HETATM   29  C   UNL     1      24.634  44.971  42.609  1.00  0.00     0.202 C 
HETATM   30  C   UNL     1      26.900  48.353  39.886  1.00  0.00     0.012 A 
ENDBRANCH  20  21
ENDBRANCH  16  20
ENDBRANCH   9  13
BRANCH   9  31
HETATM   31  C   UNL     1      31.485  51.622  42.466  1.00  0.00     0.080 C 
BRANCH  31  32
HETATM   32  C   UNL     1      30.562  52.300  41.482  1.00  0.00    -0.052 A 
HETATM   33  C   UNL     1      29.401  51.664  41.025  1.00  0.00     0.049 A 
HETATM   34  C   UNL     1      28.557  52.312  40.127  1.00  0.00     0.116 A 
HETATM   35  F   UNL     1      27.455  51.684  39.697  1.00  0.00    -0.206 F 
HETATM   36  C   UNL     1      28.838  53.593  39.674  1.00  0.00     0.042 A 
HETATM   37  C   UNL     1      29.983  54.242  40.129  1.00  0.00     0.003 A 
HETATM   38  C   UNL     1      30.840  53.600  41.027  1.00  0.00     0.007 A 
ENDBRANCH  31  32
ENDBRANCH   9  31
ENDBRANCH   4   5
ENDBRANCH   3   4
TORSDOF 7
ENDMDL
MODEL 9
REMARK VINA RESULT:      -8.2     12.480     15.429
REMARK  7 active torsions:
REMARK  status: ('A' for Active; 'I' for Inactive)
REMARK    1  A    between atoms: C_3  and  C_4 
REMARK    2  A    between atoms: C_4  and  N_5 
REMARK    3  A    between atoms: C_9  and  C_10 
REMARK    4  A    between atoms: C_9  and  C_28 
REMARK    5  A    between atoms: N_13  and  C_15 
REMARK    6  A    between atoms: C_15  and  C_16 
REMARK    7  A    between atoms: C_28  and  C_29 
ROOT
HETATM    1  C   UNL     1      27.888  45.507  37.551  1.00  0.00     0.112 C 
HETATM    2  C   UNL     1      28.939  46.395  38.052  1.00  0.00    -0.109 C 
HETATM    3  C   UNL     1      29.897  47.142  38.524  1.00  0.00    -0.087 C 
ENDROOT
BRANCH   3   4
HETATM    4  C   UNL     1      31.015  48.013  39.074  1.00  0.00     0.230 C 
BRANCH   4   5
HETATM    5  N   UNL     1      30.536  49.188  39.754  1.00  0.00    -0.257 N 
HETATM    6  C   UNL     1      29.993  49.175  40.998  1.00  0.00     0.327 C 
HETATM    7  O   UNL     1      29.914  48.239  41.771  1.00  0.00    -0.247 OA
HETATM    8  N   UNL     1      29.501  50.431  41.265  1.00  0.00    -0.324 N 
HETATM    9  C   UNL     1      29.582  51.334  40.130  1.00  0.00     0.123 C 
HETATM   10  H   UNL     1      28.965  50.595  42.112  1.00  0.00     0.165 HD
HETATM   11  C   UNL     1      30.266  50.370  39.137  1.00  0.00     0.257 C 
HETATM   12  O   UNL     1      30.524  50.641  37.973  1.00  0.00    -0.270 OA
BRANCH   9  13
HETATM   13  C   UNL     1      30.430  52.594  40.513  1.00  0.00     0.027 C 
HETATM   14  C   UNL     1      31.842  52.692  39.913  1.00  0.00     0.035 C 
HETATM   15  C   UNL     1      32.931  51.892  40.619  1.00  0.00     0.235 C 
HETATM   16  N   UNL     1      32.886  52.037  42.120  1.00  0.00    -0.067 N 
HETATM   17  H   UNL     1      33.308  52.949  42.335  1.00  0.00     0.280 HD
HETATM   18  C   UNL     1      31.525  52.009  42.759  1.00  0.00     0.235 C 
HETATM   19  C   UNL     1      30.543  52.896  42.020  1.00  0.00     0.035 C 
BRANCH  16  20
HETATM   20  C   UNL     1      33.763  50.990  42.801  1.00  0.00     0.273 C 
BRANCH  20  21
HETATM   21  C   UNL     1      35.190  51.412  42.993  1.00  0.00    -0.030 A 
HETATM   22  C   UNL     1      35.523  52.385  43.947  1.00  0.00     0.048 A 
HETATM   23  C   UNL     1      36.849  52.782  44.107  1.00  0.00     0.102 A 
HETATM   24  C   UNL     1      37.851  52.237  43.301  1.00  0.00     0.102 A 
HETATM   25  O   UNL     1      37.092  53.720  45.076  1.00  0.00    -0.346 OA
HETATM   26  O   UNL     1      39.167  52.605  43.384  1.00  0.00    -0.346 OA
HETATM   27  C   UNL     1      37.533  51.261  42.361  1.00  0.00     0.040 A 
HETATM   28  C   UNL     1      39.333  53.811  44.140  1.00  0.00     0.202 C 
HETATM   29  C   UNL     1      38.488  53.776  45.404  1.00  0.00     0.202 C 
HETATM   30  C   UNL     1      36.208  50.849  42.206  1.00  0.00     0.012 A 
ENDBRANCH  20  21
ENDBRANCH  16  20
ENDBRANCH   9  13
BRANCH   9  31
HETATM   31  C   UNL     1      28.177  51.626  39.535  1.00  0.00     0.080 C 
BRANCH  31  32
HETATM   32  C   UNL     1      27.317  50.417  39.259  1.00  0.00    -0.052 A 
HETATM   33  C   UNL     1      27.053  50.002  37.948  1.00  0.00     0.049 A 
HETATM   34  C   UNL     1      26.267  48.877  37.717  1.00  0.00     0.116 A 
HETATM   35  F   UNL     1      26.020  48.500  36.455  1.00  0.00    -0.206 F 
HETATM   36  C   UNL     1      25.739  48.141  38.769  1.00  0.00     0.042 A 
HETATM   37  C   UNL     1      26.003  48.534  40.077  1.00  0.00     0.003 A 
HETATM   38  C   UNL     1      26.787  49.666  40.322  1.00  0.00     0.007 A 
ENDBRANCH  31  32
ENDBRANCH   9  31
ENDBRANCH   4   5
ENDBRANCH   3   4
TORSDOF 7
ENDMDL
MODEL 10
REMARK VINA RESULT:      -8.2      5.193     11.495
REMARK  7 active torsions:
REMARK  status: ('A' for Active; 'I' for Inactive)
REMARK    1  A    between atoms: C_3  and  C_4 
REMARK    2  A    between atoms: C_4  and  N_5 
REMARK    3  A    between atoms: C_9  and  C_10 
REMARK    4  A    between atoms: C_9  and  C_28 
REMARK    5  A    between atoms: N_13  and  C_15 
REMARK    6  A    between atoms: C_15  and  C_16 
REMARK    7  A    between atoms: C_28  and  C_29 
ROOT
HETATM    1  C   UNL     1      15.930  49.998  42.058  1.00  0.00     0.112 C 
HETATM    2  C   UNL     1      16.342  49.340  43.300  1.00  0.00    -0.109 C 
HETATM    3  C   UNL     1      16.735  48.718  44.376  1.00  0.00    -0.087 C 
ENDROOT
BRANCH   3   4
HETATM    4  C   UNL     1      17.194  47.992  45.630  1.00  0.00     0.230 C 
BRANCH   4   5
HETATM    5  N   UNL     1      17.044  48.777  46.827  1.00  0.00    -0.257 N 
HETATM    6  C   UNL     1      15.886  48.876  47.528  1.00  0.00     0.327 C 
HETATM    7  O   UNL     1      14.848  48.269  47.349  1.00  0.00    -0.247 OA
HETATM    8  N   UNL     1      16.057  49.826  48.508  1.00  0.00    -0.324 N 
HETATM    9  C   UNL     1      17.333  50.516  48.424  1.00  0.00     0.123 C 
HETATM   10  H   UNL     1      15.266  50.117  49.075  1.00  0.00     0.165 HD
HETATM   11  C   UNL     1      17.911  49.751  47.215  1.00  0.00     0.257 C 
HETATM   12  O   UNL     1      18.991  49.992  46.693  1.00  0.00    -0.270 OA
BRANCH   9  13
HETATM   13  C   UNL     1      18.126  50.328  49.762  1.00  0.00     0.027 C 
HETATM   14  C   UNL     1      19.351  51.233  49.977  1.00  0.00     0.035 C 
HETATM   15  C   UNL     1      20.639  50.797  49.291  1.00  0.00     0.235 C 
HETATM   16  N   UNL     1      20.923  49.324  49.454  1.00  0.00    -0.067 N 
HETATM   17  H   UNL     1      21.298  49.206  50.404  1.00  0.00     0.280 HD
HETATM   18  C   UNL     1      19.751  48.393  49.313  1.00  0.00     0.235 C 
HETATM   19  C   UNL     1      18.550  48.885  50.097  1.00  0.00     0.035 C 
BRANCH  16  20
HETATM   20  C   UNL     1      22.024  48.865  48.501  1.00  0.00     0.273 C 
BRANCH  20  21
HETATM   21  C   UNL     1      22.906  47.784  49.054  1.00  0.00    -0.030 A 
HETATM   22  C   UNL     1      23.908  48.090  49.985  1.00  0.00     0.048 A 
HETATM   23  C   UNL     1      24.733  47.082  50.481  1.00  0.00     0.102 A 
HETATM   24  C   UNL     1      24.587  45.767  50.034  1.00  0.00     0.102 A 
HETATM   25  O   UNL     1      25.671  47.460  51.405  1.00  0.00    -0.346 OA
HETATM   26  O   UNL     1      25.382  44.735  50.455  1.00  0.00    -0.346 OA
HETATM   27  C   UNL     1      23.585  45.450  49.120  1.00  0.00     0.040 A 
HETATM   28  C   UNL     1      26.551  45.211  51.133  1.00  0.00     0.202 C 
HETATM   29  C   UNL     1      26.195  46.324  52.107  1.00  0.00     0.202 C 
HETATM   30  C   UNL     1      22.747  46.454  48.631  1.00  0.00     0.012 A 
ENDBRANCH  20  21
ENDBRANCH  16  20
ENDBRANCH   9  13
BRANCH   9  31
HETATM   31  C   UNL     1      17.155  51.984  47.950  1.00  0.00     0.080 C 
BRANCH  31  32
HETATM   32  C   UNL     1      16.014  52.744  48.582  1.00  0.00    -0.052 A 
HETATM   33  C   UNL     1      15.990  52.998  49.958  1.00  0.00     0.049 A 
HETATM   34  C   UNL     1      14.934  53.712  50.519  1.00  0.00     0.116 A 
HETATM   35  F   UNL     1      14.926  53.938  51.839  1.00  0.00    -0.206 F 
HETATM   36  C   UNL     1      13.895  54.191  49.734  1.00  0.00     0.042 A 
HETATM   37  C   UNL     1      13.912  53.956  48.361  1.00  0.00     0.003 A 
HETATM   38  C   UNL     1      14.964  53.237  47.788  1.00  0.00     0.007 A 
ENDBRANCH  31  32
ENDBRANCH   9  31
ENDBRANCH   4   5
ENDBRANCH   3   4
TORSDOF 7
ENDMDL
