MODEL 1
REMARK VINA RESULT:      -9.7      0.000      0.000
REMARK  5 active torsions:
REMARK  status: ('A' for Active; 'I' for Inactive)
REMARK    1  A    between atoms: O_2  and  C_3 
REMARK    2  A    between atoms: C_4  and  C_5 
REMARK    3  A    between atoms: C_9  and  N_10 
REMARK       I    between atoms: N_10  and  C_11 
REMARK    4  A    between atoms: C_11  and  C_12 
REMARK    5  A    between atoms: C_12  and  C_13 
ROOT
HETATM    1  C   UNL     1      25.157  46.763  49.915  1.00  0.00     0.093 A 
HETATM    2  N   UNL     1      24.417  45.642  49.906  1.00  0.00    -0.172 NA
HETATM    3  N   UNL     1      25.206  44.717  50.478  1.00  0.00    -0.262 N 
HETATM    4  H   UNL     1      24.873  43.761  50.576  1.00  0.00     0.191 HD
HETATM    5  C   UNL     1      26.410  45.209  50.907  1.00  0.00     0.126 A 
HETATM    6  C   UNL     1      26.413  46.535  50.548  1.00  0.00     0.084 A 
ENDROOT
BRANCH   5   7
HETATM    7  N   UNL     1      27.368  44.469  51.567  1.00  0.00    -0.311 N 
HETATM    8  C   UNL     1      27.109  43.858  52.778  1.00  0.00     0.236 C 
HETATM    9  O   UNL     1      26.035  43.875  53.373  1.00  0.00    -0.272 OA
HETATM   10  H   UNL     1      28.292  44.393  51.160  1.00  0.00     0.170 HD
BRANCH   8  11
HETATM   11  C   UNL     1      28.298  43.147  53.376  1.00  0.00     0.068 A 
HETATM   12  C   UNL     1      28.175  41.635  53.559  1.00  0.00     0.026 A 
HETATM   13  C   UNL     1      29.081  42.171  52.498  1.00  0.00     0.026 A 
BRANCH  11  14
HETATM   14  C   UNL     1      29.035  43.914  54.472  1.00  0.00    -0.039 A 
HETATM   15  C   UNL     1      30.113  43.356  55.180  1.00  0.00     0.032 A 
HETATM   16  C   UNL     1      30.781  44.084  56.168  1.00  0.00     0.034 A 
HETATM   17 CL   UNL     1      32.092  43.360  57.016  1.00  0.00    -0.084 Cl
HETATM   18  C   UNL     1      30.396  45.386  56.469  1.00  0.00     0.024 A 
HETATM   19  C   UNL     1      29.337  45.966  55.778  1.00  0.00     0.002 A 
HETATM   20  C   UNL     1      28.668  45.236  54.792  1.00  0.00     0.008 A 
ENDBRANCH  11  14
ENDBRANCH   8  11
ENDBRANCH   5   7
BRANCH   1  21
HETATM   21  C   UNL     1      24.656  48.033  49.390  1.00  0.00     0.029 A 
HETATM   22  C   UNL     1      25.462  48.923  48.662  1.00  0.00     0.081 A 
HETATM   23  C   UNL     1      24.947  50.140  48.198  1.00  0.00     0.039 A 
HETATM   24  C   UNL     1      23.612  50.467  48.432  1.00  0.00     0.026 A 
HETATM   25  C   UNL     1      22.803  49.583  49.142  1.00  0.00     0.035 A 
HETATM   26  C   UNL     1      23.314  48.376  49.621  1.00  0.00     0.040 A 
HETATM   27 CL   UNL     1      21.156  49.989  49.440  1.00  0.00    -0.084 Cl
BRANCH  22  28
HETATM   28  O   UNL     1      26.799  48.674  48.475  1.00  0.00    -0.355 OA
HETATM   29  C   UNL     1      27.576  49.800  48.888  1.00  0.00     0.210 C 
ENDBRANCH  22  28
ENDBRANCH   1  21
TORSDOF 5
ENDMDL
MODEL 2
REMARK VINA RESULT:      -9.5      5.506      8.832
REMARK  5 active torsions:
REMARK  status: ('A' for Active; 'I' for Inactive)
REMARK    1  A    between atoms: O_2  and  C_3 
REMARK    2  A    between atoms: C_4  and  C_5 
REMARK    3  A    between atoms: C_9  and  N_10 
REMARK       I    between atoms: N_10  and  C_11 
REMARK    4  A    between atoms: C_11  and  C_12 
REMARK    5  A    between atoms: C_12  and  C_13 
ROOT
HETATM    1  C   UNL     1      28.698  42.774  53.925  1.00  0.00     0.093 A 
HETATM    2  N   UNL     1      27.484  42.210  54.036  1.00  0.00    -0.172 NA
HETATM    3  N   UNL     1      27.552  41.117  53.257  1.00  0.00    -0.262 N 
HETATM    4  H   UNL     1      26.737  40.516  53.159  1.00  0.00     0.191 HD
HETATM    5  C   UNL     1      28.782  40.922  52.688  1.00  0.00     0.126 A 
HETATM    6  C   UNL     1      29.547  41.987  53.096  1.00  0.00     0.084 A 
ENDROOT
BRANCH   5   7
HETATM    7  N   UNL     1      29.114  39.848  51.889  1.00  0.00    -0.311 N 
HETATM    8  C   UNL     1      28.577  39.687  50.627  1.00  0.00     0.236 C 
HETATM    9  O   UNL     1      27.798  40.461  50.077  1.00  0.00    -0.272 OA
HETATM   10  H   UNL     1      29.750  39.149  52.251  1.00  0.00     0.170 HD
BRANCH   8  11
HETATM   11  C   UNL     1      29.009  38.420  49.931  1.00  0.00     0.068 A 
HETATM   12  C   UNL     1      30.497  38.285  49.607  1.00  0.00     0.026 A 
HETATM   13  C   UNL     1      29.905  37.442  50.689  1.00  0.00     0.026 A 
BRANCH  11  14
HETATM   14  C   UNL     1      28.028  37.878  48.893  1.00  0.00    -0.039 A 
HETATM   15  C   UNL     1      28.112  38.223  47.534  1.00  0.00     0.032 A 
HETATM   16  C   UNL     1      27.212  37.702  46.601  1.00  0.00     0.034 A 
HETATM   17 CL   UNL     1      27.345  38.155  44.946  1.00  0.00    -0.084 Cl
HETATM   18  C   UNL     1      26.212  36.820  46.998  1.00  0.00     0.024 A 
HETATM   19  C   UNL     1      26.112  36.455  48.337  1.00  0.00     0.002 A 
HETATM   20  C   UNL     1      27.011  36.980  49.270  1.00  0.00     0.008 A 
ENDBRANCH  11  14
ENDBRANCH   8  11
ENDBRANCH   5   7
BRANCH   1  21
HETATM   21  C   UNL     1      29.057  43.997  54.641  1.00  0.00     0.029 A 
HETATM   22  C   UNL     1      30.126  44.058  55.550  1.00  0.00     0.081 A 
HETATM   23  C   UNL     1      30.421  45.245  56.232  1.00  0.00     0.039 A 
HETATM   24  C   UNL     1      29.668  46.394  55.989  1.00  0.00     0.026 A 
HETATM   25  C   UNL     1      28.616  46.346  55.078  1.00  0.00     0.035 A 
HETATM   26  C   UNL     1      28.306  45.161  54.408  1.00  0.00     0.040 A 
HETATM   27 CL   UNL     1      27.679  47.760  54.783  1.00  0.00    -0.084 Cl
BRANCH  22  28
HETATM   28  O   UNL     1      30.842  42.933  55.874  1.00  0.00    -0.355 OA
HETATM   29  C   UNL     1      31.649  43.172  57.029  1.00  0.00     0.210 C 
ENDBRANCH  22  28
ENDBRANCH   1  21
TORSDOF 5
ENDMDL
MODEL 3
REMARK VINA RESULT:      -9.1      4.997      9.012
REMARK  5 active torsions:
REMARK  status: ('A' for Active; 'I' for Inactive)
REMARK    1  A    between atoms: O_2  and  C_3 
REMARK    2  A    between atoms: C_4  and  C_5 
REMARK    3  A    between atoms: C_9  and  N_10 
REMARK       I    between atoms: N_10  and  C_11 
REMARK    4  A    between atoms: C_11  and  C_12 
REMARK    5  A    between atoms: C_12  and  C_13 
ROOT
HETATM    1  C   UNL     1      28.813  42.620  53.953  1.00  0.00     0.093 A 
HETATM    2  N   UNL     1      27.536  42.208  53.912  1.00  0.00    -0.172 NA
HETATM    3  N   UNL     1      27.547  41.171  53.057  1.00  0.00    -0.262 N 
HETATM    4  H   UNL     1      26.680  40.687  52.840  1.00  0.00     0.191 HD
HETATM    5  C   UNL     1      28.794  40.862  52.583  1.00  0.00     0.126 A 
HETATM    6  C   UNL     1      29.638  41.791  53.140  1.00  0.00     0.084 A 
ENDROOT
BRANCH   5   7
HETATM    7  N   UNL     1      29.070  39.812  51.733  1.00  0.00    -0.311 N 
HETATM    8  C   UNL     1      28.491  39.718  50.482  1.00  0.00     0.236 C 
HETATM    9  O   UNL     1      27.719  40.535  49.988  1.00  0.00    -0.272 OA
HETATM   10  H   UNL     1      29.696  39.082  52.047  1.00  0.00     0.170 HD
BRANCH   8  11
HETATM   11  C   UNL     1      28.865  38.468  49.724  1.00  0.00     0.068 A 
HETATM   12  C   UNL     1      30.331  38.322  49.317  1.00  0.00     0.026 A 
HETATM   13  C   UNL     1      29.783  37.452  50.401  1.00  0.00     0.026 A 
BRANCH  11  14
HETATM   14  C   UNL     1      27.822  37.975  48.723  1.00  0.00    -0.039 A 
HETATM   15  C   UNL     1      27.778  38.441  47.398  1.00  0.00     0.032 A 
HETATM   16  C   UNL     1      26.823  37.964  46.497  1.00  0.00     0.034 A 
HETATM   17 CL   UNL     1      26.801  38.565  44.885  1.00  0.00    -0.084 Cl
HETATM   18  C   UNL     1      25.895  37.007  46.891  1.00  0.00     0.024 A 
HETATM   19  C   UNL     1      25.920  36.522  48.195  1.00  0.00     0.002 A 
HETATM   20  C   UNL     1      26.874  37.003  49.096  1.00  0.00     0.008 A 
ENDBRANCH  11  14
ENDBRANCH   8  11
ENDBRANCH   5   7
BRANCH   1  21
HETATM   21  C   UNL     1      29.246  43.736  54.793  1.00  0.00     0.029 A 
HETATM   22  C   UNL     1      28.669  45.014  54.713  1.00  0.00     0.081 A 
HETATM   23  C   UNL     1      29.132  46.061  55.521  1.00  0.00     0.039 A 
HETATM   24  C   UNL     1      30.157  45.833  56.438  1.00  0.00     0.026 A 
HETATM   25  C   UNL     1      30.724  44.565  56.534  1.00  0.00     0.035 A 
HETATM   26  C   UNL     1      30.280  43.522  55.721  1.00  0.00     0.040 A 
HETATM   27 CL   UNL     1      31.996  44.284  57.660  1.00  0.00    -0.084 Cl
BRANCH  22  28
HETATM   28  O   UNL     1      27.713  45.299  53.772  1.00  0.00    -0.355 OA
HETATM   29  C   UNL     1      26.912  46.404  54.195  1.00  0.00     0.210 C 
ENDBRANCH  22  28
ENDBRANCH   1  21
TORSDOF 5
ENDMDL
MODEL 4
REMARK VINA RESULT:      -9.1      5.308      8.977
REMARK  5 active torsions:
REMARK  status: ('A' for Active; 'I' for Inactive)
REMARK    1  A    between atoms: O_2  and  C_3 
REMARK    2  A    between atoms: C_4  and  C_5 
REMARK    3  A    between atoms: C_9  and  N_10 
REMARK       I    between atoms: N_10  and  C_11 
REMARK    4  A    between atoms: C_11  and  C_12 
REMARK    5  A    between atoms: C_12  and  C_13 
ROOT
HETATM    1  C   UNL     1      28.757  42.485  53.746  1.00  0.00     0.093 A 
HETATM    2  N   UNL     1      27.574  41.893  53.975  1.00  0.00    -0.172 NA
HETATM    3  N   UNL     1      27.451  40.998  52.979  1.00  0.00    -0.262 N 
HETATM    4  H   UNL     1      26.615  40.422  52.920  1.00  0.00     0.191 HD
HETATM    5  C   UNL     1      28.535  40.951  52.144  1.00  0.00     0.126 A 
HETATM    6  C   UNL     1      29.398  41.912  52.610  1.00  0.00     0.084 A 
ENDROOT
BRANCH   5   7
HETATM    7  N   UNL     1      28.666  40.083  51.080  1.00  0.00    -0.311 N 
HETATM    8  C   UNL     1      27.589  39.737  50.287  1.00  0.00     0.236 C 
HETATM    9  O   UNL     1      26.444  40.163  50.409  1.00  0.00    -0.272 OA
HETATM   10  H   UNL     1      29.572  39.673  50.894  1.00  0.00     0.170 HD
BRANCH   8  11
HETATM   11  C   UNL     1      27.915  38.727  49.214  1.00  0.00     0.068 A 
HETATM   12  C   UNL     1      29.025  37.724  49.526  1.00  0.00     0.026 A 
HETATM   13  C   UNL     1      27.607  37.255  49.480  1.00  0.00     0.026 A 
BRANCH  11  14
HETATM   14  C   UNL     1      27.847  39.253  47.781  1.00  0.00    -0.039 A 
HETATM   15  C   UNL     1      27.315  38.488  46.729  1.00  0.00     0.032 A 
HETATM   16  C   UNL     1      27.249  38.997  45.430  1.00  0.00     0.034 A 
HETATM   17 CL   UNL     1      26.595  38.025  44.169  1.00  0.00    -0.084 Cl
HETATM   18  C   UNL     1      27.706  40.280  45.148  1.00  0.00     0.024 A 
HETATM   19  C   UNL     1      28.231  41.061  46.173  1.00  0.00     0.002 A 
HETATM   20  C   UNL     1      28.299  40.550  47.472  1.00  0.00     0.008 A 
ENDBRANCH  11  14
ENDBRANCH   8  11
ENDBRANCH   5   7
BRANCH   1  21
HETATM   21  C   UNL     1      29.291  43.526  54.622  1.00  0.00     0.029 A 
HETATM   22  C   UNL     1      28.773  44.832  54.651  1.00  0.00     0.081 A 
HETATM   23  C   UNL     1      29.331  45.805  55.489  1.00  0.00     0.039 A 
HETATM   24  C   UNL     1      30.393  45.476  56.330  1.00  0.00     0.026 A 
HETATM   25  C   UNL     1      30.903  44.180  56.318  1.00  0.00     0.035 A 
HETATM   26  C   UNL     1      30.363  43.210  55.473  1.00  0.00     0.040 A 
HETATM   27 CL   UNL     1      32.221  43.773  57.348  1.00  0.00    -0.084 Cl
BRANCH  22  28
HETATM   28  O   UNL     1      27.780  45.217  53.786  1.00  0.00    -0.355 OA
HETATM   29  C   UNL     1      26.561  45.442  54.497  1.00  0.00     0.210 C 
ENDBRANCH  22  28
ENDBRANCH   1  21
TORSDOF 5
ENDMDL
MODEL 5
REMARK VINA RESULT:      -8.7      2.786      9.479
REMARK  5 active torsions:
REMARK  status: ('A' for Active; 'I' for Inactive)
REMARK    1  A    between atoms: O_2  and  C_3 
REMARK    2  A    between atoms: C_4  and  C_5 
REMARK    3  A    between atoms: C_9  and  N_10 
REMARK       I    between atoms: N_10  and  C_11 
REMARK    4  A    between atoms: C_11  and  C_12 
REMARK    5  A    between atoms: C_12  and  C_13 
ROOT
HETATM    1  C   UNL     1      26.018  45.806  51.598  1.00  0.00     0.093 A 
HETATM    2  N   UNL     1      26.454  46.799  50.806  1.00  0.00    -0.172 NA
HETATM    3  N   UNL     1      25.416  47.058  49.992  1.00  0.00    -0.262 N 
HETATM    4  H   UNL     1      25.504  47.774  49.276  1.00  0.00     0.191 HD
HETATM    5  C   UNL     1      24.305  46.306  50.262  1.00  0.00     0.126 A 
HETATM    6  C   UNL     1      24.665  45.476  51.295  1.00  0.00     0.084 A 
ENDROOT
BRANCH   5   7
HETATM    7  N   UNL     1      23.101  46.421  49.598  1.00  0.00    -0.311 N 
HETATM    8  C   UNL     1      22.664  47.629  49.090  1.00  0.00     0.236 C 
HETATM    9  O   UNL     1      23.279  48.691  49.140  1.00  0.00    -0.272 OA
HETATM   10  H   UNL     1      22.516  45.601  49.504  1.00  0.00     0.170 HD
BRANCH   8  11
HETATM   11  C   UNL     1      21.297  47.570  48.454  1.00  0.00     0.068 A 
HETATM   12  C   UNL     1      21.245  47.232  46.965  1.00  0.00     0.026 A 
HETATM   13  C   UNL     1      20.780  46.220  47.961  1.00  0.00     0.026 A 
BRANCH  11  14
HETATM   14  C   UNL     1      20.297  48.609  48.958  1.00  0.00    -0.039 A 
HETATM   15  C   UNL     1      20.302  49.936  48.497  1.00  0.00     0.032 A 
HETATM   16  C   UNL     1      19.368  50.865  48.962  1.00  0.00     0.034 A 
HETATM   17 CL   UNL     1      19.412  52.482  48.376  1.00  0.00    -0.084 Cl
HETATM   18  C   UNL     1      18.403  50.493  49.892  1.00  0.00     0.024 A 
HETATM   19  C   UNL     1      18.370  49.182  50.359  1.00  0.00     0.002 A 
HETATM   20  C   UNL     1      19.307  48.256  49.895  1.00  0.00     0.008 A 
ENDBRANCH  11  14
ENDBRANCH   8  11
ENDBRANCH   5   7
BRANCH   1  21
HETATM   21  C   UNL     1      26.846  45.230  52.656  1.00  0.00     0.029 A 
HETATM   22  C   UNL     1      26.668  45.541  54.014  1.00  0.00     0.081 A 
HETATM   23  C   UNL     1      27.501  44.984  54.992  1.00  0.00     0.039 A 
HETATM   24  C   UNL     1      28.503  44.086  54.626  1.00  0.00     0.026 A 
HETATM   25  C   UNL     1      28.677  43.761  53.283  1.00  0.00     0.035 A 
HETATM   26  C   UNL     1      27.861  44.326  52.301  1.00  0.00     0.040 A 
HETATM   27 CL   UNL     1      29.919  42.660  52.827  1.00  0.00    -0.084 Cl
BRANCH  22  28
HETATM   28  O   UNL     1      25.745  46.477  54.408  1.00  0.00    -0.355 OA
HETATM   29  C   UNL     1      26.399  47.680  54.815  1.00  0.00     0.210 C 
ENDBRANCH  22  28
ENDBRANCH   1  21
TORSDOF 5
ENDMDL
MODEL 6
REMARK VINA RESULT:      -8.7      1.939      2.363
REMARK  5 active torsions:
REMARK  status: ('A' for Active; 'I' for Inactive)
REMARK    1  A    between atoms: O_2  and  C_3 
REMARK    2  A    between atoms: C_4  and  C_5 
REMARK    3  A    between atoms: C_9  and  N_10 
REMARK       I    between atoms: N_10  and  C_11 
REMARK    4  A    between atoms: C_11  and  C_12 
REMARK    5  A    between atoms: C_12  and  C_13 
ROOT
HETATM    1  C   UNL     1      24.492  46.981  49.934  1.00  0.00     0.093 A 
HETATM    2  N   UNL     1      25.250  47.980  50.413  1.00  0.00    -0.172 NA
HETATM    3  N   UNL     1      26.232  47.359  51.089  1.00  0.00    -0.262 N 
HETATM    4  H   UNL     1      26.941  47.910  51.567  1.00  0.00     0.191 HD
HETATM    5  C   UNL     1      26.168  45.993  51.021  1.00  0.00     0.126 A 
HETATM    6  C   UNL     1      25.043  45.715  50.284  1.00  0.00     0.084 A 
ENDROOT
BRANCH   5   7
HETATM    7  N   UNL     1      27.086  45.137  51.591  1.00  0.00    -0.311 N 
HETATM    8  C   UNL     1      26.838  44.498  52.791  1.00  0.00     0.236 C 
HETATM    9  O   UNL     1      25.805  44.588  53.449  1.00  0.00    -0.272 OA
HETATM   10  H   UNL     1      27.974  44.995  51.127  1.00  0.00     0.170 HD
BRANCH   8  11
HETATM   11  C   UNL     1      27.986  43.653  53.287  1.00  0.00     0.068 A 
HETATM   12  C   UNL     1      27.753  42.144  53.347  1.00  0.00     0.026 A 
HETATM   13  C   UNL     1      28.668  42.702  52.305  1.00  0.00     0.026 A 
BRANCH  11  14
HETATM   14  C   UNL     1      28.808  44.267  54.418  1.00  0.00    -0.039 A 
HETATM   15  C   UNL     1      29.867  43.577  55.031  1.00  0.00     0.032 A 
HETATM   16  C   UNL     1      30.615  44.167  56.054  1.00  0.00     0.034 A 
HETATM   17 CL   UNL     1      31.901  43.285  56.783  1.00  0.00    -0.084 Cl
HETATM   18  C   UNL     1      30.329  45.457  56.486  1.00  0.00     0.024 A 
HETATM   19  C   UNL     1      29.290  46.166  55.890  1.00  0.00     0.002 A 
HETATM   20  C   UNL     1      28.542  45.574  54.869  1.00  0.00     0.008 A 
ENDBRANCH  11  14
ENDBRANCH   8  11
ENDBRANCH   5   7
BRANCH   1  21
HETATM   21  C   UNL     1      23.308  47.226  49.112  1.00  0.00     0.029 A 
HETATM   22  C   UNL     1      22.696  48.487  49.018  1.00  0.00     0.081 A 
HETATM   23  C   UNL     1      21.549  48.671  48.237  1.00  0.00     0.039 A 
HETATM   24  C   UNL     1      21.017  47.603  47.517  1.00  0.00     0.026 A 
HETATM   25  C   UNL     1      21.626  46.352  47.592  1.00  0.00     0.035 A 
HETATM   26  C   UNL     1      22.760  46.158  48.382  1.00  0.00     0.040 A 
HETATM   27 CL   UNL     1      20.966  45.029  46.710  1.00  0.00    -0.084 Cl
BRANCH  22  28
HETATM   28  O   UNL     1      23.142  49.545  49.770  1.00  0.00    -0.355 OA
HETATM   29  C   UNL     1      23.236  50.723  48.966  1.00  0.00     0.210 C 
ENDBRANCH  22  28
ENDBRANCH   1  21
TORSDOF 5
ENDMDL
MODEL 7
REMARK VINA RESULT:      -8.4      2.675      9.380
REMARK  5 active torsions:
REMARK  status: ('A' for Active; 'I' for Inactive)
REMARK    1  A    between atoms: O_2  and  C_3 
REMARK    2  A    between atoms: C_4  and  C_5 
REMARK    3  A    between atoms: C_9  and  N_10 
REMARK       I    between atoms: N_10  and  C_11 
REMARK    4  A    between atoms: C_11  and  C_12 
REMARK    5  A    between atoms: C_12  and  C_13 
ROOT
HETATM    1  C   UNL     1      25.973  45.413  51.417  1.00  0.00     0.093 A 
HETATM    2  N   UNL     1      26.497  46.133  50.412  1.00  0.00    -0.172 NA
HETATM    3  N   UNL     1      25.451  46.399  49.612  1.00  0.00    -0.262 N 
HETATM    4  H   UNL     1      25.594  46.929  48.756  1.00  0.00     0.191 HD
HETATM    5  C   UNL     1      24.258  45.924  50.088  1.00  0.00     0.126 A 
HETATM    6  C   UNL     1      24.565  45.270  51.256  1.00  0.00     0.084 A 
ENDROOT
BRANCH   5   7
HETATM    7  N   UNL     1      23.039  46.111  49.472  1.00  0.00    -0.311 N 
HETATM    8  C   UNL     1      22.660  47.341  48.968  1.00  0.00     0.236 C 
HETATM    9  O   UNL     1      23.344  48.361  48.981  1.00  0.00    -0.272 OA
HETATM   10  H   UNL     1      22.398  45.331  49.411  1.00  0.00     0.170 HD
BRANCH   8  11
HETATM   11  C   UNL     1      21.267  47.365  48.389  1.00  0.00     0.068 A 
HETATM   12  C   UNL     1      21.137  47.065  46.896  1.00  0.00     0.026 A 
HETATM   13  C   UNL     1      20.662  46.055  47.889  1.00  0.00     0.026 A 
BRANCH  11  14
HETATM   14  C   UNL     1      20.343  48.441  48.956  1.00  0.00    -0.039 A 
HETATM   15  C   UNL     1      20.389  49.774  48.515  1.00  0.00     0.032 A 
HETATM   16  C   UNL     1      19.523  50.738  49.039  1.00  0.00     0.034 A 
HETATM   17 CL   UNL     1      19.616  52.361  48.476  1.00  0.00    -0.084 Cl
HETATM   18  C   UNL     1      18.586  50.394  50.008  1.00  0.00     0.024 A 
HETATM   19  C   UNL     1      18.514  49.079  50.457  1.00  0.00     0.002 A 
HETATM   20  C   UNL     1      19.383  48.118  49.935  1.00  0.00     0.008 A 
ENDBRANCH  11  14
ENDBRANCH   8  11
ENDBRANCH   5   7
BRANCH   1  21
HETATM   21  C   UNL     1      26.782  44.927  52.534  1.00  0.00     0.029 A 
HETATM   22  C   UNL     1      27.285  43.616  52.592  1.00  0.00     0.081 A 
HETATM   23  C   UNL     1      28.036  43.186  53.692  1.00  0.00     0.039 A 
HETATM   24  C   UNL     1      28.319  44.070  54.733  1.00  0.00     0.026 A 
HETATM   25  C   UNL     1      27.836  45.375  54.676  1.00  0.00     0.035 A 
HETATM   26  C   UNL     1      27.073  45.806  53.590  1.00  0.00     0.040 A 
HETATM   27 CL   UNL     1      28.176  46.465  55.964  1.00  0.00    -0.084 Cl
BRANCH  22  28
HETATM   28  O   UNL     1      26.967  42.695  51.627  1.00  0.00    -0.355 OA
HETATM   29  C   UNL     1      28.076  41.828  51.380  1.00  0.00     0.210 C 
ENDBRANCH  22  28
ENDBRANCH   1  21
TORSDOF 5
ENDMDL
MODEL 8
REMARK VINA RESULT:      -8.4      5.356      8.287
REMARK  5 active torsions:
REMARK  status: ('A' for Active; 'I' for Inactive)
REMARK    1  A    between atoms: O_2  and  C_3 
REMARK    2  A    between atoms: C_4  and  C_5 
REMARK    3  A    between atoms: C_9  and  N_10 
REMARK       I    between atoms: N_10  and  C_11 
REMARK    4  A    between atoms: C_11  and  C_12 
REMARK    5  A    between atoms: C_12  and  C_13 
ROOT
HETATM    1  C   UNL     1      28.611  43.354  53.704  1.00  0.00     0.093 A 
HETATM    2  N   UNL     1      27.286  43.139  53.679  1.00  0.00    -0.172 NA
HETATM    3  N   UNL     1      27.089  42.397  52.576  1.00  0.00    -0.262 N 
HETATM    4  H   UNL     1      26.146  42.111  52.323  1.00  0.00     0.191 HD
HETATM    5  C   UNL     1      28.244  42.079  51.913  1.00  0.00     0.126 A 
HETATM    6  C   UNL     1      29.251  42.693  52.616  1.00  0.00     0.084 A 
ENDROOT
BRANCH   5   7
HETATM    7  N   UNL     1      28.306  41.289  50.784  1.00  0.00    -0.311 N 
HETATM    8  C   UNL     1      27.511  41.534  49.681  1.00  0.00     0.236 C 
HETATM    9  O   UNL     1      26.711  42.458  49.566  1.00  0.00    -0.272 OA
HETATM   10  H   UNL     1      28.935  40.497  50.777  1.00  0.00     0.170 HD
BRANCH   8  11
HETATM   11  C   UNL     1      27.674  40.526  48.569  1.00  0.00     0.068 A 
HETATM   12  C   UNL     1      26.995  40.852  47.240  1.00  0.00     0.026 A 
HETATM   13  C   UNL     1      28.484  40.925  47.337  1.00  0.00     0.026 A 
BRANCH  11  14
HETATM   14  C   UNL     1      27.661  39.063  49.007  1.00  0.00    -0.039 A 
HETATM   15  C   UNL     1      28.629  38.536  49.880  1.00  0.00     0.032 A 
HETATM   16  C   UNL     1      28.587  37.197  50.278  1.00  0.00     0.034 A 
HETATM   17 CL   UNL     1      29.795  36.590  51.343  1.00  0.00    -0.084 Cl
HETATM   18  C   UNL     1      27.578  36.355  49.824  1.00  0.00     0.024 A 
HETATM   19  C   UNL     1      26.603  36.853  48.965  1.00  0.00     0.002 A 
HETATM   20  C   UNL     1      26.648  38.191  48.565  1.00  0.00     0.008 A 
ENDBRANCH  11  14
ENDBRANCH   8  11
ENDBRANCH   5   7
BRANCH   1  21
HETATM   21  C   UNL     1      29.258  44.118  54.769  1.00  0.00     0.029 A 
HETATM   22  C   UNL     1      28.865  45.422  55.114  1.00  0.00     0.081 A 
HETATM   23  C   UNL     1      29.529  46.126  56.126  1.00  0.00     0.039 A 
HETATM   24  C   UNL     1      30.573  45.523  56.826  1.00  0.00     0.026 A 
HETATM   25  C   UNL     1      30.959  44.225  56.500  1.00  0.00     0.035 A 
HETATM   26  C   UNL     1      30.314  43.524  55.481  1.00  0.00     0.040 A 
HETATM   27 CL   UNL     1      32.255  43.482  57.356  1.00  0.00    -0.084 Cl
BRANCH  22  28
HETATM   28  O   UNL     1      27.894  46.078  54.401  1.00  0.00    -0.355 OA
HETATM   29  C   UNL     1      27.492  47.267  55.084  1.00  0.00     0.210 C 
ENDBRANCH  22  28
ENDBRANCH   1  21
TORSDOF 5
ENDMDL
MODEL 9
REMARK VINA RESULT:      -8.1      4.505      8.675
REMARK  5 active torsions:
REMARK  status: ('A' for Active; 'I' for Inactive)
REMARK    1  A    between atoms: O_2  and  C_3 
REMARK    2  A    between atoms: C_4  and  C_5 
REMARK    3  A    between atoms: C_9  and  N_10 
REMARK       I    between atoms: N_10  and  C_11 
REMARK    4  A    between atoms: C_11  and  C_12 
REMARK    5  A    between atoms: C_12  and  C_13 
ROOT
HETATM    1  C   UNL     1      28.662  43.368  53.510  1.00  0.00     0.093 A 
HETATM    2  N   UNL     1      29.406  42.755  52.575  1.00  0.00    -0.172 NA
HETATM    3  N   UNL     1      28.510  42.292  51.686  1.00  0.00    -0.262 N 
HETATM    4  H   UNL     1      28.829  41.767  50.876  1.00  0.00     0.191 HD
HETATM    5  C   UNL     1      27.217  42.629  51.982  1.00  0.00     0.126 A 
HETATM    6  C   UNL     1      27.280  43.321  53.167  1.00  0.00     0.084 A 
ENDROOT
BRANCH   5   7
HETATM    7  N   UNL     1      26.126  42.312  51.199  1.00  0.00    -0.311 N 
HETATM    8  C   UNL     1      26.004  42.771  49.902  1.00  0.00     0.236 C 
HETATM    9  O   UNL     1      26.828  43.461  49.307  1.00  0.00    -0.272 OA
HETATM   10  H   UNL     1      25.387  41.747  51.598  1.00  0.00     0.170 HD
BRANCH   8  11
HETATM   11  C   UNL     1      24.715  42.374  49.227  1.00  0.00     0.068 A 
HETATM   12  C   UNL     1      23.427  42.593  50.020  1.00  0.00     0.026 A 
HETATM   13  C   UNL     1      23.722  43.472  48.848  1.00  0.00     0.026 A 
BRANCH  11  14
HETATM   14  C   UNL     1      24.789  41.111  48.371  1.00  0.00    -0.039 A 
HETATM   15  C   UNL     1      25.861  40.207  48.464  1.00  0.00     0.032 A 
HETATM   16  C   UNL     1      25.898  39.051  47.680  1.00  0.00     0.034 A 
HETATM   17 CL   UNL     1      27.232  37.973  47.820  1.00  0.00    -0.084 Cl
HETATM   18  C   UNL     1      24.867  38.764  46.792  1.00  0.00     0.024 A 
HETATM   19  C   UNL     1      23.790  39.638  46.687  1.00  0.00     0.002 A 
HETATM   20  C   UNL     1      23.755  40.796  47.468  1.00  0.00     0.008 A 
ENDBRANCH  11  14
ENDBRANCH   8  11
ENDBRANCH   5   7
BRANCH   1  21
HETATM   21  C   UNL     1      29.257  44.034  54.667  1.00  0.00     0.029 A 
HETATM   22  C   UNL     1      28.812  45.280  55.137  1.00  0.00     0.081 A 
HETATM   23  C   UNL     1      29.427  45.893  56.236  1.00  0.00     0.039 A 
HETATM   24  C   UNL     1      30.475  45.253  56.895  1.00  0.00     0.026 A 
HETATM   25  C   UNL     1      30.913  44.010  56.445  1.00  0.00     0.035 A 
HETATM   26  C   UNL     1      30.316  43.401  55.340  1.00  0.00     0.040 A 
HETATM   27 CL   UNL     1      32.213  43.221  57.252  1.00  0.00    -0.084 Cl
BRANCH  22  28
HETATM   28  O   UNL     1      27.836  45.978  54.472  1.00  0.00    -0.355 OA
HETATM   29  C   UNL     1      27.864  47.356  54.848  1.00  0.00     0.210 C 
ENDBRANCH  22  28
ENDBRANCH   1  21
TORSDOF 5
ENDMDL
MODEL 10
REMARK VINA RESULT:      -8.1      3.059      9.613
REMARK  5 active torsions:
REMARK  status: ('A' for Active; 'I' for Inactive)
REMARK    1  A    between atoms: O_2  and  C_3 
REMARK    2  A    between atoms: C_4  and  C_5 
REMARK    3  A    between atoms: C_9  and  N_10 
REMARK       I    between atoms: N_10  and  C_11 
REMARK    4  A    between atoms: C_11  and  C_12 
REMARK    5  A    between atoms: C_12  and  C_13 
ROOT
HETATM    1  C   UNL     1      25.916  46.392  50.727  1.00  0.00     0.093 A 
HETATM    2  N   UNL     1      26.488  47.384  50.025  1.00  0.00    -0.172 NA
HETATM    3  N   UNL     1      25.453  48.121  49.586  1.00  0.00    -0.262 N 
HETATM    4  H   UNL     1      25.627  48.938  49.006  1.00  0.00     0.191 HD
HETATM    5  C   UNL     1      24.235  47.675  50.022  1.00  0.00     0.126 A 
HETATM    6  C   UNL     1      24.500  46.547  50.759  1.00  0.00     0.084 A 
ENDROOT
BRANCH   5   7
HETATM    7  N   UNL     1      23.032  48.290  49.746  1.00  0.00    -0.311 N 
HETATM    8  C   UNL     1      22.855  49.070  48.620  1.00  0.00     0.236 C 
HETATM    9  O   UNL     1      23.699  49.277  47.753  1.00  0.00    -0.272 OA
HETATM   10  H   UNL     1      22.268  48.183  50.402  1.00  0.00     0.170 HD
BRANCH   8  11
HETATM   11  C   UNL     1      21.492  49.711  48.523  1.00  0.00     0.068 A 
HETATM   12  C   UNL     1      21.059  50.589  49.697  1.00  0.00     0.026 A 
HETATM   13  C   UNL     1      21.408  51.230  48.393  1.00  0.00     0.026 A 
BRANCH  11  14
HETATM   14  C   UNL     1      20.411  48.849  47.874  1.00  0.00    -0.039 A 
HETATM   15  C   UNL     1      20.200  47.510  48.244  1.00  0.00     0.032 A 
HETATM   16  C   UNL     1      19.194  46.746  47.647  1.00  0.00     0.034 A 
HETATM   17 CL   UNL     1      18.973  45.108  48.125  1.00  0.00    -0.084 Cl
HETATM   18  C   UNL     1      18.371  47.299  46.672  1.00  0.00     0.024 A 
HETATM   19  C   UNL     1      18.553  48.626  46.292  1.00  0.00     0.002 A 
HETATM   20  C   UNL     1      19.561  49.387  46.888  1.00  0.00     0.008 A 
ENDBRANCH  11  14
ENDBRANCH   8  11
ENDBRANCH   5   7
BRANCH   1  21
HETATM   21  C   UNL     1      26.702  45.359  51.400  1.00  0.00     0.029 A 
HETATM   22  C   UNL     1      27.219  44.240  50.727  1.00  0.00     0.081 A 
HETATM   23  C   UNL     1      27.946  43.262  51.417  1.00  0.00     0.039 A 
HETATM   24  C   UNL     1      28.190  43.408  52.782  1.00  0.00     0.026 A 
HETATM   25  C   UNL     1      27.693  44.522  53.454  1.00  0.00     0.035 A 
HETATM   26  C   UNL     1      26.953  45.492  52.776  1.00  0.00     0.040 A 
HETATM   27 CL   UNL     1      27.986  44.700  55.141  1.00  0.00    -0.084 Cl
BRANCH  22  28
HETATM   28  O   UNL     1      26.937  44.020  49.403  1.00  0.00    -0.355 OA
HETATM   29  C   UNL     1      26.404  42.708  49.218  1.00  0.00     0.210 C 
ENDBRANCH  22  28
ENDBRANCH   1  21
TORSDOF 5
ENDMDL
