MODEL 1
REMARK VINA RESULT:      -9.3      0.000      0.000
REMARK  6 active torsions:
REMARK  status: ('A' for Active; 'I' for Inactive)
REMARK    1  A    between atoms: C_5  and  N_6 
REMARK    2  A    between atoms: C_17  and  C_29 
REMARK    3  A    between atoms: C_17  and  N_18 
REMARK       I    between atoms: N_18  and  C_19 
REMARK    4  A    between atoms: C_19  and  C_20 
REMARK    5  A    between atoms: C_20  and  C_21 
REMARK    6  A    between atoms: C_21  and  C_22 
ROOT
HETATM    1  N   UNL     1      26.555  48.938  39.125  1.00  0.00    -0.248 N 
HETATM    2  C   UNL     1      27.251  47.915  38.436  1.00  0.00     0.335 A 
HETATM    3  O   UNL     1      26.757  46.928  37.893  1.00  0.00    -0.246 OA
HETATM    4  N   UNL     1      28.617  48.085  38.322  1.00  0.00    -0.274 N 
HETATM    5  C   UNL     1      29.348  49.167  38.714  1.00  0.00     0.262 A 
HETATM    6  O   UNL     1      30.543  49.299  38.492  1.00  0.00    -0.267 OA
HETATM    7  C   UNL     1      28.592  50.161  39.443  1.00  0.00     0.101 A 
HETATM    8  C   UNL     1      27.281  50.005  39.623  1.00  0.00     0.134 A 
HETATM    9  N   UNL     1      26.833  51.017  40.417  1.00  0.00    -0.309 N 
HETATM   10  C   UNL     1      27.864  51.872  40.795  1.00  0.00     0.266 A 
HETATM   11  O   UNL     1      27.743  52.809  41.569  1.00  0.00    -0.270 OA
HETATM   12  C   UNL     1      29.144  51.398  40.082  1.00  0.00     0.249 A 
HETATM   13  H   UNL     1      29.100  47.370  37.798  1.00  0.00     0.173 HD
HETATM   14  H   UNL     1      25.913  51.070  40.834  1.00  0.00     0.170 HD
ENDROOT
BRANCH  12  15
HETATM   15  C   UNL     1      29.445  52.492  39.049  1.00  0.00     0.426 C 
HETATM   16  F   UNL     1      30.584  52.250  38.356  1.00  0.00    -0.167 F 
HETATM   17  F   UNL     1      28.446  52.641  38.150  1.00  0.00    -0.167 F 
HETATM   18  F   UNL     1      29.601  53.698  39.648  1.00  0.00    -0.167 F 
ENDBRANCH  12  15
BRANCH  12  19
HETATM   19  N   UNL     1      30.274  51.110  40.989  1.00  0.00    -0.332 N 
HETATM   20  C   UNL     1      30.203  50.165  41.978  1.00  0.00     0.219 C 
HETATM   21  O   UNL     1      29.162  49.556  42.219  1.00  0.00    -0.274 OA
HETATM   22  H   UNL     1      31.192  51.278  40.586  1.00  0.00     0.164 HD
BRANCH  20  23
HETATM   23  C   UNL     1      31.487  49.831  42.719  1.00  0.00     0.107 C 
BRANCH  23  24
HETATM   24  C   UNL     1      32.111  50.949  43.560  1.00  0.00     0.047 C 
BRANCH  24  25
HETATM   25  C   UNL     1      33.557  51.286  43.262  1.00  0.00    -0.058 A 
HETATM   26  C   UNL     1      34.286  52.058  44.179  1.00  0.00     0.007 A 
HETATM   27  C   UNL     1      35.624  52.379  43.939  1.00  0.00     0.001 A 
HETATM   28  C   UNL     1      36.253  51.926  42.782  1.00  0.00     0.000 A 
HETATM   29  C   UNL     1      35.548  51.143  41.873  1.00  0.00     0.001 A 
HETATM   30  C   UNL     1      34.213  50.814  42.116  1.00  0.00     0.007 A 
ENDBRANCH  24  25
ENDBRANCH  23  24
ENDBRANCH  20  23
ENDBRANCH  12  19
BRANCH   1  31
HETATM   31  C   UNL     1      25.119  48.852  39.217  1.00  0.00     0.045 A 
HETATM   32  C   UNL     1      24.290  49.596  38.366  1.00  0.00     0.031 A 
HETATM   33  C   UNL     1      22.896  49.522  38.463  1.00  0.00     0.009 A 
HETATM   34  C   UNL     1      22.293  48.712  39.428  1.00  0.00    -0.062 A 
HETATM   35  C   UNL     1      20.799  48.617  39.520  1.00  0.00     0.048 C 
HETATM   36  C   UNL     1      23.107  47.957  40.275  1.00  0.00     0.009 A 
HETATM   37  C   UNL     1      24.502  48.033  40.176  1.00  0.00     0.031 A 
ENDBRANCH   1  31
TORSDOF 6
ENDMDL
MODEL 2
REMARK VINA RESULT:      -9.1     11.110     12.194
REMARK  6 active torsions:
REMARK  status: ('A' for Active; 'I' for Inactive)
REMARK    1  A    between atoms: C_5  and  N_6 
REMARK    2  A    between atoms: C_17  and  C_29 
REMARK    3  A    between atoms: C_17  and  N_18 
REMARK       I    between atoms: N_18  and  C_19 
REMARK    4  A    between atoms: C_19  and  C_20 
REMARK    5  A    between atoms: C_20  and  C_21 
REMARK    6  A    between atoms: C_21  and  C_22 
ROOT
HETATM    1  N   UNL     1      23.144  44.784  48.428  1.00  0.00    -0.248 N 
HETATM    2  C   UNL     1      23.625  43.570  47.881  1.00  0.00     0.335 A 
HETATM    3  O   UNL     1      23.046  42.848  47.070  1.00  0.00    -0.246 OA
HETATM    4  N   UNL     1      24.900  43.198  48.262  1.00  0.00    -0.274 N 
HETATM    5  C   UNL     1      25.772  43.916  49.027  1.00  0.00     0.262 A 
HETATM    6  O   UNL     1      26.925  43.574  49.245  1.00  0.00    -0.267 OA
HETATM    7  C   UNL     1      25.214  45.126  49.586  1.00  0.00     0.101 A 
HETATM    8  C   UNL     1      23.968  45.489  49.286  1.00  0.00     0.134 A 
HETATM    9  N   UNL     1      23.656  46.597  50.014  1.00  0.00    -0.309 N 
HETATM   10  C   UNL     1      24.709  46.989  50.836  1.00  0.00     0.266 A 
HETATM   11  O   UNL     1      24.658  47.902  51.644  1.00  0.00    -0.270 OA
HETATM   12  C   UNL     1      25.898  46.055  50.541  1.00  0.00     0.249 A 
HETATM   13  H   UNL     1      25.249  42.351  47.839  1.00  0.00     0.173 HD
HETATM   14  H   UNL     1      22.733  47.003  50.096  1.00  0.00     0.170 HD
ENDROOT
BRANCH  12  15
HETATM   15  C   UNL     1      26.930  46.945  49.835  1.00  0.00     0.426 C 
HETATM   16  F   UNL     1      27.476  47.864  50.668  1.00  0.00    -0.167 F 
HETATM   17  F   UNL     1      27.943  46.231  49.295  1.00  0.00    -0.167 F 
HETATM   18  F   UNL     1      26.362  47.634  48.814  1.00  0.00    -0.167 F 
ENDBRANCH  12  15
BRANCH  12  19
HETATM   19  N   UNL     1      26.430  45.356  51.729  1.00  0.00    -0.332 N 
HETATM   20  C   UNL     1      25.627  44.667  52.599  1.00  0.00     0.219 C 
HETATM   21  O   UNL     1      24.402  44.660  52.485  1.00  0.00    -0.274 OA
HETATM   22  H   UNL     1      27.384  45.021  51.629  1.00  0.00     0.164 HD
BRANCH  20  23
HETATM   23  C   UNL     1      26.311  43.837  53.672  1.00  0.00     0.107 C 
BRANCH  23  24
HETATM   24  C   UNL     1      27.746  43.383  53.387  1.00  0.00     0.047 C 
BRANCH  24  25
HETATM   25  C   UNL     1      28.804  43.841  54.368  1.00  0.00    -0.058 A 
HETATM   26  C   UNL     1      28.696  45.114  54.950  1.00  0.00     0.007 A 
HETATM   27  C   UNL     1      29.651  45.563  55.865  1.00  0.00     0.001 A 
HETATM   28  C   UNL     1      30.720  44.744  56.217  1.00  0.00     0.000 A 
HETATM   29  C   UNL     1      30.828  43.473  55.663  1.00  0.00     0.001 A 
HETATM   30  C   UNL     1      29.871  43.018  54.754  1.00  0.00     0.007 A 
ENDBRANCH  24  25
ENDBRANCH  23  24
ENDBRANCH  20  23
ENDBRANCH  12  19
BRANCH   1  31
HETATM   31  C   UNL     1      21.847  45.259  48.012  1.00  0.00     0.045 A 
HETATM   32  C   UNL     1      21.704  46.104  46.903  1.00  0.00     0.031 A 
HETATM   33  C   UNL     1      20.447  46.576  46.508  1.00  0.00     0.009 A 
HETATM   34  C   UNL     1      19.300  46.227  47.223  1.00  0.00    -0.062 A 
HETATM   35  C   UNL     1      17.950  46.717  46.789  1.00  0.00     0.048 C 
HETATM   36  C   UNL     1      19.428  45.378  48.324  1.00  0.00     0.009 A 
HETATM   37  C   UNL     1      20.686  44.907  48.718  1.00  0.00     0.031 A 
ENDBRANCH   1  31
TORSDOF 6
ENDMDL
MODEL 3
REMARK VINA RESULT:      -8.7      3.383      9.240
REMARK  6 active torsions:
REMARK  status: ('A' for Active; 'I' for Inactive)
REMARK    1  A    between atoms: C_5  and  N_6 
REMARK    2  A    between atoms: C_17  and  C_29 
REMARK    3  A    between atoms: C_17  and  N_18 
REMARK       I    between atoms: N_18  and  C_19 
REMARK    4  A    between atoms: C_19  and  C_20 
REMARK    5  A    between atoms: C_20  and  C_21 
REMARK    6  A    between atoms: C_21  and  C_22 
ROOT
HETATM    1  N   UNL     1      35.154  51.582  40.766  1.00  0.00    -0.248 N 
HETATM    2  C   UNL     1      35.093  51.571  39.351  1.00  0.00     0.335 A 
HETATM    3  O   UNL     1      36.015  51.816  38.574  1.00  0.00    -0.246 OA
HETATM    4  N   UNL     1      33.885  51.189  38.801  1.00  0.00    -0.274 N 
HETATM    5  C   UNL     1      32.784  50.735  39.467  1.00  0.00     0.262 A 
HETATM    6  O   UNL     1      31.778  50.316  38.912  1.00  0.00    -0.267 OA
HETATM    7  C   UNL     1      32.891  50.803  40.906  1.00  0.00     0.101 A 
HETATM    8  C   UNL     1      34.022  51.221  41.474  1.00  0.00     0.134 A 
HETATM    9  N   UNL     1      33.827  51.287  42.820  1.00  0.00    -0.309 N 
HETATM   10  C   UNL     1      32.532  50.919  43.175  1.00  0.00     0.266 A 
HETATM   11  O   UNL     1      32.080  50.970  44.307  1.00  0.00    -0.270 OA
HETATM   12  C   UNL     1      31.811  50.473  41.889  1.00  0.00     0.249 A 
HETATM   13  H   UNL     1      33.862  51.148  37.793  1.00  0.00     0.173 HD
HETATM   14  H   UNL     1      34.465  51.708  43.484  1.00  0.00     0.170 HD
ENDROOT
BRANCH  12  15
HETATM   15  C   UNL     1      31.625  48.959  42.050  1.00  0.00     0.426 C 
HETATM   16  F   UNL     1      32.787  48.276  41.906  1.00  0.00    -0.167 F 
HETATM   17  F   UNL     1      31.105  48.628  43.254  1.00  0.00    -0.167 F 
HETATM   18  F   UNL     1      30.768  48.471  41.118  1.00  0.00    -0.167 F 
ENDBRANCH  12  15
BRANCH  12  19
HETATM   19  N   UNL     1      30.554  51.201  41.615  1.00  0.00    -0.332 N 
HETATM   20  C   UNL     1      30.508  52.562  41.465  1.00  0.00     0.219 C 
HETATM   21  O   UNL     1      31.502  53.267  41.632  1.00  0.00    -0.274 OA
HETATM   22  H   UNL     1      29.859  50.664  41.104  1.00  0.00     0.164 HD
BRANCH  20  23
HETATM   23  C   UNL     1      29.195  53.169  41.002  1.00  0.00     0.107 C 
BRANCH  23  24
HETATM   24  C   UNL     1      27.922  52.365  41.285  1.00  0.00     0.047 C 
BRANCH  24  25
HETATM   25  C   UNL     1      27.705  51.130  40.437  1.00  0.00    -0.058 A 
HETATM   26  C   UNL     1      27.785  51.231  39.040  1.00  0.00     0.007 A 
HETATM   27  C   UNL     1      27.599  50.108  38.230  1.00  0.00     0.001 A 
HETATM   28  C   UNL     1      27.339  48.868  38.806  1.00  0.00     0.000 A 
HETATM   29  C   UNL     1      27.276  48.749  40.191  1.00  0.00     0.001 A 
HETATM   30  C   UNL     1      27.470  49.869  41.003  1.00  0.00     0.007 A 
ENDBRANCH  24  25
ENDBRANCH  23  24
ENDBRANCH  20  23
ENDBRANCH  12  19
BRANCH   1  31
HETATM   31  C   UNL     1      36.409  51.906  41.398  1.00  0.00     0.045 A 
HETATM   32  C   UNL     1      37.313  50.902  41.773  1.00  0.00     0.031 A 
HETATM   33  C   UNL     1      38.525  51.215  42.399  1.00  0.00     0.009 A 
HETATM   34  C   UNL     1      38.858  52.541  42.681  1.00  0.00    -0.062 A 
HETATM   35  C   UNL     1      40.166  52.879  43.333  1.00  0.00     0.048 C 
HETATM   36  C   UNL     1      37.971  53.551  42.303  1.00  0.00     0.009 A 
HETATM   37  C   UNL     1      36.758  53.236  41.678  1.00  0.00     0.031 A 
ENDBRANCH   1  31
TORSDOF 6
ENDMDL
MODEL 4
REMARK VINA RESULT:      -8.4      2.039      2.481
REMARK  6 active torsions:
REMARK  status: ('A' for Active; 'I' for Inactive)
REMARK    1  A    between atoms: C_5  and  N_6 
REMARK    2  A    between atoms: C_17  and  C_29 
REMARK    3  A    between atoms: C_17  and  N_18 
REMARK       I    between atoms: N_18  and  C_19 
REMARK    4  A    between atoms: C_19  and  C_20 
REMARK    5  A    between atoms: C_20  and  C_21 
REMARK    6  A    between atoms: C_21  and  C_22 
ROOT
HETATM    1  N   UNL     1      28.390  47.812  39.594  1.00  0.00    -0.248 N 
HETATM    2  C   UNL     1      29.502  47.197  38.969  1.00  0.00     0.335 A 
HETATM    3  O   UNL     1      29.601  46.014  38.644  1.00  0.00    -0.246 OA
HETATM    4  N   UNL     1      30.552  48.033  38.646  1.00  0.00    -0.274 N 
HETATM    5  C   UNL     1      30.595  49.390  38.777  1.00  0.00     0.262 A 
HETATM    6  O   UNL     1      31.518  50.084  38.378  1.00  0.00    -0.267 OA
HETATM    7  C   UNL     1      29.450  49.957  39.454  1.00  0.00     0.101 A 
HETATM    8  C   UNL     1      28.440  49.173  39.832  1.00  0.00     0.134 A 
HETATM    9  N   UNL     1      27.547  49.929  40.528  1.00  0.00    -0.309 N 
HETATM   10  C   UNL     1      27.964  51.253  40.637  1.00  0.00     0.266 A 
HETATM   11  O   UNL     1      27.384  52.114  41.279  1.00  0.00    -0.270 OA
HETATM   12  C   UNL     1      29.268  51.395  39.829  1.00  0.00     0.249 A 
HETATM   13  H   UNL     1      31.325  47.593  38.167  1.00  0.00     0.173 HD
HETATM   14  H   UNL     1      26.762  49.571  41.055  1.00  0.00     0.170 HD
ENDROOT
BRANCH  12  15
HETATM   15  C   UNL     1      28.888  52.260  38.620  1.00  0.00     0.426 C 
HETATM   16  F   UNL     1      29.771  52.139  37.600  1.00  0.00    -0.167 F 
HETATM   17  F   UNL     1      27.662  51.959  38.136  1.00  0.00    -0.167 F 
HETATM   18  F   UNL     1      28.855  53.574  38.953  1.00  0.00    -0.167 F 
ENDBRANCH  12  15
BRANCH  12  19
HETATM   19  N   UNL     1      30.408  51.926  40.605  1.00  0.00    -0.332 N 
HETATM   20  C   UNL     1      30.825  51.362  41.782  1.00  0.00     0.219 C 
HETATM   21  O   UNL     1      30.220  50.426  42.303  1.00  0.00    -0.274 OA
HETATM   22  H   UNL     1      31.119  52.389  40.047  1.00  0.00     0.164 HD
BRANCH  20  23
HETATM   23  C   UNL     1      32.118  51.881  42.386  1.00  0.00     0.107 C 
BRANCH  23  24
HETATM   24  C   UNL     1      33.233  50.858  42.623  1.00  0.00     0.047 C 
BRANCH  24  25
HETATM   25  C   UNL     1      34.414  50.921  41.678  1.00  0.00    -0.058 A 
HETATM   26  C   UNL     1      34.225  51.392  40.370  1.00  0.00     0.007 A 
HETATM   27  C   UNL     1      35.296  51.471  39.477  1.00  0.00     0.001 A 
HETATM   28  C   UNL     1      36.572  51.089  39.882  1.00  0.00     0.000 A 
HETATM   29  C   UNL     1      36.778  50.639  41.182  1.00  0.00     0.001 A 
HETATM   30  C   UNL     1      35.710  50.567  42.079  1.00  0.00     0.007 A 
ENDBRANCH  24  25
ENDBRANCH  23  24
ENDBRANCH  20  23
ENDBRANCH  12  19
BRANCH   1  31
HETATM   31  C   UNL     1      27.234  47.002  39.893  1.00  0.00     0.045 A 
HETATM   32  C   UNL     1      26.176  46.881  38.980  1.00  0.00     0.031 A 
HETATM   33  C   UNL     1      25.049  46.107  39.275  1.00  0.00     0.009 A 
HETATM   34  C   UNL     1      24.942  45.445  40.499  1.00  0.00    -0.062 A 
HETATM   35  C   UNL     1      23.743  44.598  40.808  1.00  0.00     0.048 C 
HETATM   36  C   UNL     1      25.993  45.548  41.413  1.00  0.00     0.009 A 
HETATM   37  C   UNL     1      27.120  46.324  41.116  1.00  0.00     0.031 A 
ENDBRANCH   1  31
TORSDOF 6
ENDMDL
MODEL 5
REMARK VINA RESULT:      -8.4     10.880     12.325
REMARK  6 active torsions:
REMARK  status: ('A' for Active; 'I' for Inactive)
REMARK    1  A    between atoms: C_5  and  N_6 
REMARK    2  A    between atoms: C_17  and  C_29 
REMARK    3  A    between atoms: C_17  and  N_18 
REMARK       I    between atoms: N_18  and  C_19 
REMARK    4  A    between atoms: C_19  and  C_20 
REMARK    5  A    between atoms: C_20  and  C_21 
REMARK    6  A    between atoms: C_21  and  C_22 
ROOT
HETATM    1  N   UNL     1      24.621  48.970  48.784  1.00  0.00    -0.248 N 
HETATM    2  C   UNL     1      25.779  49.579  48.242  1.00  0.00     0.335 A 
HETATM    3  O   UNL     1      25.846  50.687  47.711  1.00  0.00    -0.246 OA
HETATM    4  N   UNL     1      26.956  48.869  48.379  1.00  0.00    -0.274 N 
HETATM    5  C   UNL     1      27.138  47.700  49.058  1.00  0.00     0.262 A 
HETATM    6  O   UNL     1      28.228  47.174  49.228  1.00  0.00    -0.267 OA
HETATM    7  C   UNL     1      25.918  47.108  49.558  1.00  0.00     0.101 A 
HETATM    8  C   UNL     1      24.753  47.736  49.394  1.00  0.00     0.134 A 
HETATM    9  N   UNL     1      23.761  46.928  49.860  1.00  0.00    -0.309 N 
HETATM   10  C   UNL     1      24.260  45.719  50.338  1.00  0.00     0.266 A 
HETATM   11  O   UNL     1      23.572  44.791  50.735  1.00  0.00    -0.270 OA
HETATM   12  C   UNL     1      25.795  45.784  50.247  1.00  0.00     0.249 A 
HETATM   13  H   UNL     1      27.782  49.327  48.022  1.00  0.00     0.173 HD
HETATM   14  H   UNL     1      22.770  47.085  49.732  1.00  0.00     0.170 HD
ENDROOT
BRANCH  12  15
HETATM   15  C   UNL     1      26.272  45.850  51.704  1.00  0.00     0.426 C 
HETATM   16  F   UNL     1      25.373  45.319  52.567  1.00  0.00    -0.167 F 
HETATM   17  F   UNL     1      27.446  45.205  51.891  1.00  0.00    -0.167 F 
HETATM   18  F   UNL     1      26.475  47.133  52.093  1.00  0.00    -0.167 F 
ENDBRANCH  12  15
BRANCH  12  19
HETATM   19  N   UNL     1      26.405  44.684  49.471  1.00  0.00    -0.332 N 
HETATM   20  C   UNL     1      26.310  43.372  49.854  1.00  0.00     0.219 C 
HETATM   21  O   UNL     1      25.779  43.042  50.913  1.00  0.00    -0.274 OA
HETATM   22  H   UNL     1      26.479  44.862  48.474  1.00  0.00     0.164 HD
BRANCH  20  23
HETATM   23  C   UNL     1      26.814  42.322  48.878  1.00  0.00     0.107 C 
BRANCH  23  24
HETATM   24  C   UNL     1      26.427  40.868  49.163  1.00  0.00     0.047 C 
BRANCH  24  25
HETATM   25  C   UNL     1      27.556  39.860  49.167  1.00  0.00    -0.058 A 
HETATM   26  C   UNL     1      28.282  39.646  50.349  1.00  0.00     0.007 A 
HETATM   27  C   UNL     1      29.324  38.716  50.389  1.00  0.00     0.001 A 
HETATM   28  C   UNL     1      29.649  37.984  49.250  1.00  0.00     0.000 A 
HETATM   29  C   UNL     1      28.925  38.172  48.077  1.00  0.00     0.001 A 
HETATM   30  C   UNL     1      27.878  39.095  48.038  1.00  0.00     0.007 A 
ENDBRANCH  24  25
ENDBRANCH  23  24
ENDBRANCH  20  23
ENDBRANCH  12  19
BRANCH   1  31
HETATM   31  C   UNL     1      23.375  49.693  48.732  1.00  0.00     0.045 A 
HETATM   32  C   UNL     1      22.966  50.513  49.794  1.00  0.00     0.031 A 
HETATM   33  C   UNL     1      21.750  51.205  49.750  1.00  0.00     0.009 A 
HETATM   34  C   UNL     1      20.902  51.082  48.647  1.00  0.00    -0.062 A 
HETATM   35  C   UNL     1      19.608  51.839  48.590  1.00  0.00     0.048 C 
HETATM   36  C   UNL     1      21.303  50.277  47.579  1.00  0.00     0.009 A 
HETATM   37  C   UNL     1      22.519  49.585  47.625  1.00  0.00     0.031 A 
ENDBRANCH   1  31
TORSDOF 6
ENDMDL
MODEL 6
REMARK VINA RESULT:      -8.4     10.960     12.284
REMARK  6 active torsions:
REMARK  status: ('A' for Active; 'I' for Inactive)
REMARK    1  A    between atoms: C_5  and  N_6 
REMARK    2  A    between atoms: C_17  and  C_29 
REMARK    3  A    between atoms: C_17  and  N_18 
REMARK       I    between atoms: N_18  and  C_19 
REMARK    4  A    between atoms: C_19  and  C_20 
REMARK    5  A    between atoms: C_20  and  C_21 
REMARK    6  A    between atoms: C_21  and  C_22 
ROOT
HETATM    1  N   UNL     1      24.517  48.950  48.812  1.00  0.00    -0.248 N 
HETATM    2  C   UNL     1      25.654  49.560  48.228  1.00  0.00     0.335 A 
HETATM    3  O   UNL     1      25.675  50.604  47.577  1.00  0.00    -0.246 OA
HETATM    4  N   UNL     1      26.864  48.940  48.471  1.00  0.00    -0.274 N 
HETATM    5  C   UNL     1      27.091  47.867  49.282  1.00  0.00     0.262 A 
HETATM    6  O   UNL     1      28.203  47.427  49.534  1.00  0.00    -0.267 OA
HETATM    7  C   UNL     1      25.891  47.265  49.820  1.00  0.00     0.101 A 
HETATM    8  C   UNL     1      24.699  47.802  49.561  1.00  0.00     0.134 A 
HETATM    9  N   UNL     1      23.740  46.996  50.094  1.00  0.00    -0.309 N 
HETATM   10  C   UNL     1      24.291  45.880  50.718  1.00  0.00     0.266 A 
HETATM   11  O   UNL     1      23.645  44.965  51.203  1.00  0.00    -0.270 OA
HETATM   12  C   UNL     1      25.823  46.023  50.653  1.00  0.00     0.249 A 
HETATM   13  H   UNL     1      27.673  49.402  48.082  1.00  0.00     0.173 HD
HETATM   14  H   UNL     1      22.746  47.080  49.928  1.00  0.00     0.170 HD
ENDROOT
BRANCH  12  15
HETATM   15  C   UNL     1      26.255  46.279  52.103  1.00  0.00     0.426 C 
HETATM   16  F   UNL     1      26.550  47.582  52.332  1.00  0.00    -0.167 F 
HETATM   17  F   UNL     1      25.307  45.913  52.995  1.00  0.00    -0.167 F 
HETATM   18  F   UNL     1      27.366  45.567  52.413  1.00  0.00    -0.167 F 
ENDBRANCH  12  15
BRANCH  12  19
HETATM   19  N   UNL     1      26.513  44.879  50.021  1.00  0.00    -0.332 N 
HETATM   20  C   UNL     1      26.311  43.584  50.420  1.00  0.00     0.219 C 
HETATM   21  O   UNL     1      25.602  43.306  51.385  1.00  0.00    -0.274 OA
HETATM   22  H   UNL     1      26.756  45.021  49.044  1.00  0.00     0.164 HD
BRANCH  20  23
HETATM   23  C   UNL     1      26.932  42.488  49.572  1.00  0.00     0.107 C 
BRANCH  23  24
HETATM   24  C   UNL     1      27.857  41.498  50.288  1.00  0.00     0.047 C 
BRANCH  24  25
HETATM   25  C   UNL     1      28.326  41.897  51.671  1.00  0.00    -0.058 A 
HETATM   26  C   UNL     1      27.881  41.168  52.785  1.00  0.00     0.007 A 
HETATM   27  C   UNL     1      28.303  41.505  54.073  1.00  0.00     0.001 A 
HETATM   28  C   UNL     1      29.181  42.567  54.264  1.00  0.00     0.000 A 
HETATM   29  C   UNL     1      29.647  43.286  53.168  1.00  0.00     0.001 A 
HETATM   30  C   UNL     1      29.233  42.946  51.878  1.00  0.00     0.007 A 
ENDBRANCH  24  25
ENDBRANCH  23  24
ENDBRANCH  20  23
ENDBRANCH  12  19
BRANCH   1  31
HETATM   31  C   UNL     1      23.234  49.590  48.651  1.00  0.00     0.045 A 
HETATM   32  C   UNL     1      22.859  50.677  49.454  1.00  0.00     0.031 A 
HETATM   33  C   UNL     1      21.610  51.290  49.307  1.00  0.00     0.009 A 
HETATM   34  C   UNL     1      20.695  50.821  48.363  1.00  0.00    -0.062 A 
HETATM   35  C   UNL     1      19.363  51.490  48.192  1.00  0.00     0.048 C 
HETATM   36  C   UNL     1      21.060  49.746  47.550  1.00  0.00     0.009 A 
HETATM   37  C   UNL     1      22.310  49.133  47.699  1.00  0.00     0.031 A 
ENDBRANCH   1  31
TORSDOF 6
ENDMDL
MODEL 7
REMARK VINA RESULT:      -8.4      2.992      8.949
REMARK  6 active torsions:
REMARK  status: ('A' for Active; 'I' for Inactive)
REMARK    1  A    between atoms: C_5  and  N_6 
REMARK    2  A    between atoms: C_17  and  C_29 
REMARK    3  A    between atoms: C_17  and  N_18 
REMARK       I    between atoms: N_18  and  C_19 
REMARK    4  A    between atoms: C_19  and  C_20 
REMARK    5  A    between atoms: C_20  and  C_21 
REMARK    6  A    between atoms: C_21  and  C_22 
ROOT
HETATM    1  N   UNL     1      34.760  51.521  40.948  1.00  0.00    -0.248 N 
HETATM    2  C   UNL     1      35.164  51.068  42.228  1.00  0.00     0.335 A 
HETATM    3  O   UNL     1      36.319  50.947  42.635  1.00  0.00    -0.246 OA
HETATM    4  N   UNL     1      34.146  50.790  43.119  1.00  0.00    -0.274 N 
HETATM    5  C   UNL     1      32.810  50.993  42.932  1.00  0.00     0.262 A 
HETATM    6  O   UNL     1      31.967  50.820  43.800  1.00  0.00    -0.267 OA
HETATM    7  C   UNL     1      32.455  51.421  41.598  1.00  0.00     0.101 A 
HETATM    8  C   UNL     1      33.407  51.645  40.692  1.00  0.00     0.134 A 
HETATM    9  N   UNL     1      32.809  51.936  39.504  1.00  0.00    -0.309 N 
HETATM   10  C   UNL     1      31.421  51.896  39.600  1.00  0.00     0.266 A 
HETATM   11  O   UNL     1      30.654  52.039  38.661  1.00  0.00    -0.270 OA
HETATM   12  C   UNL     1      31.067  51.623  41.074  1.00  0.00     0.249 A 
HETATM   13  H   UNL     1      34.443  50.503  44.040  1.00  0.00     0.173 HD
HETATM   14  H   UNL     1      33.282  52.007  38.612  1.00  0.00     0.170 HD
ENDROOT
BRANCH  12  15
HETATM   15  C   UNL     1      30.448  52.933  41.578  1.00  0.00     0.426 C 
HETATM   16  F   UNL     1      30.337  52.967  42.928  1.00  0.00    -0.167 F 
HETATM   17  F   UNL     1      31.161  54.018  41.200  1.00  0.00    -0.167 F 
HETATM   18  F   UNL     1      29.199  53.105  41.079  1.00  0.00    -0.167 F 
ENDBRANCH  12  15
BRANCH  12  19
HETATM   19  N   UNL     1      30.207  50.440  41.282  1.00  0.00    -0.332 N 
HETATM   20  C   UNL     1      30.472  49.224  40.708  1.00  0.00     0.219 C 
HETATM   21  O   UNL     1      31.401  49.070  39.917  1.00  0.00    -0.274 OA
HETATM   22  H   UNL     1      29.720  50.424  42.174  1.00  0.00     0.164 HD
BRANCH  20  23
HETATM   23  C   UNL     1      29.622  48.044  41.147  1.00  0.00     0.107 C 
BRANCH  23  24
HETATM   24  C   UNL     1      28.105  48.250  41.161  1.00  0.00     0.047 C 
BRANCH  24  25
HETATM   25  C   UNL     1      27.459  48.580  39.832  1.00  0.00    -0.058 A 
HETATM   26  C   UNL     1      27.292  47.564  38.878  1.00  0.00     0.007 A 
HETATM   27  C   UNL     1      26.691  47.833  37.646  1.00  0.00     0.001 A 
HETATM   28  C   UNL     1      26.243  49.118  37.354  1.00  0.00     0.000 A 
HETATM   29  C   UNL     1      26.385  50.131  38.297  1.00  0.00     0.001 A 
HETATM   30  C   UNL     1      26.977  49.862  39.533  1.00  0.00     0.007 A 
ENDBRANCH  24  25
ENDBRANCH  23  24
ENDBRANCH  20  23
ENDBRANCH  12  19
BRANCH   1  31
HETATM   31  C   UNL     1      35.779  51.893  39.998  1.00  0.00     0.045 A 
HETATM   32  C   UNL     1      36.105  53.238  39.771  1.00  0.00     0.031 A 
HETATM   33  C   UNL     1      37.084  53.600  38.839  1.00  0.00     0.009 A 
HETATM   34  C   UNL     1      37.754  52.625  38.097  1.00  0.00    -0.062 A 
HETATM   35  C   UNL     1      38.817  53.011  37.112  1.00  0.00     0.048 C 
HETATM   36  C   UNL     1      37.447  51.282  38.321  1.00  0.00     0.009 A 
HETATM   37  C   UNL     1      36.466  50.921  39.253  1.00  0.00     0.031 A 
ENDBRANCH   1  31
TORSDOF 6
ENDMDL
MODEL 8
REMARK VINA RESULT:      -8.3      2.465      3.680
REMARK  6 active torsions:
REMARK  status: ('A' for Active; 'I' for Inactive)
REMARK    1  A    between atoms: C_5  and  N_6 
REMARK    2  A    between atoms: C_17  and  C_29 
REMARK    3  A    between atoms: C_17  and  N_18 
REMARK       I    between atoms: N_18  and  C_19 
REMARK    4  A    between atoms: C_19  and  C_20 
REMARK    5  A    between atoms: C_20  and  C_21 
REMARK    6  A    between atoms: C_21  and  C_22 
ROOT
HETATM    1  N   UNL     1      27.346  47.941  39.668  1.00  0.00    -0.248 N 
HETATM    2  C   UNL     1      26.756  48.251  38.418  1.00  0.00     0.335 A 
HETATM    3  O   UNL     1      25.960  47.555  37.788  1.00  0.00    -0.246 OA
HETATM    4  N   UNL     1      27.073  49.487  37.890  1.00  0.00    -0.274 N 
HETATM    5  C   UNL     1      27.810  50.470  38.482  1.00  0.00     0.262 A 
HETATM    6  O   UNL     1      27.970  51.583  38.002  1.00  0.00    -0.267 OA
HETATM    7  C   UNL     1      28.416  50.085  39.736  1.00  0.00     0.101 A 
HETATM    8  C   UNL     1      28.179  48.878  40.251  1.00  0.00     0.134 A 
HETATM    9  N   UNL     1      28.939  48.732  41.371  1.00  0.00    -0.309 N 
HETATM   10  C   UNL     1      29.720  49.858  41.617  1.00  0.00     0.266 A 
HETATM   11  O   UNL     1      30.546  49.951  42.511  1.00  0.00    -0.270 OA
HETATM   12  C   UNL     1      29.355  50.914  40.556  1.00  0.00     0.249 A 
HETATM   13  H   UNL     1      26.620  49.714  37.017  1.00  0.00     0.173 HD
HETATM   14  H   UNL     1      29.070  47.868  41.881  1.00  0.00     0.170 HD
ENDROOT
BRANCH  12  15
HETATM   15  C   UNL     1      28.619  52.013  41.334  1.00  0.00     0.426 C 
HETATM   16  F   UNL     1      27.391  51.620  41.749  1.00  0.00    -0.167 F 
HETATM   17  F   UNL     1      29.307  52.420  42.425  1.00  0.00    -0.167 F 
HETATM   18  F   UNL     1      28.437  53.115  40.565  1.00  0.00    -0.167 F 
ENDBRANCH  12  15
BRANCH  12  19
HETATM   19  N   UNL     1      30.505  51.409  39.772  1.00  0.00    -0.332 N 
HETATM   20  C   UNL     1      31.384  50.568  39.141  1.00  0.00     0.219 C 
HETATM   21  O   UNL     1      31.311  49.346  39.260  1.00  0.00    -0.274 OA
HETATM   22  H   UNL     1      30.364  52.321  39.346  1.00  0.00     0.164 HD
BRANCH  20  23
HETATM   23  C   UNL     1      32.410  51.198  38.215  1.00  0.00     0.107 C 
BRANCH  23  24
HETATM   24  C   UNL     1      33.431  52.145  38.854  1.00  0.00     0.047 C 
BRANCH  24  25
HETATM   25  C   UNL     1      34.298  51.559  39.948  1.00  0.00    -0.058 A 
HETATM   26  C   UNL     1      35.600  51.133  39.639  1.00  0.00     0.007 A 
HETATM   27  C   UNL     1      36.428  50.597  40.627  1.00  0.00     0.001 A 
HETATM   28  C   UNL     1      35.971  50.486  41.937  1.00  0.00     0.000 A 
HETATM   29  C   UNL     1      34.690  50.922  42.262  1.00  0.00     0.001 A 
HETATM   30  C   UNL     1      33.863  51.467  41.277  1.00  0.00     0.007 A 
ENDBRANCH  24  25
ENDBRANCH  23  24
ENDBRANCH  20  23
ENDBRANCH  12  19
BRANCH   1  31
HETATM   31  C   UNL     1      26.998  46.693  40.302  1.00  0.00     0.045 A 
HETATM   32  C   UNL     1      25.880  46.592  41.142  1.00  0.00     0.031 A 
HETATM   33  C   UNL     1      25.550  45.385  41.768  1.00  0.00     0.009 A 
HETATM   34  C   UNL     1      26.340  44.249  41.583  1.00  0.00    -0.062 A 
HETATM   35  C   UNL     1      25.976  42.949  42.238  1.00  0.00     0.048 C 
HETATM   36  C   UNL     1      27.450  44.333  40.739  1.00  0.00     0.009 A 
HETATM   37  C   UNL     1      27.779  45.542  40.114  1.00  0.00     0.031 A 
ENDBRANCH   1  31
TORSDOF 6
ENDMDL
MODEL 9
REMARK VINA RESULT:      -8.2      2.390      8.780
REMARK  6 active torsions:
REMARK  status: ('A' for Active; 'I' for Inactive)
REMARK    1  A    between atoms: C_5  and  N_6 
REMARK    2  A    between atoms: C_17  and  C_29 
REMARK    3  A    between atoms: C_17  and  N_18 
REMARK       I    between atoms: N_18  and  C_19 
REMARK    4  A    between atoms: C_19  and  C_20 
REMARK    5  A    between atoms: C_20  and  C_21 
REMARK    6  A    between atoms: C_21  and  C_22 
ROOT
HETATM    1  N   UNL     1      33.398  51.549  40.444  1.00  0.00    -0.248 N 
HETATM    2  C   UNL     1      33.344  51.251  41.828  1.00  0.00     0.335 A 
HETATM    3  O   UNL     1      34.291  51.235  42.613  1.00  0.00    -0.246 OA
HETATM    4  N   UNL     1      32.086  51.012  42.346  1.00  0.00    -0.274 N 
HETATM    5  C   UNL     1      30.893  51.124  41.695  1.00  0.00     0.262 A 
HETATM    6  O   UNL     1      29.806  50.995  42.240  1.00  0.00    -0.267 OA
HETATM    7  C   UNL     1      31.012  51.393  40.280  1.00  0.00     0.101 A 
HETATM    8  C   UNL     1      32.213  51.574  39.732  1.00  0.00     0.134 A 
HETATM    9  N   UNL     1      32.055  51.709  38.386  1.00  0.00    -0.309 N 
HETATM   10  C   UNL     1      30.719  51.605  38.009  1.00  0.00     0.266 A 
HETATM   11  O   UNL     1      30.319  51.611  36.856  1.00  0.00    -0.270 OA
HETATM   12  C   UNL     1      29.885  51.466  39.297  1.00  0.00     0.249 A 
HETATM   13  H   UNL     1      32.054  50.837  43.340  1.00  0.00     0.173 HD
HETATM   14  H   UNL     1      32.804  51.714  37.706  1.00  0.00     0.170 HD
ENDROOT
BRANCH  12  15
HETATM   15  C   UNL     1      29.111  52.786  39.407  1.00  0.00     0.426 C 
HETATM   16  F   UNL     1      29.878  53.797  39.882  1.00  0.00    -0.167 F 
HETATM   17  F   UNL     1      28.600  53.184  38.220  1.00  0.00    -0.167 F 
HETATM   18  F   UNL     1      28.059  52.664  40.254  1.00  0.00    -0.167 F 
ENDBRANCH  12  15
BRANCH  12  19
HETATM   19  N   UNL     1      29.023  50.266  39.334  1.00  0.00    -0.332 N 
HETATM   20  C   UNL     1      29.477  49.021  38.989  1.00  0.00     0.219 C 
HETATM   21  O   UNL     1      30.611  48.843  38.547  1.00  0.00    -0.274 OA
HETATM   22  H   UNL     1      28.280  50.302  40.026  1.00  0.00     0.164 HD
BRANCH  20  23
HETATM   23  C   UNL     1      28.553  47.844  39.248  1.00  0.00     0.107 C 
BRANCH  23  24
HETATM   24  C   UNL     1      27.681  47.911  40.505  1.00  0.00     0.047 C 
BRANCH  24  25
HETATM   25  C   UNL     1      26.188  48.028  40.283  1.00  0.00    -0.058 A 
HETATM   26  C   UNL     1      25.701  48.983  39.377  1.00  0.00     0.007 A 
HETATM   27  C   UNL     1      24.330  49.110  39.142  1.00  0.00     0.001 A 
HETATM   28  C   UNL     1      23.429  48.280  39.803  1.00  0.00     0.000 A 
HETATM   29  C   UNL     1      23.899  47.316  40.689  1.00  0.00     0.001 A 
HETATM   30  C   UNL     1      25.270  47.181  40.919  1.00  0.00     0.007 A 
ENDBRANCH  24  25
ENDBRANCH  23  24
ENDBRANCH  20  23
ENDBRANCH  12  19
BRANCH   1  31
HETATM   31  C   UNL     1      34.675  51.876  39.860  1.00  0.00     0.045 A 
HETATM   32  C   UNL     1      35.619  50.880  39.574  1.00  0.00     0.031 A 
HETATM   33  C   UNL     1      36.864  51.197  39.019  1.00  0.00     0.009 A 
HETATM   34  C   UNL     1      37.205  52.525  38.751  1.00  0.00    -0.062 A 
HETATM   35  C   UNL     1      38.531  52.864  38.139  1.00  0.00     0.048 C 
HETATM   36  C   UNL     1      36.269  53.526  39.022  1.00  0.00     0.009 A 
HETATM   37  C   UNL     1      35.024  53.206  39.577  1.00  0.00     0.031 A 
ENDBRANCH   1  31
TORSDOF 6
ENDMDL
MODEL 10
REMARK VINA RESULT:      -8.2      9.955     13.574
REMARK  6 active torsions:
REMARK  status: ('A' for Active; 'I' for Inactive)
REMARK    1  A    between atoms: C_5  and  N_6 
REMARK    2  A    between atoms: C_17  and  C_29 
REMARK    3  A    between atoms: C_17  and  N_18 
REMARK       I    between atoms: N_18  and  C_19 
REMARK    4  A    between atoms: C_19  and  C_20 
REMARK    5  A    between atoms: C_20  and  C_21 
REMARK    6  A    between atoms: C_21  and  C_22 
ROOT
HETATM    1  N   UNL     1      22.462  48.057  48.715  1.00  0.00    -0.248 N 
HETATM    2  C   UNL     1      22.141  46.686  48.558  1.00  0.00     0.335 A 
HETATM    3  O   UNL     1      22.934  45.747  48.512  1.00  0.00    -0.246 OA
HETATM    4  N   UNL     1      20.795  46.383  48.509  1.00  0.00    -0.274 N 
HETATM    5  C   UNL     1      19.750  47.241  48.688  1.00  0.00     0.262 A 
HETATM    6  O   UNL     1      18.580  46.889  48.733  1.00  0.00    -0.267 OA
HETATM    7  C   UNL     1      20.136  48.629  48.807  1.00  0.00     0.101 A 
HETATM    8  C   UNL     1      21.425  48.968  48.802  1.00  0.00     0.134 A 
HETATM    9  N   UNL     1      21.511  50.326  48.825  1.00  0.00    -0.309 N 
HETATM   10  C   UNL     1      20.254  50.925  48.833  1.00  0.00     0.266 A 
HETATM   11  O   UNL     1      20.056  52.128  48.773  1.00  0.00    -0.270 OA
HETATM   12  C   UNL     1      19.207  49.799  48.910  1.00  0.00     0.249 A 
HETATM   13  H   UNL     1      20.575  45.400  48.433  1.00  0.00     0.173 HD
HETATM   14  H   UNL     1      22.358  50.862  48.683  1.00  0.00     0.170 HD
ENDROOT
BRANCH  12  15
HETATM   15  C   UNL     1      18.596  49.926  50.311  1.00  0.00     0.426 C 
HETATM   16  F   UNL     1      19.529  50.175  51.262  1.00  0.00    -0.167 F 
HETATM   17  F   UNL     1      17.670  50.908  50.382  1.00  0.00    -0.167 F 
HETATM   18  F   UNL     1      17.966  48.781  50.674  1.00  0.00    -0.167 F 
ENDBRANCH  12  15
BRANCH  12  19
HETATM   19  N   UNL     1      18.208  49.825  47.821  1.00  0.00    -0.332 N 
HETATM   20  C   UNL     1      18.546  50.064  46.515  1.00  0.00     0.219 C 
HETATM   21  O   UNL     1      19.695  50.353  46.186  1.00  0.00    -0.274 OA
HETATM   22  H   UNL     1      17.397  49.233  47.979  1.00  0.00     0.164 HD
BRANCH  20  23
HETATM   23  C   UNL     1      17.462  49.880  45.468  1.00  0.00     0.107 C 
BRANCH  23  24
HETATM   24  C   UNL     1      17.911  49.841  44.004  1.00  0.00     0.047 C 
BRANCH  24  25
HETATM   25  C   UNL     1      17.826  51.145  43.240  1.00  0.00    -0.058 A 
HETATM   26  C   UNL     1      17.093  52.212  43.781  1.00  0.00     0.007 A 
HETATM   27  C   UNL     1      17.003  53.431  43.106  1.00  0.00     0.001 A 
HETATM   28  C   UNL     1      17.651  53.603  41.885  1.00  0.00     0.000 A 
HETATM   29  C   UNL     1      18.398  52.560  41.347  1.00  0.00     0.001 A 
HETATM   30  C   UNL     1      18.496  51.342  42.025  1.00  0.00     0.007 A 
ENDBRANCH  24  25
ENDBRANCH  23  24
ENDBRANCH  20  23
ENDBRANCH  12  19
BRANCH   1  31
HETATM   31  C   UNL     1      23.849  48.428  48.842  1.00  0.00     0.045 A 
HETATM   32  C   UNL     1      24.389  49.486  48.096  1.00  0.00     0.031 A 
HETATM   33  C   UNL     1      25.739  49.838  48.209  1.00  0.00     0.009 A 
HETATM   34  C   UNL     1      26.589  49.130  49.061  1.00  0.00    -0.062 A 
HETATM   35  C   UNL     1      28.031  49.520  49.198  1.00  0.00     0.048 C 
HETATM   36  C   UNL     1      26.061  48.082  49.818  1.00  0.00     0.009 A 
HETATM   37  C   UNL     1      24.711  47.731  49.703  1.00  0.00     0.031 A 
ENDBRANCH   1  31
TORSDOF 6
ENDMDL
