MODEL 1
REMARK VINA RESULT:      -8.4      0.000      0.000
REMARK  5 active torsions:
REMARK  status: ('A' for Active; 'I' for Inactive)
REMARK    1  A    between atoms: C_11  and  N_12 
REMARK       I    between atoms: N_12  and  C_13 
REMARK       I    between atoms: C_13  and  N_14 
REMARK    2  A    between atoms: N_14  and  C_15 
REMARK    3  A    between atoms: C_15  and  C_16 
REMARK    4  A    between atoms: C_16  and  N_17 
REMARK    5  A    between atoms: C_16  and  C_21 
ROOT
HETATM    1  N   UNL     1      24.545  45.670  50.564  1.00  0.00    -0.314 N 
HETATM    2  C   UNL     1      23.852  46.454  49.703  1.00  0.00     0.298 C 
HETATM    3  N   UNL     1      23.647  47.759  50.023  1.00  0.00    -0.242 NA
HETATM    4  O   UNL     1      23.469  45.981  48.635  1.00  0.00    -0.254 OA
HETATM    5  H   UNL     1      24.545  44.707  50.235  1.00  0.00     0.170 HD
HETATM    6  H   UNL     1      23.403  47.847  51.002  1.00  0.00     0.132 HD
ENDROOT
BRANCH   1   7
HETATM    7  C   UNL     1      25.334  45.907  51.709  1.00  0.00     0.038 A 
HETATM    8  C   UNL     1      25.309  47.057  52.488  1.00  0.00     0.032 A 
HETATM    9  C   UNL     1      26.187  47.195  53.571  1.00  0.00     0.036 A 
HETATM   10  C   UNL     1      27.111  46.211  53.886  1.00  0.00     0.086 A 
HETATM   11  N   UNL     1      27.958  46.402  54.911  1.00  0.00    -0.250 NA
HETATM   12  C   UNL     1      27.148  45.041  53.105  1.00  0.00     0.088 A 
HETATM   13  C   UNL     1      28.860  45.418  55.161  1.00  0.00     0.055 A 
HETATM   14  C   UNL     1      29.809  45.654  56.296  1.00  0.00     0.072 C 
HETATM   15  C   UNL     1      28.901  44.258  54.386  1.00  0.00     0.055 A 
HETATM   16  N   UNL     1      28.038  44.066  53.355  1.00  0.00    -0.250 NA
HETATM   17  C   UNL     1      29.900  43.169  54.635  1.00  0.00     0.072 C 
HETATM   18  C   UNL     1      26.257  44.907  52.044  1.00  0.00     0.063 A 
ENDBRANCH   1   7
BRANCH   3  19
HETATM   19  C   UNL     1      22.861  48.621  49.140  1.00  0.00     0.135 C 
BRANCH  19  20
HETATM   20  C   UNL     1      21.306  48.489  49.170  1.00  0.00     0.240 C 
BRANCH  20  21
HETATM   21  N   UNL     1      20.678  47.490  48.203  1.00  0.00    -0.069 N 
HETATM   22  H   UNL     1      21.489  46.950  47.875  1.00  0.00     0.279 HD
HETATM   23  C   UNL     1      19.757  46.456  48.775  1.00  0.00     0.270 C 
HETATM   24  C   UNL     1      20.103  48.126  46.971  1.00  0.00     0.270 C 
ENDBRANCH  20  21
BRANCH  20  25
HETATM   25  C   UNL     1      20.578  49.820  49.147  1.00  0.00     0.014 A 
HETATM   26  S   UNL     1      19.175  50.013  50.128  1.00  0.00    -0.104 SA
HETATM   27  C   UNL     1      18.937  51.618  49.601  1.00  0.00     0.050 A 
HETATM   28  C   UNL     1      19.886  52.005  48.683  1.00  0.00     0.008 A 
HETATM   29  C   UNL     1      20.826  50.969  48.419  1.00  0.00     0.017 A 
ENDBRANCH  20  25
ENDBRANCH  19  20
ENDBRANCH   3  19
TORSDOF 5
ENDMDL
MODEL 2
REMARK VINA RESULT:      -8.3      2.469      3.171
REMARK  5 active torsions:
REMARK  status: ('A' for Active; 'I' for Inactive)
REMARK    1  A    between atoms: C_11  and  N_12 
REMARK       I    between atoms: N_12  and  C_13 
REMARK       I    between atoms: C_13  and  N_14 
REMARK    2  A    between atoms: N_14  and  C_15 
REMARK    3  A    between atoms: C_15  and  C_16 
REMARK    4  A    between atoms: C_16  and  N_17 
REMARK    5  A    between atoms: C_16  and  C_21 
ROOT
HETATM    1  N   UNL     1      25.481  48.301  49.519  1.00  0.00    -0.314 N 
HETATM    2  C   UNL     1      24.361  48.852  48.990  1.00  0.00     0.298 C 
HETATM    3  N   UNL     1      23.216  48.120  48.969  1.00  0.00    -0.242 NA
HETATM    4  O   UNL     1      24.396  50.012  48.587  1.00  0.00    -0.254 OA
HETATM    5  H   UNL     1      26.272  48.927  49.389  1.00  0.00     0.170 HD
HETATM    6  H   UNL     1      23.415  47.164  48.699  1.00  0.00     0.132 HD
ENDROOT
BRANCH   1   7
HETATM    7  C   UNL     1      25.755  47.148  50.284  1.00  0.00     0.038 A 
HETATM    8  C   UNL     1      25.777  47.080  51.671  1.00  0.00     0.032 A 
HETATM    9  C   UNL     1      26.121  45.883  52.314  1.00  0.00     0.036 A 
HETATM   10  C   UNL     1      26.464  44.747  51.598  1.00  0.00     0.086 A 
HETATM   11  N   UNL     1      26.822  43.633  52.256  1.00  0.00    -0.250 NA
HETATM   12  C   UNL     1      26.446  44.802  50.192  1.00  0.00     0.088 A 
HETATM   13  C   UNL     1      27.173  42.556  51.507  1.00  0.00     0.055 A 
HETATM   14  C   UNL     1      27.586  41.326  52.257  1.00  0.00     0.072 C 
HETATM   15  C   UNL     1      27.159  42.608  50.112  1.00  0.00     0.055 A 
HETATM   16  N   UNL     1      26.790  43.735  49.451  1.00  0.00    -0.250 NA
HETATM   17  C   UNL     1      27.561  41.437  49.268  1.00  0.00     0.072 C 
HETATM   18  C   UNL     1      26.084  45.990  49.564  1.00  0.00     0.063 A 
ENDBRANCH   1   7
BRANCH   3  19
HETATM   19  C   UNL     1      22.003  48.665  48.360  1.00  0.00     0.135 C 
BRANCH  19  20
HETATM   20  C   UNL     1      20.850  49.136  49.302  1.00  0.00     0.240 C 
BRANCH  20  21
HETATM   21  N   UNL     1      19.937  48.054  49.871  1.00  0.00    -0.069 N 
HETATM   22  H   UNL     1      20.520  47.624  50.600  1.00  0.00     0.279 HD
HETATM   23  C   UNL     1      18.706  48.498  50.601  1.00  0.00     0.270 C 
HETATM   24  C   UNL     1      19.639  46.948  48.900  1.00  0.00     0.270 C 
ENDBRANCH  20  21
BRANCH  20  25
HETATM   25  C   UNL     1      20.054  50.307  48.758  1.00  0.00     0.014 A 
HETATM   26  S   UNL     1      19.225  50.121  47.260  1.00  0.00    -0.104 SA
HETATM   27  C   UNL     1      18.628  51.718  47.307  1.00  0.00     0.050 A 
HETATM   28  C   UNL     1      19.058  52.396  48.424  1.00  0.00     0.008 A 
HETATM   29  C   UNL     1      19.881  51.586  49.256  1.00  0.00     0.017 A 
ENDBRANCH  20  25
ENDBRANCH  19  20
ENDBRANCH   3  19
TORSDOF 5
ENDMDL
MODEL 3
REMARK VINA RESULT:      -8.3      2.098      3.049
REMARK  5 active torsions:
REMARK  status: ('A' for Active; 'I' for Inactive)
REMARK    1  A    between atoms: C_11  and  N_12 
REMARK       I    between atoms: N_12  and  C_13 
REMARK       I    between atoms: C_13  and  N_14 
REMARK    2  A    between atoms: N_14  and  C_15 
REMARK    3  A    between atoms: C_15  and  C_16 
REMARK    4  A    between atoms: C_16  and  N_17 
REMARK    5  A    between atoms: C_16  and  C_21 
ROOT
HETATM    1  N   UNL     1      24.375  48.401  49.050  1.00  0.00    -0.314 N 
HETATM    2  C   UNL     1      23.554  49.480  49.034  1.00  0.00     0.298 C 
HETATM    3  N   UNL     1      22.509  49.523  49.903  1.00  0.00    -0.242 NA
HETATM    4  O   UNL     1      23.801  50.412  48.272  1.00  0.00    -0.254 OA
HETATM    5  H   UNL     1      25.053  48.470  48.296  1.00  0.00     0.170 HD
HETATM    6  H   UNL     1      22.057  48.618  49.953  1.00  0.00     0.132 HD
ENDROOT
BRANCH   1   7
HETATM    7  C   UNL     1      24.561  47.308  49.922  1.00  0.00     0.038 A 
HETATM    8  C   UNL     1      23.942  46.069  49.815  1.00  0.00     0.032 A 
HETATM    9  C   UNL     1      24.168  45.081  50.781  1.00  0.00     0.036 A 
HETATM   10  C   UNL     1      24.991  45.308  51.873  1.00  0.00     0.086 A 
HETATM   11  N   UNL     1      25.151  44.345  52.795  1.00  0.00    -0.250 NA
HETATM   12  C   UNL     1      25.625  46.559  51.995  1.00  0.00     0.088 A 
HETATM   13  C   UNL     1      25.947  44.628  53.857  1.00  0.00     0.055 A 
HETATM   14  C   UNL     1      26.100  43.548  54.885  1.00  0.00     0.072 C 
HETATM   15  C   UNL     1      26.574  45.869  53.982  1.00  0.00     0.055 A 
HETATM   16  N   UNL     1      26.416  46.838  53.045  1.00  0.00    -0.250 NA
HETATM   17  C   UNL     1      27.442  46.207  55.156  1.00  0.00     0.072 C 
HETATM   18  C   UNL     1      25.408  47.526  51.018  1.00  0.00     0.063 A 
ENDBRANCH   1   7
BRANCH   3  19
HETATM   19  C   UNL     1      21.575  50.648  49.878  1.00  0.00     0.135 C 
BRANCH  19  20
HETATM   20  C   UNL     1      20.063  50.361  50.144  1.00  0.00     0.240 C 
BRANCH  20  21
HETATM   21  N   UNL     1      19.668  48.906  50.381  1.00  0.00    -0.069 N 
HETATM   22  H   UNL     1      20.531  48.494  50.758  1.00  0.00     0.279 HD
HETATM   23  C   UNL     1      18.639  48.630  51.435  1.00  0.00     0.270 C 
HETATM   24  C   UNL     1      19.387  48.147  49.117  1.00  0.00     0.270 C 
ENDBRANCH  20  21
BRANCH  20  25
HETATM   25  C   UNL     1      19.128  51.040  49.161  1.00  0.00     0.014 A 
HETATM   26  S   UNL     1      17.559  51.505  49.697  1.00  0.00    -0.104 SA
HETATM   27  C   UNL     1      17.141  52.133  48.167  1.00  0.00     0.050 A 
HETATM   28  C   UNL     1      18.159  51.982  47.253  1.00  0.00     0.008 A 
HETATM   29  C   UNL     1      19.299  51.349  47.824  1.00  0.00     0.017 A 
ENDBRANCH  20  25
ENDBRANCH  19  20
ENDBRANCH   3  19
TORSDOF 5
ENDMDL
MODEL 4
REMARK VINA RESULT:      -8.2      1.963      2.768
REMARK  5 active torsions:
REMARK  status: ('A' for Active; 'I' for Inactive)
REMARK    1  A    between atoms: C_11  and  N_12 
REMARK       I    between atoms: N_12  and  C_13 
REMARK       I    between atoms: C_13  and  N_14 
REMARK    2  A    between atoms: N_14  and  C_15 
REMARK    3  A    between atoms: C_15  and  C_16 
REMARK    4  A    between atoms: C_16  and  N_17 
REMARK    5  A    between atoms: C_16  and  C_21 
ROOT
HETATM    1  N   UNL     1      26.650  44.292  51.570  1.00  0.00    -0.314 N 
HETATM    2  C   UNL     1      26.105  44.841  50.456  1.00  0.00     0.298 C 
HETATM    3  N   UNL     1      25.680  46.131  50.500  1.00  0.00    -0.242 NA
HETATM    4  O   UNL     1      26.054  44.177  49.423  1.00  0.00    -0.254 OA
HETATM    5  H   UNL     1      26.841  43.305  51.413  1.00  0.00     0.170 HD
HETATM    6  H   UNL     1      25.194  46.311  51.371  1.00  0.00     0.132 HD
ENDROOT
BRANCH   1   7
HETATM    7  C   UNL     1      27.100  44.797  52.808  1.00  0.00     0.038 A 
HETATM    8  C   UNL     1      26.593  45.912  53.463  1.00  0.00     0.032 A 
HETATM    9  C   UNL     1      27.168  46.347  54.664  1.00  0.00     0.036 A 
HETATM   10  C   UNL     1      28.259  45.700  55.223  1.00  0.00     0.086 A 
HETATM   11  N   UNL     1      28.800  46.173  56.357  1.00  0.00    -0.250 NA
HETATM   12  C   UNL     1      28.783  44.568  54.570  1.00  0.00     0.088 A 
HETATM   13  C   UNL     1      29.882  45.517  56.848  1.00  0.00     0.055 A 
HETATM   14  C   UNL     1      30.485  46.069  58.104  1.00  0.00     0.072 C 
HETATM   15  C   UNL     1      30.407  44.397  56.201  1.00  0.00     0.055 A 
HETATM   16  N   UNL     1      29.852  43.918  55.058  1.00  0.00    -0.250 NA
HETATM   17  C   UNL     1      31.611  43.671  56.717  1.00  0.00     0.072 C 
HETATM   18  C   UNL     1      28.191  44.134  53.387  1.00  0.00     0.063 A 
ENDBRANCH   1   7
BRANCH   3  19
HETATM   19  C   UNL     1      25.043  46.738  49.333  1.00  0.00     0.135 C 
BRANCH  19  20
HETATM   20  C   UNL     1      23.552  47.186  49.452  1.00  0.00     0.240 C 
BRANCH  20  21
HETATM   21  N   UNL     1      22.496  46.224  48.913  1.00  0.00    -0.069 N 
HETATM   22  H   UNL     1      21.624  46.598  49.308  1.00  0.00     0.279 HD
HETATM   23  C   UNL     1      22.255  46.217  47.434  1.00  0.00     0.270 C 
HETATM   24  C   UNL     1      22.614  44.832  49.464  1.00  0.00     0.270 C 
ENDBRANCH  20  21
BRANCH  20  25
HETATM   25  C   UNL     1      23.299  48.608  48.989  1.00  0.00     0.014 A 
HETATM   26  S   UNL     1      21.774  49.332  49.332  1.00  0.00    -0.104 SA
HETATM   27  C   UNL     1      22.209  50.789  48.558  1.00  0.00     0.050 A 
HETATM   28  C   UNL     1      23.478  50.732  48.028  1.00  0.00     0.008 A 
HETATM   29  C   UNL     1      24.102  49.476  48.273  1.00  0.00     0.017 A 
ENDBRANCH  20  25
ENDBRANCH  19  20
ENDBRANCH   3  19
TORSDOF 5
ENDMDL
MODEL 5
REMARK VINA RESULT:      -8.2      5.533      7.346
REMARK  5 active torsions:
REMARK  status: ('A' for Active; 'I' for Inactive)
REMARK    1  A    between atoms: C_11  and  N_12 
REMARK       I    between atoms: N_12  and  C_13 
REMARK       I    between atoms: C_13  and  N_14 
REMARK    2  A    between atoms: N_14  and  C_15 
REMARK    3  A    between atoms: C_15  and  C_16 
REMARK    4  A    between atoms: C_16  and  N_17 
REMARK    5  A    between atoms: C_16  and  C_21 
ROOT
HETATM    1  N   UNL     1      26.170  44.702  52.383  1.00  0.00    -0.314 N 
HETATM    2  C   UNL     1      25.226  44.062  51.651  1.00  0.00     0.298 C 
HETATM    3  N   UNL     1      25.465  42.788  51.241  1.00  0.00    -0.242 NA
HETATM    4  O   UNL     1      24.160  44.628  51.418  1.00  0.00    -0.254 OA
HETATM    5  H   UNL     1      25.891  45.667  52.543  1.00  0.00     0.170 HD
HETATM    6  H   UNL     1      26.420  42.697  50.916  1.00  0.00     0.132 HD
ENDROOT
BRANCH   1   7
HETATM    7  C   UNL     1      27.351  44.307  53.044  1.00  0.00     0.038 A 
HETATM    8  C   UNL     1      28.140  43.212  52.714  1.00  0.00     0.032 A 
HETATM    9  C   UNL     1      29.262  42.891  53.488  1.00  0.00     0.036 A 
HETATM   10  C   UNL     1      29.609  43.632  54.606  1.00  0.00     0.086 A 
HETATM   11  N   UNL     1      30.672  43.266  55.340  1.00  0.00    -0.250 NA
HETATM   12  C   UNL     1      28.819  44.744  54.953  1.00  0.00     0.088 A 
HETATM   13  C   UNL     1      30.954  44.012  56.439  1.00  0.00     0.055 A 
HETATM   14  C   UNL     1      32.132  43.580  57.257  1.00  0.00     0.072 C 
HETATM   15  C   UNL     1      30.170  45.113  56.788  1.00  0.00     0.055 A 
HETATM   16  N   UNL     1      29.099  45.484  56.040  1.00  0.00    -0.250 NA
HETATM   17  C   UNL     1      30.453  45.937  58.007  1.00  0.00     0.072 C 
HETATM   18  C   UNL     1      27.718  45.065  54.165  1.00  0.00     0.063 A 
ENDBRANCH   1   7
BRANCH   3  19
HETATM   19  C   UNL     1      24.489  42.085  50.408  1.00  0.00     0.135 C 
BRANCH  19  20
HETATM   20  C   UNL     1      24.985  41.433  49.079  1.00  0.00     0.240 C 
BRANCH  20  21
HETATM   21  N   UNL     1      23.966  40.617  48.288  1.00  0.00    -0.069 N 
HETATM   22  H   UNL     1      23.747  39.842  48.928  1.00  0.00     0.279 HD
HETATM   23  C   UNL     1      22.636  41.249  48.011  1.00  0.00     0.270 C 
HETATM   24  C   UNL     1      24.539  39.966  47.062  1.00  0.00     0.270 C 
ENDBRANCH  20  21
BRANCH  20  25
HETATM   25  C   UNL     1      26.305  40.698  49.212  1.00  0.00     0.014 A 
HETATM   26  S   UNL     1      27.634  41.200  48.238  1.00  0.00    -0.104 SA
HETATM   27  C   UNL     1      28.658  40.000  48.888  1.00  0.00     0.050 A 
HETATM   28  C   UNL     1      28.010  39.215  49.814  1.00  0.00     0.008 A 
HETATM   29  C   UNL     1      26.656  39.614  49.996  1.00  0.00     0.017 A 
ENDBRANCH  20  25
ENDBRANCH  19  20
ENDBRANCH   3  19
TORSDOF 5
ENDMDL
MODEL 6
REMARK VINA RESULT:      -8.2      4.665      5.986
REMARK  5 active torsions:
REMARK  status: ('A' for Active; 'I' for Inactive)
REMARK    1  A    between atoms: C_11  and  N_12 
REMARK       I    between atoms: N_12  and  C_13 
REMARK       I    between atoms: C_13  and  N_14 
REMARK    2  A    between atoms: N_14  and  C_15 
REMARK    3  A    between atoms: C_15  and  C_16 
REMARK    4  A    between atoms: C_16  and  N_17 
REMARK    5  A    between atoms: C_16  and  C_21 
ROOT
HETATM    1  N   UNL     1      28.798  41.600  51.459  1.00  0.00    -0.314 N 
HETATM    2  C   UNL     1      27.877  41.167  50.564  1.00  0.00     0.298 C 
HETATM    3  N   UNL     1      26.576  41.518  50.738  1.00  0.00    -0.242 NA
HETATM    4  O   UNL     1      28.247  40.511  49.593  1.00  0.00    -0.254 OA
HETATM    5  H   UNL     1      29.706  41.193  51.249  1.00  0.00     0.170 HD
HETATM    6  H   UNL     1      26.319  41.441  51.716  1.00  0.00     0.132 HD
ENDROOT
BRANCH   1   7
HETATM    7  C   UNL     1      28.798  42.547  52.505  1.00  0.00     0.038 A 
HETATM    8  C   UNL     1      27.996  43.679  52.575  1.00  0.00     0.032 A 
HETATM    9  C   UNL     1      28.132  44.576  53.643  1.00  0.00     0.036 A 
HETATM   10  C   UNL     1      29.072  44.377  54.642  1.00  0.00     0.086 A 
HETATM   11  N   UNL     1      29.193  45.281  55.628  1.00  0.00    -0.250 NA
HETATM   12  C   UNL     1      29.892  43.234  54.584  1.00  0.00     0.088 A 
HETATM   13  C   UNL     1      30.145  45.051  56.567  1.00  0.00     0.055 A 
HETATM   14  C   UNL     1      30.279  46.079  57.649  1.00  0.00     0.072 C 
HETATM   15  C   UNL     1      30.962  43.921  56.510  1.00  0.00     0.055 A 
HETATM   16  N   UNL     1      30.832  43.005  55.515  1.00  0.00    -0.250 NA
HETATM   17  C   UNL     1      32.031  43.658  57.527  1.00  0.00     0.072 C 
HETATM   18  C   UNL     1      29.733  42.340  53.528  1.00  0.00     0.063 A 
ENDBRANCH   1   7
BRANCH   3  19
HETATM   19  C   UNL     1      25.549  41.026  49.819  1.00  0.00     0.135 C 
BRANCH  19  20
HETATM   20  C   UNL     1      24.780  42.066  48.945  1.00  0.00     0.240 C 
BRANCH  20  21
HETATM   21  N   UNL     1      24.968  41.970  47.433  1.00  0.00    -0.069 N 
HETATM   22  H   UNL     1      25.605  42.752  47.232  1.00  0.00     0.279 HD
HETATM   23  C   UNL     1      25.684  40.768  46.897  1.00  0.00     0.270 C 
HETATM   24  C   UNL     1      23.720  42.268  46.653  1.00  0.00     0.270 C 
ENDBRANCH  20  21
BRANCH  20  25
HETATM   25  C   UNL     1      24.911  43.495  49.434  1.00  0.00     0.014 A 
HETATM   26  S   UNL     1      23.582  44.214  50.260  1.00  0.00    -0.104 SA
HETATM   27  C   UNL     1      24.412  45.690  50.465  1.00  0.00     0.050 A 
HETATM   28  C   UNL     1      25.668  45.658  49.905  1.00  0.00     0.008 A 
HETATM   29  C   UNL     1      25.953  44.397  49.308  1.00  0.00     0.017 A 
ENDBRANCH  20  25
ENDBRANCH  19  20
ENDBRANCH   3  19
TORSDOF 5
ENDMDL
MODEL 7
REMARK VINA RESULT:      -8.0      3.922      5.272
REMARK  5 active torsions:
REMARK  status: ('A' for Active; 'I' for Inactive)
REMARK    1  A    between atoms: C_11  and  N_12 
REMARK       I    between atoms: N_12  and  C_13 
REMARK       I    between atoms: C_13  and  N_14 
REMARK    2  A    between atoms: N_14  and  C_15 
REMARK    3  A    between atoms: C_15  and  C_16 
REMARK    4  A    between atoms: C_16  and  N_17 
REMARK    5  A    between atoms: C_16  and  C_21 
ROOT
HETATM    1  N   UNL     1      28.240  42.307  51.193  1.00  0.00    -0.314 N 
HETATM    2  C   UNL     1      26.993  42.307  50.661  1.00  0.00     0.298 C 
HETATM    3  N   UNL     1      25.950  42.706  51.436  1.00  0.00    -0.242 NA
HETATM    4  O   UNL     1      26.843  41.995  49.482  1.00  0.00    -0.254 OA
HETATM    5  H   UNL     1      28.901  41.907  50.531  1.00  0.00     0.170 HD
HETATM    6  H   UNL     1      26.038  42.322  52.369  1.00  0.00     0.132 HD
ENDROOT
BRANCH   1   7
HETATM    7  C   UNL     1      28.819  42.826  52.370  1.00  0.00     0.038 A 
HETATM    8  C   UNL     1      29.894  42.278  53.057  1.00  0.00     0.032 A 
HETATM    9  C   UNL     1      30.340  42.860  54.251  1.00  0.00     0.036 A 
HETATM   10  C   UNL     1      29.720  43.976  54.790  1.00  0.00     0.086 A 
HETATM   11  N   UNL     1      30.158  44.479  55.956  1.00  0.00    -0.250 NA
HETATM   12  C   UNL     1      28.629  44.542  54.105  1.00  0.00     0.088 A 
HETATM   13  C   UNL     1      29.500  45.557  56.453  1.00  0.00     0.055 A 
HETATM   14  C   UNL     1      29.990  46.095  57.763  1.00  0.00     0.072 C 
HETATM   15  C   UNL     1      28.415  46.118  55.777  1.00  0.00     0.055 A 
HETATM   16  N   UNL     1      27.979  45.611  54.596  1.00  0.00    -0.250 NA
HETATM   17  C   UNL     1      27.664  47.297  56.318  1.00  0.00     0.072 C 
HETATM   18  C   UNL     1      28.207  43.967  52.910  1.00  0.00     0.063 A 
ENDBRANCH   1   7
BRANCH   3  19
HETATM   19  C   UNL     1      24.585  42.671  50.910  1.00  0.00     0.135 C 
BRANCH  19  20
HETATM   20  C   UNL     1      23.910  44.022  50.513  1.00  0.00     0.240 C 
BRANCH  20  21
HETATM   21  N   UNL     1      23.404  44.146  49.079  1.00  0.00    -0.069 N 
HETATM   22  H   UNL     1      23.902  44.976  48.732  1.00  0.00     0.279 HD
HETATM   23  C   UNL     1      23.781  43.064  48.114  1.00  0.00     0.270 C 
HETATM   24  C   UNL     1      21.946  44.492  48.985  1.00  0.00     0.270 C 
ENDBRANCH  20  21
BRANCH  20  25
HETATM   25  C   UNL     1      24.698  45.248  50.934  1.00  0.00     0.014 A 
HETATM   26  S   UNL     1      25.451  46.207  49.718  1.00  0.00    -0.104 SA
HETATM   27  C   UNL     1      26.092  47.293  50.867  1.00  0.00     0.050 A 
HETATM   28  C   UNL     1      25.763  46.935  52.154  1.00  0.00     0.008 A 
HETATM   29  C   UNL     1      24.965  45.757  52.192  1.00  0.00     0.017 A 
ENDBRANCH  20  25
ENDBRANCH  19  20
ENDBRANCH   3  19
TORSDOF 5
ENDMDL
MODEL 8
REMARK VINA RESULT:      -8.0      2.737      9.429
REMARK  5 active torsions:
REMARK  status: ('A' for Active; 'I' for Inactive)
REMARK    1  A    between atoms: C_11  and  N_12 
REMARK       I    between atoms: N_12  and  C_13 
REMARK       I    between atoms: C_13  and  N_14 
REMARK    2  A    between atoms: N_14  and  C_15 
REMARK    3  A    between atoms: C_15  and  C_16 
REMARK    4  A    between atoms: C_16  and  N_17 
REMARK    5  A    between atoms: C_16  and  C_21 
ROOT
HETATM    1  N   UNL     1      24.915  48.312  49.207  1.00  0.00    -0.314 N 
HETATM    2  C   UNL     1      25.749  47.901  50.194  1.00  0.00     0.298 C 
HETATM    3  N   UNL     1      25.224  47.575  51.404  1.00  0.00    -0.242 NA
HETATM    4  O   UNL     1      26.950  47.788  49.957  1.00  0.00    -0.254 OA
HETATM    5  H   UNL     1      25.454  48.601  48.394  1.00  0.00     0.170 HD
HETATM    6  H   UNL     1      24.512  48.245  51.670  1.00  0.00     0.132 HD
ENDROOT
BRANCH   1   7
HETATM    7  C   UNL     1      23.517  48.316  49.026  1.00  0.00     0.038 A 
HETATM    8  C   UNL     1      22.726  47.200  48.783  1.00  0.00     0.032 A 
HETATM    9  C   UNL     1      21.350  47.343  48.563  1.00  0.00     0.036 A 
HETATM   10  C   UNL     1      20.741  48.588  48.561  1.00  0.00     0.086 A 
HETATM   11  N   UNL     1      19.426  48.682  48.309  1.00  0.00    -0.250 NA
HETATM   12  C   UNL     1      21.530  49.728  48.806  1.00  0.00     0.088 A 
HETATM   13  C   UNL     1      18.885  49.927  48.294  1.00  0.00     0.055 A 
HETATM   14  C   UNL     1      17.419  50.015  47.994  1.00  0.00     0.072 C 
HETATM   15  C   UNL     1      19.665  51.059  48.533  1.00  0.00     0.055 A 
HETATM   16  N   UNL     1      20.993  50.960  48.794  1.00  0.00    -0.250 NA
HETATM   17  C   UNL     1      19.089  52.443  48.503  1.00  0.00     0.072 C 
HETATM   18  C   UNL     1      22.893  49.571  49.043  1.00  0.00     0.063 A 
ENDBRANCH   1   7
BRANCH   3  19
HETATM   19  C   UNL     1      26.100  47.176  52.506  1.00  0.00     0.135 C 
BRANCH  19  20
HETATM   20  C   UNL     1      26.422  45.659  52.682  1.00  0.00     0.240 C 
BRANCH  20  21
HETATM   21  N   UNL     1      25.234  44.714  52.845  1.00  0.00    -0.069 N 
HETATM   22  H   UNL     1      24.432  45.313  52.607  1.00  0.00     0.279 HD
HETATM   23  C   UNL     1      25.127  43.564  51.891  1.00  0.00     0.270 C 
HETATM   24  C   UNL     1      24.998  44.284  54.264  1.00  0.00     0.270 C 
ENDBRANCH  20  21
BRANCH  20  25
HETATM   25  C   UNL     1      27.502  45.377  53.709  1.00  0.00     0.014 A 
HETATM   26  S   UNL     1      27.789  46.537  54.950  1.00  0.00    -0.104 SA
HETATM   27  C   UNL     1      29.037  45.600  55.640  1.00  0.00     0.050 A 
HETATM   28  C   UNL     1      29.254  44.436  54.940  1.00  0.00     0.008 A 
HETATM   29  C   UNL     1      28.374  44.310  53.827  1.00  0.00     0.017 A 
ENDBRANCH  20  25
ENDBRANCH  19  20
ENDBRANCH   3  19
TORSDOF 5
ENDMDL
MODEL 9
REMARK VINA RESULT:      -7.9      4.995      6.932
REMARK  5 active torsions:
REMARK  status: ('A' for Active; 'I' for Inactive)
REMARK    1  A    between atoms: C_11  and  N_12 
REMARK       I    between atoms: N_12  and  C_13 
REMARK       I    between atoms: C_13  and  N_14 
REMARK    2  A    between atoms: N_14  and  C_15 
REMARK    3  A    between atoms: C_15  and  C_16 
REMARK    4  A    between atoms: C_16  and  N_17 
REMARK    5  A    between atoms: C_16  and  C_21 
ROOT
HETATM    1  N   UNL     1      29.235  41.177  52.300  1.00  0.00    -0.314 N 
HETATM    2  C   UNL     1      28.393  40.493  51.488  1.00  0.00     0.298 C 
HETATM    3  N   UNL     1      27.073  40.821  51.484  1.00  0.00    -0.242 NA
HETATM    4  O   UNL     1      28.847  39.628  50.743  1.00  0.00    -0.254 OA
HETATM    5  H   UNL     1      30.165  40.769  52.260  1.00  0.00     0.170 HD
HETATM    6  H   UNL     1      26.749  40.984  52.430  1.00  0.00     0.132 HD
ENDROOT
BRANCH   1   7
HETATM    7  C   UNL     1      29.135  42.357  53.067  1.00  0.00     0.038 A 
HETATM    8  C   UNL     1      29.881  42.655  54.200  1.00  0.00     0.032 A 
HETATM    9  C   UNL     1      29.646  43.840  54.909  1.00  0.00     0.036 A 
HETATM   10  C   UNL     1      28.663  44.736  54.520  1.00  0.00     0.086 A 
HETATM   11  N   UNL     1      28.447  45.842  55.249  1.00  0.00    -0.250 NA
HETATM   12  C   UNL     1      27.899  44.447  53.373  1.00  0.00     0.088 A 
HETATM   13  C   UNL     1      27.456  46.673  54.839  1.00  0.00     0.055 A 
HETATM   14  C   UNL     1      27.217  47.894  55.675  1.00  0.00     0.072 C 
HETATM   15  C   UNL     1      26.694  46.388  53.704  1.00  0.00     0.055 A 
HETATM   16  N   UNL     1      26.919  45.271  52.965  1.00  0.00    -0.250 NA
HETATM   17  C   UNL     1      25.583  47.283  53.246  1.00  0.00     0.072 C 
HETATM   18  C   UNL     1      28.155  43.276  52.666  1.00  0.00     0.063 A 
ENDBRANCH   1   7
BRANCH   3  19
HETATM   19  C   UNL     1      26.129  40.069  50.657  1.00  0.00     0.135 C 
BRANCH  19  20
HETATM   20  C   UNL     1      25.441  40.805  49.464  1.00  0.00     0.240 C 
BRANCH  20  21
HETATM   21  N   UNL     1      25.901  40.425  48.060  1.00  0.00    -0.069 N 
HETATM   22  H   UNL     1      26.616  41.134  47.854  1.00  0.00     0.279 HD
HETATM   23  C   UNL     1      26.621  39.121  47.895  1.00  0.00     0.270 C 
HETATM   24  C   UNL     1      24.844  40.613  47.010  1.00  0.00     0.270 C 
ENDBRANCH  20  21
BRANCH  20  25
HETATM   25  C   UNL     1      25.361  42.310  49.636  1.00  0.00     0.014 A 
HETATM   26  S   UNL     1      23.957  42.987  50.369  1.00  0.00    -0.104 SA
HETATM   27  C   UNL     1      24.553  44.578  50.214  1.00  0.00     0.050 A 
HETATM   28  C   UNL     1      25.785  44.610  49.602  1.00  0.00     0.008 A 
HETATM   29  C   UNL     1      26.247  43.306  49.266  1.00  0.00     0.017 A 
ENDBRANCH  20  25
ENDBRANCH  19  20
ENDBRANCH   3  19
TORSDOF 5
ENDMDL
MODEL 10
REMARK VINA RESULT:      -7.9      2.654      8.866
REMARK  5 active torsions:
REMARK  status: ('A' for Active; 'I' for Inactive)
REMARK    1  A    between atoms: C_11  and  N_12 
REMARK       I    between atoms: N_12  and  C_13 
REMARK       I    between atoms: C_13  and  N_14 
REMARK    2  A    between atoms: N_14  and  C_15 
REMARK    3  A    between atoms: C_15  and  C_16 
REMARK    4  A    between atoms: C_16  and  N_17 
REMARK    5  A    between atoms: C_16  and  C_21 
ROOT
HETATM    1  N   UNL     1      25.079  48.429  48.830  1.00  0.00    -0.314 N 
HETATM    2  C   UNL     1      25.763  47.707  49.751  1.00  0.00     0.298 C 
HETATM    3  N   UNL     1      25.410  47.809  51.059  1.00  0.00    -0.242 NA
HETATM    4  O   UNL     1      26.651  46.944  49.377  1.00  0.00    -0.254 OA
HETATM    5  H   UNL     1      25.506  48.317  47.913  1.00  0.00     0.170 HD
HETATM    6  H   UNL     1      25.222  48.776  51.298  1.00  0.00     0.132 HD
ENDROOT
BRANCH   1   7
HETATM    7  C   UNL     1      23.882  49.175  48.842  1.00  0.00     0.038 A 
HETATM    8  C   UNL     1      23.788  50.559  48.767  1.00  0.00     0.032 A 
HETATM    9  C   UNL     1      22.538  51.187  48.847  1.00  0.00     0.036 A 
HETATM   10  C   UNL     1      21.371  50.460  49.021  1.00  0.00     0.086 A 
HETATM   11  N   UNL     1      20.198  51.106  49.129  1.00  0.00    -0.250 NA
HETATM   12  C   UNL     1      21.451  49.057  49.098  1.00  0.00     0.088 A 
HETATM   13  C   UNL     1      19.089  50.348  49.323  1.00  0.00     0.055 A 
HETATM   14  C   UNL     1      17.791  51.086  49.460  1.00  0.00     0.072 C 
HETATM   15  C   UNL     1      19.166  48.957  49.404  1.00  0.00     0.055 A 
HETATM   16  N   UNL     1      20.353  48.307  49.288  1.00  0.00    -0.250 NA
HETATM   17  C   UNL     1      17.955  48.105  49.636  1.00  0.00     0.072 C 
HETATM   18  C   UNL     1      22.697  48.444  48.998  1.00  0.00     0.063 A 
ENDBRANCH   1   7
BRANCH   3  19
HETATM   19  C   UNL     1      26.159  47.083  52.085  1.00  0.00     0.135 C 
BRANCH  19  20
HETATM   20  C   UNL     1      25.571  45.738  52.617  1.00  0.00     0.240 C 
BRANCH  20  21
HETATM   21  N   UNL     1      25.679  45.484  54.119  1.00  0.00    -0.069 N 
HETATM   22  H   UNL     1      25.007  46.154  54.512  1.00  0.00     0.279 HD
HETATM   23  C   UNL     1      25.215  44.154  54.632  1.00  0.00     0.270 C 
HETATM   24  C   UNL     1      27.008  45.871  54.699  1.00  0.00     0.270 C 
ENDBRANCH  20  21
BRANCH  20  25
HETATM   25  C   UNL     1      25.995  44.523  51.814  1.00  0.00     0.014 A 
HETATM   26  S   UNL     1      24.780  43.566  51.057  1.00  0.00    -0.104 SA
HETATM   27  C   UNL     1      25.930  42.482  50.414  1.00  0.00     0.050 A 
HETATM   28  C   UNL     1      27.214  42.818  50.777  1.00  0.00     0.008 A 
HETATM   29  C   UNL     1      27.250  43.989  51.585  1.00  0.00     0.017 A 
ENDBRANCH  20  25
ENDBRANCH  19  20
ENDBRANCH   3  19
TORSDOF 5
ENDMDL
