MODEL 1
REMARK VINA RESULT:      -9.5      0.000      0.000
REMARK  5 active torsions:
REMARK  status: ('A' for Active; 'I' for Inactive)
REMARK    1  A    between atoms: C_3  and  N_4 
REMARK    2  A    between atoms: N_5  and  C_6 
REMARK    3  A    between atoms: C_6  and  C_7 
REMARK    4  A    between atoms: C_7  and  C_8 
REMARK    5  A    between atoms: C_16  and  C_17 
ROOT
HETATM    1  C   UNL     1      26.421  44.553  49.697  1.00  0.00     0.175 C 
HETATM    2  N   UNL     1      26.301  45.267  50.960  1.00  0.00    -0.186 N 
HETATM    3  C   UNL     1      26.542  44.719  52.149  1.00  0.00     0.680 A 
HETATM    4  N   UNL     1      26.556  45.673  53.072  1.00  0.00    -0.184 N 
HETATM    5  C   UNL     1      26.284  46.880  52.454  1.00  0.00     0.140 A 
HETATM    6  C   UNL     1      26.062  46.649  51.112  1.00  0.00     0.077 A 
ENDROOT
BRANCH   4   7
HETATM    7  C   UNL     1      26.728  45.508  54.530  1.00  0.00     0.231 C 
BRANCH   7   8
HETATM    8  C   UNL     1      28.053  46.069  55.031  1.00  0.00     0.178 C 
HETATM    9  O   UNL     1      28.230  47.284  55.148  1.00  0.00    -0.290 OA
BRANCH   8  10
HETATM   10  C   UNL     1      29.140  45.129  55.402  1.00  0.00     0.011 A 
HETATM   11  C   UNL     1      29.422  43.985  54.645  1.00  0.00     0.015 A 
HETATM   12  C   UNL     1      30.446  43.124  55.046  1.00  0.00     0.001 A 
HETATM   13  C   UNL     1      31.189  43.405  56.193  1.00  0.00     0.000 A 
HETATM   14  C   UNL     1      30.921  44.551  56.938  1.00  0.00     0.001 A 
HETATM   15  C   UNL     1      29.902  45.418  56.542  1.00  0.00     0.015 A 
ENDBRANCH   8  10
ENDBRANCH   7   8
ENDBRANCH   4   7
BRANCH   3  16
HETATM   16  N   UNL     1      26.749  43.424  52.364  1.00  0.00    -0.234 N 
HETATM   17  H   UNL     1      27.053  42.792  51.644  1.00  0.00     0.174 HD
HETATM   18  H   UNL     1      26.796  43.086  53.327  1.00  0.00     0.174 HD
ENDBRANCH   3  16
BRANCH   6  19
HETATM   19  C   UNL     1      25.669  47.701  50.105  1.00  0.00    -0.004 A 
HETATM   20  C   UNL     1      24.308  47.919  49.835  1.00  0.00     0.053 A 
HETATM   21  C   UNL     1      23.977  48.887  48.908  1.00  0.00     0.106 A 
HETATM   22  C   UNL     1      24.931  49.623  48.252  1.00  0.00     0.105 A 
HETATM   23  O   UNL     1      22.713  49.225  48.538  1.00  0.00    -0.323 OA
HETATM   24  O   UNL     1      24.391  50.518  47.386  1.00  0.00    -0.323 OA
HETATM   25  C   UNL     1      26.273  49.425  48.481  1.00  0.00     0.040 A 
HETATM   26  C   UNL     1      22.982  50.264  47.569  1.00  0.00     0.352 A 
HETATM   27  C   UNL     1      26.644  48.447  49.414  1.00  0.00     0.017 A 
ENDBRANCH   6  19
TORSDOF 5
ENDMDL
MODEL 2
REMARK VINA RESULT:      -8.8      3.113      9.117
REMARK  5 active torsions:
REMARK  status: ('A' for Active; 'I' for Inactive)
REMARK    1  A    between atoms: C_3  and  N_4 
REMARK    2  A    between atoms: N_5  and  C_6 
REMARK    3  A    between atoms: C_6  and  C_7 
REMARK    4  A    between atoms: C_7  and  C_8 
REMARK    5  A    between atoms: C_16  and  C_17 
ROOT
HETATM    1  C   UNL     1      27.569  48.512  49.130  1.00  0.00     0.175 C 
HETATM    2  N   UNL     1      26.138  48.456  49.389  1.00  0.00    -0.186 N 
HETATM    3  C   UNL     1      25.231  49.151  48.704  1.00  0.00     0.680 A 
HETATM    4  N   UNL     1      24.018  48.723  49.031  1.00  0.00    -0.184 N 
HETATM    5  C   UNL     1      24.150  47.731  49.987  1.00  0.00     0.140 A 
HETATM    6  C   UNL     1      25.489  47.574  50.278  1.00  0.00     0.077 A 
ENDROOT
BRANCH   4   7
HETATM    7  C   UNL     1      22.723  49.252  48.558  1.00  0.00     0.231 C 
BRANCH   7   8
HETATM    8  C   UNL     1      22.280  50.490  49.326  1.00  0.00     0.178 C 
HETATM    9  O   UNL     1      23.092  51.186  49.942  1.00  0.00    -0.290 OA
BRANCH   8  10
HETATM   10  C   UNL     1      20.845  50.872  49.314  1.00  0.00     0.011 A 
HETATM   11  C   UNL     1      20.353  51.875  48.470  1.00  0.00     0.015 A 
HETATM   12  C   UNL     1      18.997  52.208  48.507  1.00  0.00     0.001 A 
HETATM   13  C   UNL     1      18.135  51.540  49.378  1.00  0.00     0.000 A 
HETATM   14  C   UNL     1      18.620  50.529  50.206  1.00  0.00     0.001 A 
HETATM   15  C   UNL     1      19.973  50.189  50.171  1.00  0.00     0.015 A 
ENDBRANCH   8  10
ENDBRANCH   7   8
ENDBRANCH   4   7
BRANCH   3  16
HETATM   16  N   UNL     1      25.509  50.107  47.825  1.00  0.00    -0.234 N 
HETATM   17  H   UNL     1      26.162  49.984  47.071  1.00  0.00     0.174 HD
HETATM   18  H   UNL     1      24.903  50.929  47.783  1.00  0.00     0.174 HD
ENDBRANCH   3  16
BRANCH   6  19
HETATM   19  C   UNL     1      26.044  46.636  51.320  1.00  0.00    -0.004 A 
HETATM   20  C   UNL     1      26.451  45.347  50.939  1.00  0.00     0.053 A 
HETATM   21  C   UNL     1      26.954  44.509  51.913  1.00  0.00     0.106 A 
HETATM   22  C   UNL     1      27.057  44.897  53.225  1.00  0.00     0.105 A 
HETATM   23  O   UNL     1      27.395  43.238  51.711  1.00  0.00    -0.323 OA
HETATM   24  O   UNL     1      27.576  43.923  54.016  1.00  0.00    -0.323 OA
HETATM   25  C   UNL     1      26.654  46.146  53.637  1.00  0.00     0.040 A 
HETATM   26  C   UNL     1      27.790  42.870  53.051  1.00  0.00     0.352 A 
HETATM   27  C   UNL     1      26.135  47.021  52.673  1.00  0.00     0.017 A 
ENDBRANCH   6  19
TORSDOF 5
ENDMDL
MODEL 3
REMARK VINA RESULT:      -8.6      2.021      8.109
REMARK  5 active torsions:
REMARK  status: ('A' for Active; 'I' for Inactive)
REMARK    1  A    between atoms: C_3  and  N_4 
REMARK    2  A    between atoms: N_5  and  C_6 
REMARK    3  A    between atoms: C_6  and  C_7 
REMARK    4  A    between atoms: C_7  and  C_8 
REMARK    5  A    between atoms: C_16  and  C_17 
ROOT
HETATM    1  C   UNL     1      28.080  41.192  52.996  1.00  0.00     0.175 C 
HETATM    2  N   UNL     1      27.899  42.525  52.439  1.00  0.00    -0.186 N 
HETATM    3  C   UNL     1      27.230  42.778  51.317  1.00  0.00     0.680 A 
HETATM    4  N   UNL     1      27.061  44.089  51.198  1.00  0.00    -0.184 N 
HETATM    5  C   UNL     1      27.674  44.706  52.274  1.00  0.00     0.140 A 
HETATM    6  C   UNL     1      28.266  43.738  53.059  1.00  0.00     0.077 A 
ENDROOT
BRANCH   4   7
HETATM    7  C   UNL     1      26.425  44.814  50.079  1.00  0.00     0.231 C 
BRANCH   7   8
HETATM    8  C   UNL     1      25.703  46.076  50.533  1.00  0.00     0.178 C 
HETATM    9  O   UNL     1      24.900  46.053  51.469  1.00  0.00    -0.290 OA
BRANCH   8  10
HETATM   10  C   UNL     1      25.993  47.360  49.845  1.00  0.00     0.011 A 
HETATM   11  C   UNL     1      27.302  47.800  49.619  1.00  0.00     0.015 A 
HETATM   12  C   UNL     1      27.521  49.023  48.980  1.00  0.00     0.001 A 
HETATM   13  C   UNL     1      26.439  49.800  48.563  1.00  0.00     0.000 A 
HETATM   14  C   UNL     1      25.136  49.354  48.772  1.00  0.00     0.001 A 
HETATM   15  C   UNL     1      24.910  48.132  49.406  1.00  0.00     0.015 A 
ENDBRANCH   8  10
ENDBRANCH   7   8
ENDBRANCH   4   7
BRANCH   3  16
HETATM   16  N   UNL     1      26.791  41.856  50.467  1.00  0.00    -0.234 N 
HETATM   17  H   UNL     1      26.294  42.083  49.623  1.00  0.00     0.174 HD
HETATM   18  H   UNL     1      27.133  40.897  50.560  1.00  0.00     0.174 HD
ENDBRANCH   3  16
BRANCH   6  19
HETATM   19  C   UNL     1      29.092  44.009  54.291  1.00  0.00    -0.004 A 
HETATM   20  C   UNL     1      28.736  45.072  55.138  1.00  0.00     0.053 A 
HETATM   21  C   UNL     1      29.510  45.298  56.258  1.00  0.00     0.106 A 
HETATM   22  C   UNL     1      30.604  44.526  56.554  1.00  0.00     0.105 A 
HETATM   23  O   UNL     1      29.299  46.277  57.178  1.00  0.00    -0.323 OA
HETATM   24  O   UNL     1      31.222  44.918  57.698  1.00  0.00    -0.323 OA
HETATM   25  C   UNL     1      30.991  43.487  55.740  1.00  0.00     0.040 A 
HETATM   26  C   UNL     1      30.391  46.031  58.093  1.00  0.00     0.352 A 
HETATM   27  C   UNL     1      30.229  43.232  54.592  1.00  0.00     0.017 A 
ENDBRANCH   6  19
TORSDOF 5
ENDMDL
MODEL 4
REMARK VINA RESULT:      -8.3      3.813      6.147
REMARK  5 active torsions:
REMARK  status: ('A' for Active; 'I' for Inactive)
REMARK    1  A    between atoms: C_3  and  N_4 
REMARK    2  A    between atoms: N_5  and  C_6 
REMARK    3  A    between atoms: C_6  and  C_7 
REMARK    4  A    between atoms: C_7  and  C_8 
REMARK    5  A    between atoms: C_16  and  C_17 
ROOT
HETATM    1  C   UNL     1      26.212  45.119  49.909  1.00  0.00     0.175 C 
HETATM    2  N   UNL     1      26.678  44.652  51.207  1.00  0.00    -0.186 N 
HETATM    3  C   UNL     1      26.609  45.371  52.325  1.00  0.00     0.680 A 
HETATM    4  N   UNL     1      26.908  44.596  53.360  1.00  0.00    -0.184 N 
HETATM    5  C   UNL     1      27.211  43.333  52.884  1.00  0.00     0.140 A 
HETATM    6  C   UNL     1      27.127  43.349  51.507  1.00  0.00     0.077 A 
ENDROOT
BRANCH   4   7
HETATM    7  C   UNL     1      27.010  44.995  54.779  1.00  0.00     0.231 C 
BRANCH   7   8
HETATM    8  C   UNL     1      28.293  45.760  55.080  1.00  0.00     0.178 C 
HETATM    9  O   UNL     1      28.422  46.945  54.761  1.00  0.00    -0.290 OA
BRANCH   8  10
HETATM   10  C   UNL     1      29.397  45.067  55.791  1.00  0.00     0.011 A 
HETATM   11  C   UNL     1      30.020  43.930  55.261  1.00  0.00     0.015 A 
HETATM   12  C   UNL     1      31.044  43.306  55.977  1.00  0.00     0.001 A 
HETATM   13  C   UNL     1      31.448  43.814  57.211  1.00  0.00     0.000 A 
HETATM   14  C   UNL     1      30.840  44.955  57.732  1.00  0.00     0.001 A 
HETATM   15  C   UNL     1      29.819  45.587  57.021  1.00  0.00     0.015 A 
ENDBRANCH   8  10
ENDBRANCH   7   8
ENDBRANCH   4   7
BRANCH   3  16
HETATM   16  N   UNL     1      26.276  46.656  52.384  1.00  0.00    -0.234 N 
HETATM   17  H   UNL     1      25.370  47.000  52.115  1.00  0.00     0.174 HD
HETATM   18  H   UNL     1      26.879  47.298  52.902  1.00  0.00     0.174 HD
ENDBRANCH   3  16
BRANCH   6  19
HETATM   19  C   UNL     1      27.449  42.182  50.607  1.00  0.00    -0.004 A 
HETATM   20  C   UNL     1      28.160  41.088  51.127  1.00  0.00     0.053 A 
HETATM   21  C   UNL     1      28.443  40.035  50.281  1.00  0.00     0.106 A 
HETATM   22  C   UNL     1      28.057  40.035  48.965  1.00  0.00     0.105 A 
HETATM   23  O   UNL     1      29.114  38.904  50.626  1.00  0.00    -0.323 OA
HETATM   24  O   UNL     1      28.434  38.906  48.313  1.00  0.00    -0.323 OA
HETATM   25  C   UNL     1      27.372  41.096  48.418  1.00  0.00     0.040 A 
HETATM   26  C   UNL     1      29.106  38.188  49.370  1.00  0.00     0.352 A 
HETATM   27  C   UNL     1      27.072  42.184  49.249  1.00  0.00     0.017 A 
ENDBRANCH   6  19
TORSDOF 5
ENDMDL
MODEL 5
REMARK VINA RESULT:      -8.2      2.106      8.326
REMARK  5 active torsions:
REMARK  status: ('A' for Active; 'I' for Inactive)
REMARK    1  A    between atoms: C_3  and  N_4 
REMARK    2  A    between atoms: N_5  and  C_6 
REMARK    3  A    between atoms: C_6  and  C_7 
REMARK    4  A    between atoms: C_7  and  C_8 
REMARK    5  A    between atoms: C_16  and  C_17 
ROOT
HETATM    1  C   UNL     1      27.281  42.204  53.408  1.00  0.00     0.175 C 
HETATM    2  N   UNL     1      26.987  43.597  53.101  1.00  0.00    -0.186 N 
HETATM    3  C   UNL     1      26.124  43.986  52.166  1.00  0.00     0.680 A 
HETATM    4  N   UNL     1      25.921  45.293  52.278  1.00  0.00    -0.184 N 
HETATM    5  C   UNL     1      26.709  45.768  53.310  1.00  0.00     0.140 A 
HETATM    6  C   UNL     1      27.445  44.719  53.822  1.00  0.00     0.077 A 
ENDROOT
BRANCH   4   7
HETATM    7  C   UNL     1      25.085  46.148  51.410  1.00  0.00     0.231 C 
BRANCH   7   8
HETATM    8  C   UNL     1      25.658  46.294  50.006  1.00  0.00     0.178 C 
HETATM    9  O   UNL     1      25.842  45.311  49.284  1.00  0.00    -0.290 OA
BRANCH   8  10
HETATM   10  C   UNL     1      25.978  47.651  49.495  1.00  0.00     0.011 A 
HETATM   11  C   UNL     1      24.981  48.539  49.075  1.00  0.00     0.015 A 
HETATM   12  C   UNL     1      25.336  49.800  48.589  1.00  0.00     0.001 A 
HETATM   13  C   UNL     1      26.679  50.174  48.526  1.00  0.00     0.000 A 
HETATM   14  C   UNL     1      27.671  49.297  48.960  1.00  0.00     0.001 A 
HETATM   15  C   UNL     1      27.324  48.038  49.451  1.00  0.00     0.015 A 
ENDBRANCH   8  10
ENDBRANCH   7   8
ENDBRANCH   4   7
BRANCH   3  16
HETATM   16  N   UNL     1      25.550  43.182  51.277  1.00  0.00    -0.234 N 
HETATM   17  H   UNL     1      25.428  43.433  50.311  1.00  0.00     0.174 HD
HETATM   18  H   UNL     1      25.403  42.201  51.522  1.00  0.00     0.174 HD
ENDBRANCH   3  16
BRANCH   6  19
HETATM   19  C   UNL     1      28.476  44.838  54.916  1.00  0.00    -0.004 A 
HETATM   20  C   UNL     1      29.503  43.884  55.001  1.00  0.00     0.053 A 
HETATM   21  C   UNL     1      30.432  44.016  56.013  1.00  0.00     0.106 A 
HETATM   22  C   UNL     1      30.372  45.037  56.927  1.00  0.00     0.105 A 
HETATM   23  O   UNL     1      31.486  43.185  56.230  1.00  0.00    -0.323 OA
HETATM   24  O   UNL     1      31.380  44.982  57.835  1.00  0.00    -0.323 OA
HETATM   25  C   UNL     1      29.372  45.981  56.884  1.00  0.00     0.040 A 
HETATM   26  C   UNL     1      32.086  43.803  57.391  1.00  0.00     0.352 A 
HETATM   27  C   UNL     1      28.410  45.874  55.870  1.00  0.00     0.017 A 
ENDBRANCH   6  19
TORSDOF 5
ENDMDL
MODEL 6
REMARK VINA RESULT:      -8.2      2.313      3.968
REMARK  5 active torsions:
REMARK  status: ('A' for Active; 'I' for Inactive)
REMARK    1  A    between atoms: C_3  and  N_4 
REMARK    2  A    between atoms: N_5  and  C_6 
REMARK    3  A    between atoms: C_6  and  C_7 
REMARK    4  A    between atoms: C_7  and  C_8 
REMARK    5  A    between atoms: C_16  and  C_17 
ROOT
HETATM    1  C   UNL     1      25.883  50.114  47.966  1.00  0.00     0.175 C 
HETATM    2  N   UNL     1      25.427  49.029  48.824  1.00  0.00    -0.186 N 
HETATM    3  C   UNL     1      26.242  48.228  49.505  1.00  0.00     0.680 A 
HETATM    4  N   UNL     1      25.526  47.495  50.350  1.00  0.00    -0.184 N 
HETATM    5  C   UNL     1      24.192  47.819  50.183  1.00  0.00     0.140 A 
HETATM    6  C   UNL     1      24.088  48.758  49.176  1.00  0.00     0.077 A 
ENDROOT
BRANCH   4   7
HETATM    7  C   UNL     1      26.015  46.436  51.255  1.00  0.00     0.231 C 
BRANCH   7   8
HETATM    8  C   UNL     1      26.081  46.891  52.708  1.00  0.00     0.178 C 
HETATM    9  O   UNL     1      25.323  47.764  53.140  1.00  0.00    -0.290 OA
BRANCH   8  10
HETATM   10  C   UNL     1      27.065  46.255  53.620  1.00  0.00     0.011 A 
HETATM   11  C   UNL     1      27.438  44.912  53.486  1.00  0.00     0.015 A 
HETATM   12  C   UNL     1      28.357  44.357  54.380  1.00  0.00     0.001 A 
HETATM   13  C   UNL     1      28.905  45.138  55.397  1.00  0.00     0.000 A 
HETATM   14  C   UNL     1      28.549  46.479  55.520  1.00  0.00     0.001 A 
HETATM   15  C   UNL     1      27.634  47.042  54.629  1.00  0.00     0.015 A 
ENDBRANCH   8  10
ENDBRANCH   7   8
ENDBRANCH   4   7
BRANCH   3  16
HETATM   16  N   UNL     1      27.563  48.187  49.366  1.00  0.00    -0.234 N 
HETATM   17  H   UNL     1      28.186  48.782  49.884  1.00  0.00     0.174 HD
HETATM   18  H   UNL     1      27.982  47.399  48.869  1.00  0.00     0.174 HD
ENDBRANCH   3  16
BRANCH   6  19
HETATM   19  C   UNL     1      22.793  49.320  48.647  1.00  0.00    -0.004 A 
HETATM   20  C   UNL     1      21.915  48.478  47.943  1.00  0.00     0.053 A 
HETATM   21  C   UNL     1      20.737  49.019  47.468  1.00  0.00     0.106 A 
HETATM   22  C   UNL     1      20.413  50.338  47.658  1.00  0.00     0.105 A 
HETATM   23  O   UNL     1      19.781  48.343  46.777  1.00  0.00    -0.323 OA
HETATM   24  O   UNL     1      19.213  50.662  47.113  1.00  0.00    -0.323 OA
HETATM   25  C   UNL     1      21.256  51.195  48.329  1.00  0.00     0.040 A 
HETATM   26  C   UNL     1      18.813  49.393  46.553  1.00  0.00     0.352 A 
HETATM   27  C   UNL     1      22.462  50.678  48.822  1.00  0.00     0.017 A 
ENDBRANCH   6  19
TORSDOF 5
ENDMDL
MODEL 7
REMARK VINA RESULT:      -8.1      4.783      8.188
REMARK  5 active torsions:
REMARK  status: ('A' for Active; 'I' for Inactive)
REMARK    1  A    between atoms: C_3  and  N_4 
REMARK    2  A    between atoms: N_5  and  C_6 
REMARK    3  A    between atoms: C_6  and  C_7 
REMARK    4  A    between atoms: C_7  and  C_8 
REMARK    5  A    between atoms: C_16  and  C_17 
ROOT
HETATM    1  C   UNL     1      25.400  44.484  53.822  1.00  0.00     0.175 C 
HETATM    2  N   UNL     1      26.342  43.819  52.933  1.00  0.00    -0.186 N 
HETATM    3  C   UNL     1      26.005  43.268  51.770  1.00  0.00     0.680 A 
HETATM    4  N   UNL     1      27.108  42.942  51.107  1.00  0.00    -0.184 N 
HETATM    5  C   UNL     1      28.199  43.273  51.890  1.00  0.00     0.140 A 
HETATM    6  C   UNL     1      27.744  43.785  53.087  1.00  0.00     0.077 A 
ENDROOT
BRANCH   4   7
HETATM    7  C   UNL     1      27.200  42.255  49.803  1.00  0.00     0.231 C 
BRANCH   7   8
HETATM    8  C   UNL     1      26.870  40.771  49.899  1.00  0.00     0.178 C 
HETATM    9  O   UNL     1      25.707  40.382  50.043  1.00  0.00    -0.290 OA
BRANCH   8  10
HETATM   10  C   UNL     1      27.969  39.778  49.795  1.00  0.00     0.011 A 
HETATM   11  C   UNL     1      28.298  39.161  48.582  1.00  0.00     0.015 A 
HETATM   12  C   UNL     1      29.332  38.223  48.541  1.00  0.00     0.001 A 
HETATM   13  C   UNL     1      30.037  37.906  49.702  1.00  0.00     0.000 A 
HETATM   14  C   UNL     1      29.723  38.532  50.906  1.00  0.00     0.001 A 
HETATM   15  C   UNL     1      28.694  39.473  50.954  1.00  0.00     0.015 A 
ENDBRANCH   8  10
ENDBRANCH   7   8
ENDBRANCH   4   7
BRANCH   3  16
HETATM   16  N   UNL     1      24.759  43.091  51.343  1.00  0.00    -0.234 N 
HETATM   17  H   UNL     1      24.350  43.638  50.606  1.00  0.00     0.174 HD
HETATM   18  H   UNL     1      24.256  42.247  51.627  1.00  0.00     0.174 HD
ENDBRANCH   3  16
BRANCH   6  19
HETATM   19  C   UNL     1      28.623  44.201  54.240  1.00  0.00    -0.004 A 
HETATM   20  C   UNL     1      29.570  43.295  54.746  1.00  0.00     0.053 A 
HETATM   21  C   UNL     1      30.359  43.702  55.802  1.00  0.00     0.106 A 
HETATM   22  C   UNL     1      30.238  44.947  56.365  1.00  0.00     0.105 A 
HETATM   23  O   UNL     1      31.323  42.952  56.401  1.00  0.00    -0.323 OA
HETATM   24  O   UNL     1      31.108  45.142  57.388  1.00  0.00    -0.323 OA
HETATM   25  C   UNL     1      29.311  45.854  55.906  1.00  0.00     0.040 A 
HETATM   26  C   UNL     1      31.797  43.873  57.410  1.00  0.00     0.352 A 
HETATM   27  C   UNL     1      28.490  45.472  54.836  1.00  0.00     0.017 A 
ENDBRANCH   6  19
TORSDOF 5
ENDMDL
MODEL 8
REMARK VINA RESULT:      -8.1      2.552      8.439
REMARK  5 active torsions:
REMARK  status: ('A' for Active; 'I' for Inactive)
REMARK    1  A    between atoms: C_3  and  N_4 
REMARK    2  A    between atoms: N_5  and  C_6 
REMARK    3  A    between atoms: C_6  and  C_7 
REMARK    4  A    between atoms: C_7  and  C_8 
REMARK    5  A    between atoms: C_16  and  C_17 
ROOT
HETATM    1  C   UNL     1      28.218  40.983  53.216  1.00  0.00     0.175 C 
HETATM    2  N   UNL     1      27.939  42.293  52.645  1.00  0.00    -0.186 N 
HETATM    3  C   UNL     1      27.222  42.484  51.539  1.00  0.00     0.680 A 
HETATM    4  N   UNL     1      26.968  43.780  51.405  1.00  0.00    -0.184 N 
HETATM    5  C   UNL     1      27.571  44.452  52.453  1.00  0.00     0.140 A 
HETATM    6  C   UNL     1      28.246  43.537  53.234  1.00  0.00     0.077 A 
ENDROOT
BRANCH   4   7
HETATM    7  C   UNL     1      26.256  44.443  50.294  1.00  0.00     0.231 C 
BRANCH   7   8
HETATM    8  C   UNL     1      24.794  44.724  50.620  1.00  0.00     0.178 C 
HETATM    9  O   UNL     1      24.193  44.072  51.477  1.00  0.00    -0.290 OA
BRANCH   8  10
HETATM   10  C   UNL     1      24.092  45.818  49.902  1.00  0.00     0.011 A 
HETATM   11  C   UNL     1      23.073  45.563  48.977  1.00  0.00     0.015 A 
HETATM   12  C   UNL     1      22.454  46.628  48.317  1.00  0.00     0.001 A 
HETATM   13  C   UNL     1      22.846  47.940  48.584  1.00  0.00     0.000 A 
HETATM   14  C   UNL     1      23.848  48.197  49.518  1.00  0.00     0.001 A 
HETATM   15  C   UNL     1      24.468  47.138  50.183  1.00  0.00     0.015 A 
ENDBRANCH   8  10
ENDBRANCH   7   8
ENDBRANCH   4   7
BRANCH   3  16
HETATM   16  N   UNL     1      26.818  41.521  50.717  1.00  0.00    -0.234 N 
HETATM   17  H   UNL     1      25.855  41.392  50.458  1.00  0.00     0.174 HD
HETATM   18  H   UNL     1      27.517  41.016  50.169  1.00  0.00     0.174 HD
ENDBRANCH   3  16
BRANCH   6  19
HETATM   19  C   UNL     1      29.088  43.880  54.437  1.00  0.00    -0.004 A 
HETATM   20  C   UNL     1      28.714  44.962  55.252  1.00  0.00     0.053 A 
HETATM   21  C   UNL     1      29.504  45.256  56.345  1.00  0.00     0.106 A 
HETATM   22  C   UNL     1      30.629  44.531  56.646  1.00  0.00     0.105 A 
HETATM   23  O   UNL     1      29.280  46.261  57.233  1.00  0.00    -0.323 OA
HETATM   24  O   UNL     1      31.257  44.985  57.760  1.00  0.00    -0.323 OA
HETATM   25  C   UNL     1      31.033  43.474  55.862  1.00  0.00     0.040 A 
HETATM   26  C   UNL     1      30.399  46.085  58.132  1.00  0.00     0.352 A 
HETATM   27  C   UNL     1      30.255  43.152  54.741  1.00  0.00     0.017 A 
ENDBRANCH   6  19
TORSDOF 5
ENDMDL
MODEL 9
REMARK VINA RESULT:      -8.0      3.305      9.135
REMARK  5 active torsions:
REMARK  status: ('A' for Active; 'I' for Inactive)
REMARK    1  A    between atoms: C_3  and  N_4 
REMARK    2  A    between atoms: N_5  and  C_6 
REMARK    3  A    between atoms: C_6  and  C_7 
REMARK    4  A    between atoms: C_7  and  C_8 
REMARK    5  A    between atoms: C_16  and  C_17 
ROOT
HETATM    1  C   UNL     1      22.470  44.955  48.796  1.00  0.00     0.175 C 
HETATM    2  N   UNL     1      22.988  46.315  48.841  1.00  0.00    -0.186 N 
HETATM    3  C   UNL     1      22.368  47.364  48.308  1.00  0.00     0.680 A 
HETATM    4  N   UNL     1      22.977  48.476  48.702  1.00  0.00    -0.184 N 
HETATM    5  C   UNL     1      24.051  48.123  49.500  1.00  0.00     0.140 A 
HETATM    6  C   UNL     1      24.119  46.747  49.565  1.00  0.00     0.077 A 
ENDROOT
BRANCH   4   7
HETATM    7  C   UNL     1      22.660  49.862  48.303  1.00  0.00     0.231 C 
BRANCH   7   8
HETATM    8  C   UNL     1      22.045  50.672  49.438  1.00  0.00     0.178 C 
HETATM    9  O   UNL     1      22.733  51.090  50.373  1.00  0.00    -0.290 OA
BRANCH   8  10
HETATM   10  C   UNL     1      20.592  50.977  49.401  1.00  0.00     0.011 A 
HETATM   11  C   UNL     1      19.675  50.318  50.228  1.00  0.00     0.015 A 
HETATM   12  C   UNL     1      18.317  50.632  50.144  1.00  0.00     0.001 A 
HETATM   13  C   UNL     1      17.876  51.602  49.244  1.00  0.00     0.000 A 
HETATM   14  C   UNL     1      18.789  52.271  48.432  1.00  0.00     0.001 A 
HETATM   15  C   UNL     1      20.148  51.966  48.513  1.00  0.00     0.015 A 
ENDBRANCH   8  10
ENDBRANCH   7   8
ENDBRANCH   4   7
BRANCH   3  16
HETATM   16  N   UNL     1      21.301  47.299  47.519  1.00  0.00    -0.234 N 
HETATM   17  H   UNL     1      20.392  47.023  47.851  1.00  0.00     0.174 HD
HETATM   18  H   UNL     1      21.344  47.729  46.593  1.00  0.00     0.174 HD
ENDBRANCH   3  16
BRANCH   6  19
HETATM   19  C   UNL     1      25.192  45.967  50.283  1.00  0.00    -0.004 A 
HETATM   20  C   UNL     1      25.308  46.080  51.678  1.00  0.00     0.053 A 
HETATM   21  C   UNL     1      26.299  45.356  52.309  1.00  0.00     0.106 A 
HETATM   22  C   UNL     1      27.163  44.547  51.615  1.00  0.00     0.105 A 
HETATM   23  O   UNL     1      26.541  45.349  53.647  1.00  0.00    -0.323 OA
HETATM   24  O   UNL     1      28.058  43.927  52.426  1.00  0.00    -0.323 OA
HETATM   25  C   UNL     1      27.088  44.424  50.247  1.00  0.00     0.040 A 
HETATM   26  C   UNL     1      27.661  44.438  53.717  1.00  0.00     0.352 A 
HETATM   27  C   UNL     1      26.095  45.148  49.575  1.00  0.00     0.017 A 
ENDBRANCH   6  19
TORSDOF 5
ENDMDL
MODEL 10
REMARK VINA RESULT:      -7.9      2.672      4.097
REMARK  5 active torsions:
REMARK  status: ('A' for Active; 'I' for Inactive)
REMARK    1  A    between atoms: C_3  and  N_4 
REMARK    2  A    between atoms: N_5  and  C_6 
REMARK    3  A    between atoms: C_6  and  C_7 
REMARK    4  A    between atoms: C_7  and  C_8 
REMARK    5  A    between atoms: C_16  and  C_17 
ROOT
HETATM    1  C   UNL     1      22.283  45.832  47.599  1.00  0.00     0.175 C 
HETATM    2  N   UNL     1      23.177  46.194  48.690  1.00  0.00    -0.186 N 
HETATM    3  C   UNL     1      24.079  45.369  49.216  1.00  0.00     0.680 A 
HETATM    4  N   UNL     1      24.872  46.055  50.030  1.00  0.00    -0.184 N 
HETATM    5  C   UNL     1      24.443  47.370  50.049  1.00  0.00     0.140 A 
HETATM    6  C   UNL     1      23.328  47.482  49.245  1.00  0.00     0.077 A 
ENDROOT
BRANCH   4   7
HETATM    7  C   UNL     1      25.970  45.528  50.866  1.00  0.00     0.231 C 
BRANCH   7   8
HETATM    8  C   UNL     1      25.553  45.321  52.317  1.00  0.00     0.178 C 
HETATM    9  O   UNL     1      24.553  44.659  52.607  1.00  0.00    -0.290 OA
BRANCH   8  10
HETATM   10  C   UNL     1      26.381  45.913  53.398  1.00  0.00     0.011 A 
HETATM   11  C   UNL     1      26.157  47.208  53.879  1.00  0.00     0.015 A 
HETATM   12  C   UNL     1      26.974  47.724  54.887  1.00  0.00     0.001 A 
HETATM   13  C   UNL     1      28.007  46.950  55.416  1.00  0.00     0.000 A 
HETATM   14  C   UNL     1      28.221  45.654  54.951  1.00  0.00     0.001 A 
HETATM   15  C   UNL     1      27.406  45.131  53.946  1.00  0.00     0.015 A 
ENDBRANCH   8  10
ENDBRANCH   7   8
ENDBRANCH   4   7
BRANCH   3  16
HETATM   16  N   UNL     1      24.171  44.071  48.950  1.00  0.00    -0.234 N 
HETATM   17  H   UNL     1      24.118  43.362  49.661  1.00  0.00     0.174 HD
HETATM   18  H   UNL     1      24.095  43.760  47.980  1.00  0.00     0.174 HD
ENDBRANCH   3  16
BRANCH   6  19
HETATM   19  C   UNL     1      22.522  48.742  49.054  1.00  0.00    -0.004 A 
HETATM   20  C   UNL     1      21.120  48.677  49.105  1.00  0.00     0.053 A 
HETATM   21  C   UNL     1      20.407  49.845  48.925  1.00  0.00     0.106 A 
HETATM   22  C   UNL     1      21.026  51.047  48.694  1.00  0.00     0.105 A 
HETATM   23  O   UNL     1      19.052  49.954  48.952  1.00  0.00    -0.323 OA
HETATM   24  O   UNL     1      20.142  52.066  48.546  1.00  0.00    -0.323 OA
HETATM   25  C   UNL     1      22.397  51.146  48.621  1.00  0.00     0.040 A 
HETATM   26  C   UNL     1      18.888  51.370  48.710  1.00  0.00     0.352 A 
HETATM   27  C   UNL     1      23.150  49.977  48.797  1.00  0.00     0.017 A 
ENDBRANCH   6  19
TORSDOF 5
ENDMDL
