MODEL 1
REMARK VINA RESULT:     -10.4      0.000      0.000
REMARK  8 active torsions:
REMARK  status: ('A' for Active; 'I' for Inactive)
REMARK    1  A    between atoms: C_3  and  S_4 
REMARK    2  A    between atoms: S_4  and  C_5 
REMARK    3  A    between atoms: C_5  and  C_6 
REMARK       I    between atoms: C_6  and  N_7 
REMARK    4  A    between atoms: N_7  and  C_8 
REMARK    5  A    between atoms: C_8  and  C_9 
REMARK    6  A    between atoms: C_18  and  C_19 
REMARK    7  A    between atoms: C_19  and  O_20 
REMARK    8  A    between atoms: O_20  and  C_21 
ROOT
HETATM    1  C   UNL     1      24.788  44.316  50.598  1.00  0.00     0.160 C 
HETATM    2  N   UNL     1      25.176  45.473  51.364  1.00  0.00    -0.314 N 
HETATM    3  C   UNL     1      24.911  46.785  51.092  1.00  0.00     0.191 A 
HETATM    4  N   UNL     1      25.407  47.544  52.041  1.00  0.00    -0.123 NA
HETATM    5  N   UNL     1      26.044  46.729  52.940  1.00  0.00    -0.132 NA
HETATM    6  C   UNL     1      25.907  45.481  52.531  1.00  0.00     0.154 A 
ENDROOT
BRANCH   3   7
HETATM    7  S   UNL     1      24.092  47.344  49.678  1.00  0.00    -0.081 SA
BRANCH   7   8
HETATM    8  C   UNL     1      25.174  48.706  49.158  1.00  0.00     0.185 C 
BRANCH   8   9
HETATM    9  C   UNL     1      24.428  49.773  48.371  1.00  0.00     0.227 C 
HETATM   10  N   UNL     1      23.290  50.257  48.970  1.00  0.00    -0.356 N 
HETATM   11  H   UNL     1      23.010  49.861  49.866  1.00  0.00     0.162 HD
HETATM   12  O   UNL     1      24.795  50.121  47.250  1.00  0.00    -0.273 OA
BRANCH  10  13
HETATM   13  C   UNL     1      22.362  51.131  48.292  1.00  0.00     0.161 C 
BRANCH  13  14
HETATM   14  C   UNL     1      20.975  51.063  48.880  1.00  0.00    -0.041 A 
HETATM   15  C   UNL     1      20.669  50.090  49.844  1.00  0.00     0.009 A 
HETATM   16  C   UNL     1      19.399  50.035  50.422  1.00  0.00     0.001 A 
HETATM   17  C   UNL     1      18.420  50.952  50.045  1.00  0.00     0.000 A 
HETATM   18  C   UNL     1      18.711  51.925  49.092  1.00  0.00     0.001 A 
HETATM   19  C   UNL     1      19.982  51.985  48.516  1.00  0.00     0.009 A 
ENDBRANCH  13  14
ENDBRANCH  10  13
ENDBRANCH   8   9
ENDBRANCH   7   8
ENDBRANCH   3   7
BRANCH   6  20
HETATM   20  C   UNL     1      26.462  44.272  53.201  1.00  0.00     0.256 C 
BRANCH  20  21
HETATM   21  O   UNL     1      27.852  44.231  52.878  1.00  0.00    -0.344 OA
BRANCH  21  22
HETATM   22  C   UNL     1      28.698  44.187  53.953  1.00  0.00     0.069 A 
HETATM   23  C   UNL     1      28.632  45.038  55.057  1.00  0.00     0.044 A 
HETATM   24  C   UNL     1      29.556  44.916  56.109  1.00  0.00    -0.049 A 
HETATM   25  C   UNL     1      30.574  43.949  56.032  1.00  0.00    -0.052 A 
HETATM   26  C   UNL     1      29.476  45.880  57.269  1.00  0.00     0.039 C 
HETATM   27  C   UNL     1      31.567  43.754  57.152  1.00  0.00     0.039 C 
HETATM   28  C   UNL     1      30.635  43.106  54.914  1.00  0.00     0.010 A 
HETATM   29  C   UNL     1      31.654  44.955  58.093  1.00  0.00     0.005 C 
HETATM   30  C   UNL     1      30.261  45.418  58.496  1.00  0.00     0.005 C 
HETATM   31  C   UNL     1      29.711  43.234  53.877  1.00  0.00     0.037 A 
ENDBRANCH  21  22
ENDBRANCH  20  21
ENDBRANCH   6  20
TORSDOF 8
ENDMDL
MODEL 2
REMARK VINA RESULT:     -10.2      2.740      3.889
REMARK  8 active torsions:
REMARK  status: ('A' for Active; 'I' for Inactive)
REMARK    1  A    between atoms: C_3  and  S_4 
REMARK    2  A    between atoms: S_4  and  C_5 
REMARK    3  A    between atoms: C_5  and  C_6 
REMARK       I    between atoms: C_6  and  N_7 
REMARK    4  A    between atoms: N_7  and  C_8 
REMARK    5  A    between atoms: C_8  and  C_9 
REMARK    6  A    between atoms: C_18  and  C_19 
REMARK    7  A    between atoms: C_19  and  O_20 
REMARK    8  A    between atoms: O_20  and  C_21 
ROOT
HETATM    1  C   UNL     1      26.345  42.251  49.417  1.00  0.00     0.160 C 
HETATM    2  N   UNL     1      25.539  43.033  50.317  1.00  0.00    -0.314 N 
HETATM    3  C   UNL     1      24.329  43.617  50.067  1.00  0.00     0.191 A 
HETATM    4  N   UNL     1      23.896  44.222  51.148  1.00  0.00    -0.123 NA
HETATM    5  N   UNL     1      24.847  44.072  52.122  1.00  0.00    -0.132 NA
HETATM    6  C   UNL     1      25.838  43.357  51.622  1.00  0.00     0.154 A 
ENDROOT
BRANCH   3   7
HETATM    7  S   UNL     1      23.531  43.595  48.535  1.00  0.00    -0.081 SA
BRANCH   7   8
HETATM    8  C   UNL     1      22.180  44.773  48.824  1.00  0.00     0.185 C 
BRANCH   8   9
HETATM    9  C   UNL     1      22.542  46.188  48.401  1.00  0.00     0.227 C 
HETATM   10  N   UNL     1      23.087  46.975  49.386  1.00  0.00    -0.356 N 
HETATM   11  H   UNL     1      23.187  46.580  50.319  1.00  0.00     0.162 HD
HETATM   12  O   UNL     1      22.298  46.604  47.269  1.00  0.00    -0.273 OA
BRANCH  10  13
HETATM   13  C   UNL     1      23.318  48.390  49.217  1.00  0.00     0.161 C 
BRANCH  13  14
HETATM   14  C   UNL     1      24.786  48.727  49.150  1.00  0.00    -0.041 A 
HETATM   15  C   UNL     1      25.723  47.917  49.810  1.00  0.00     0.009 A 
HETATM   16  C   UNL     1      27.089  48.198  49.730  1.00  0.00     0.001 A 
HETATM   17  C   UNL     1      27.535  49.290  48.990  1.00  0.00     0.000 A 
HETATM   18  C   UNL     1      26.617  50.101  48.327  1.00  0.00     0.001 A 
HETATM   19  C   UNL     1      25.251  49.820  48.401  1.00  0.00     0.009 A 
ENDBRANCH  13  14
ENDBRANCH  10  13
ENDBRANCH   8   9
ENDBRANCH   7   8
ENDBRANCH   3   7
BRANCH   6  20
HETATM   20  C   UNL     1      27.090  42.973  52.332  1.00  0.00     0.256 C 
BRANCH  20  21
HETATM   21  O   UNL     1      27.796  44.186  52.595  1.00  0.00    -0.344 OA
BRANCH  21  22
HETATM   22  C   UNL     1      28.616  44.154  53.690  1.00  0.00     0.069 A 
HETATM   23  C   UNL     1      28.552  45.045  54.763  1.00  0.00     0.044 A 
HETATM   24  C   UNL     1      29.449  44.933  55.839  1.00  0.00    -0.049 A 
HETATM   25  C   UNL     1      30.440  43.935  55.818  1.00  0.00    -0.052 A 
HETATM   26  C   UNL     1      29.372  45.938  56.964  1.00  0.00     0.039 C 
HETATM   27  C   UNL     1      31.402  43.751  56.966  1.00  0.00     0.039 C 
HETATM   28  C   UNL     1      30.500  43.052  54.731  1.00  0.00     0.010 A 
HETATM   29  C   UNL     1      31.504  44.981  57.867  1.00  0.00     0.005 C 
HETATM   30  C   UNL     1      30.116  45.497  58.223  1.00  0.00     0.005 C 
HETATM   31  C   UNL     1      29.603  43.171  53.670  1.00  0.00     0.037 A 
ENDBRANCH  21  22
ENDBRANCH  20  21
ENDBRANCH   6  20
TORSDOF 8
ENDMDL
MODEL 3
REMARK VINA RESULT:     -10.1      1.436      1.841
REMARK  8 active torsions:
REMARK  status: ('A' for Active; 'I' for Inactive)
REMARK    1  A    between atoms: C_3  and  S_4 
REMARK    2  A    between atoms: S_4  and  C_5 
REMARK    3  A    between atoms: C_5  and  C_6 
REMARK       I    between atoms: C_6  and  N_7 
REMARK    4  A    between atoms: N_7  and  C_8 
REMARK    5  A    between atoms: C_8  and  C_9 
REMARK    6  A    between atoms: C_18  and  C_19 
REMARK    7  A    between atoms: C_19  and  O_20 
REMARK    8  A    between atoms: O_20  and  C_21 
ROOT
HETATM    1  C   UNL     1      24.556  44.009  51.397  1.00  0.00     0.160 C 
HETATM    2  N   UNL     1      24.899  45.406  51.444  1.00  0.00    -0.314 N 
HETATM    3  C   UNL     1      24.527  46.390  50.572  1.00  0.00     0.191 A 
HETATM    4  N   UNL     1      25.015  47.543  50.969  1.00  0.00    -0.123 NA
HETATM    5  N   UNL     1      25.754  47.318  52.100  1.00  0.00    -0.132 NA
HETATM    6  C   UNL     1      25.686  46.031  52.386  1.00  0.00     0.154 A 
ENDROOT
BRANCH   3   7
HETATM    7  S   UNL     1      23.598  46.128  49.141  1.00  0.00    -0.081 SA
BRANCH   7   8
HETATM    8  C   UNL     1      23.178  47.831  48.674  1.00  0.00     0.185 C 
BRANCH   8   9
HETATM    9  C   UNL     1      21.686  48.020  48.446  1.00  0.00     0.227 C 
HETATM   10  N   UNL     1      21.002  48.604  49.485  1.00  0.00    -0.356 N 
HETATM   11  H   UNL     1      21.519  48.843  50.329  1.00  0.00     0.162 HD
HETATM   12  O   UNL     1      21.134  47.615  47.424  1.00  0.00    -0.273 OA
BRANCH  10  13
HETATM   13  C   UNL     1      19.561  48.692  49.519  1.00  0.00     0.161 C 
BRANCH  13  14
HETATM   14  C   UNL     1      19.070  50.112  49.383  1.00  0.00    -0.041 A 
HETATM   15  C   UNL     1      19.800  51.037  48.621  1.00  0.00     0.009 A 
HETATM   16  C   UNL     1      19.340  52.346  48.458  1.00  0.00     0.001 A 
HETATM   17  C   UNL     1      18.146  52.746  49.054  1.00  0.00     0.000 A 
HETATM   18  C   UNL     1      17.410  51.837  49.811  1.00  0.00     0.001 A 
HETATM   19  C   UNL     1      17.865  50.526  49.971  1.00  0.00     0.009 A 
ENDBRANCH  13  14
ENDBRANCH  10  13
ENDBRANCH   8   9
ENDBRANCH   7   8
ENDBRANCH   3   7
BRANCH   6  20
HETATM   20  C   UNL     1      26.360  45.348  53.525  1.00  0.00     0.256 C 
BRANCH  20  21
HETATM   21  O   UNL     1      27.637  44.923  53.046  1.00  0.00    -0.344 OA
BRANCH  21  22
HETATM   22  C   UNL     1      28.545  44.602  54.018  1.00  0.00     0.069 A 
HETATM   23  C   UNL     1      28.790  45.359  55.165  1.00  0.00     0.044 A 
HETATM   24  C   UNL     1      29.754  44.946  56.101  1.00  0.00    -0.049 A 
HETATM   25  C   UNL     1      30.499  43.778  55.863  1.00  0.00    -0.052 A 
HETATM   26  C   UNL     1      30.016  45.811  57.311  1.00  0.00     0.039 C 
HETATM   27  C   UNL     1      31.517  43.273  56.856  1.00  0.00     0.039 C 
HETATM   28  C   UNL     1      30.250  43.030  54.703  1.00  0.00     0.010 A 
HETATM   29  C   UNL     1      31.978  44.346  57.842  1.00  0.00     0.005 C 
HETATM   30  C   UNL     1      30.780  45.089  58.419  1.00  0.00     0.005 C 
HETATM   31  C   UNL     1      29.289  43.449  53.783  1.00  0.00     0.037 A 
ENDBRANCH  21  22
ENDBRANCH  20  21
ENDBRANCH   6  20
TORSDOF 8
ENDMDL
MODEL 4
REMARK VINA RESULT:      -9.9      1.406      1.551
REMARK  8 active torsions:
REMARK  status: ('A' for Active; 'I' for Inactive)
REMARK    1  A    between atoms: C_3  and  S_4 
REMARK    2  A    between atoms: S_4  and  C_5 
REMARK    3  A    between atoms: C_5  and  C_6 
REMARK       I    between atoms: C_6  and  N_7 
REMARK    4  A    between atoms: N_7  and  C_8 
REMARK    5  A    between atoms: C_8  and  C_9 
REMARK    6  A    between atoms: C_18  and  C_19 
REMARK    7  A    between atoms: C_19  and  O_20 
REMARK    8  A    between atoms: O_20  and  C_21 
ROOT
HETATM    1  C   UNL     1      26.769  45.103  49.752  1.00  0.00     0.160 C 
HETATM    2  N   UNL     1      25.736  44.660  50.651  1.00  0.00    -0.314 N 
HETATM    3  C   UNL     1      24.395  44.915  50.579  1.00  0.00     0.191 A 
HETATM    4  N   UNL     1      23.775  44.312  51.567  1.00  0.00    -0.123 NA
HETATM    5  N   UNL     1      24.720  43.676  52.330  1.00  0.00    -0.132 NA
HETATM    6  C   UNL     1      25.902  43.887  51.780  1.00  0.00     0.154 A 
ENDROOT
BRANCH   3   7
HETATM    7  S   UNL     1      23.655  45.924  49.390  1.00  0.00    -0.081 SA
BRANCH   7   8
HETATM    8  C   UNL     1      24.117  47.574  49.990  1.00  0.00     0.185 C 
BRANCH   8   9
HETATM    9  C   UNL     1      23.307  48.680  49.333  1.00  0.00     0.227 C 
HETATM   10  N   UNL     1      22.276  48.255  48.529  1.00  0.00    -0.356 N 
HETATM   11  H   UNL     1      22.141  47.253  48.407  1.00  0.00     0.162 HD
HETATM   12  O   UNL     1      23.605  49.866  49.469  1.00  0.00    -0.273 OA
BRANCH  10  13
HETATM   13  C   UNL     1      21.523  49.152  47.685  1.00  0.00     0.161 C 
BRANCH  13  14
HETATM   14  C   UNL     1      20.516  49.961  48.463  1.00  0.00    -0.041 A 
HETATM   15  C   UNL     1      19.749  49.350  49.467  1.00  0.00     0.009 A 
HETATM   16  C   UNL     1      18.836  50.093  50.218  1.00  0.00     0.001 A 
HETATM   17  C   UNL     1      18.679  51.456  49.976  1.00  0.00     0.000 A 
HETATM   18  C   UNL     1      19.435  52.077  48.985  1.00  0.00     0.001 A 
HETATM   19  C   UNL     1      20.352  51.337  48.236  1.00  0.00     0.009 A 
ENDBRANCH  13  14
ENDBRANCH  10  13
ENDBRANCH   8   9
ENDBRANCH   7   8
ENDBRANCH   3   7
BRANCH   6  20
HETATM   20  C   UNL     1      27.209  43.395  52.294  1.00  0.00     0.256 C 
BRANCH  20  21
HETATM   21  O   UNL     1      27.937  44.546  52.723  1.00  0.00    -0.344 OA
BRANCH  21  22
HETATM   22  C   UNL     1      28.747  44.350  53.808  1.00  0.00     0.069 A 
HETATM   23  C   UNL     1      28.823  45.199  54.914  1.00  0.00     0.044 A 
HETATM   24  C   UNL     1      29.697  44.913  55.977  1.00  0.00    -0.049 A 
HETATM   25  C   UNL     1      30.525  43.777  55.909  1.00  0.00    -0.052 A 
HETATM   26  C   UNL     1      29.777  45.875  57.138  1.00  0.00     0.039 C 
HETATM   27  C   UNL     1      31.452  43.407  57.042  1.00  0.00     0.039 C 
HETATM   28  C   UNL     1      30.446  42.937  54.790  1.00  0.00     0.010 A 
HETATM   29  C   UNL     1      31.743  44.572  57.986  1.00  0.00     0.005 C 
HETATM   30  C   UNL     1      30.451  45.279  58.373  1.00  0.00     0.005 C 
HETATM   31  C   UNL     1      29.573  43.230  53.743  1.00  0.00     0.037 A 
ENDBRANCH  21  22
ENDBRANCH  20  21
ENDBRANCH   6  20
TORSDOF 8
ENDMDL
MODEL 5
REMARK VINA RESULT:      -9.7      2.194      3.126
REMARK  8 active torsions:
REMARK  status: ('A' for Active; 'I' for Inactive)
REMARK    1  A    between atoms: C_3  and  S_4 
REMARK    2  A    between atoms: S_4  and  C_5 
REMARK    3  A    between atoms: C_5  and  C_6 
REMARK       I    between atoms: C_6  and  N_7 
REMARK    4  A    between atoms: N_7  and  C_8 
REMARK    5  A    between atoms: C_8  and  C_9 
REMARK    6  A    between atoms: C_18  and  C_19 
REMARK    7  A    between atoms: C_19  and  O_20 
REMARK    8  A    between atoms: O_20  and  C_21 
ROOT
HETATM    1  C   UNL     1      26.418  45.953  49.936  1.00  0.00     0.160 C 
HETATM    2  N   UNL     1      25.569  45.055  50.677  1.00  0.00    -0.314 N 
HETATM    3  C   UNL     1      24.468  44.382  50.229  1.00  0.00     0.191 A 
HETATM    4  N   UNL     1      23.979  43.638  51.194  1.00  0.00    -0.123 NA
HETATM    5  N   UNL     1      24.744  43.846  52.312  1.00  0.00    -0.132 NA
HETATM    6  C   UNL     1      25.701  44.701  52.001  1.00  0.00     0.154 A 
ENDROOT
BRANCH   3   7
HETATM    7  S   UNL     1      23.802  44.542  48.643  1.00  0.00    -0.081 SA
BRANCH   7   8
HETATM    8  C   UNL     1      22.104  43.959  48.912  1.00  0.00     0.185 C 
BRANCH   8   9
HETATM    9  C   UNL     1      21.071  45.051  48.679  1.00  0.00     0.227 C 
HETATM   10  N   UNL     1      21.558  46.336  48.706  1.00  0.00    -0.356 N 
HETATM   11  H   UNL     1      22.548  46.473  48.902  1.00  0.00     0.162 HD
HETATM   12  O   UNL     1      19.877  44.789  48.541  1.00  0.00    -0.273 OA
BRANCH  10  13
HETATM   13  C   UNL     1      20.699  47.496  48.689  1.00  0.00     0.161 C 
BRANCH  13  14
HETATM   14  C   UNL     1      21.479  48.785  48.613  1.00  0.00    -0.041 A 
HETATM   15  C   UNL     1      20.801  50.010  48.520  1.00  0.00     0.009 A 
HETATM   16  C   UNL     1      21.507  51.214  48.483  1.00  0.00     0.001 A 
HETATM   17  C   UNL     1      22.899  51.209  48.539  1.00  0.00     0.000 A 
HETATM   18  C   UNL     1      23.585  50.000  48.634  1.00  0.00     0.001 A 
HETATM   19  C   UNL     1      22.881  48.795  48.677  1.00  0.00     0.009 A 
ENDBRANCH  13  14
ENDBRANCH  10  13
ENDBRANCH   8   9
ENDBRANCH   7   8
ENDBRANCH   3   7
BRANCH   6  20
HETATM   20  C   UNL     1      26.746  45.223  52.925  1.00  0.00     0.256 C 
BRANCH  20  21
HETATM   21  O   UNL     1      27.904  44.411  52.729  1.00  0.00    -0.344 OA
BRANCH  21  22
HETATM   22  C   UNL     1      28.717  44.283  53.823  1.00  0.00     0.069 A 
HETATM   23  C   UNL     1      28.717  45.143  54.923  1.00  0.00     0.044 A 
HETATM   24  C   UNL     1      29.601  44.930  55.995  1.00  0.00    -0.049 A 
HETATM   25  C   UNL     1      30.512  43.861  55.944  1.00  0.00    -0.052 A 
HETATM   26  C   UNL     1      29.598  45.903  57.150  1.00  0.00     0.039 C 
HETATM   27  C   UNL     1      31.454  43.568  57.087  1.00  0.00     0.039 C 
HETATM   28  C   UNL     1      30.508  43.009  54.830  1.00  0.00     0.010 A 
HETATM   29  C   UNL     1      31.648  44.758  58.025  1.00  0.00     0.005 C 
HETATM   30  C   UNL     1      30.302  45.369  58.396  1.00  0.00     0.005 C 
HETATM   31  C   UNL     1      29.625  43.229  53.773  1.00  0.00     0.037 A 
ENDBRANCH  21  22
ENDBRANCH  20  21
ENDBRANCH   6  20
TORSDOF 8
ENDMDL
MODEL 6
REMARK VINA RESULT:      -9.7      2.223      3.286
REMARK  8 active torsions:
REMARK  status: ('A' for Active; 'I' for Inactive)
REMARK    1  A    between atoms: C_3  and  S_4 
REMARK    2  A    between atoms: S_4  and  C_5 
REMARK    3  A    between atoms: C_5  and  C_6 
REMARK       I    between atoms: C_6  and  N_7 
REMARK    4  A    between atoms: N_7  and  C_8 
REMARK    5  A    between atoms: C_8  and  C_9 
REMARK    6  A    between atoms: C_18  and  C_19 
REMARK    7  A    between atoms: C_19  and  O_20 
REMARK    8  A    between atoms: O_20  and  C_21 
ROOT
HETATM    1  C   UNL     1      24.042  44.697  49.044  1.00  0.00     0.160 C 
HETATM    2  N   UNL     1      24.134  46.030  49.582  1.00  0.00    -0.314 N 
HETATM    3  C   UNL     1      23.429  47.137  49.203  1.00  0.00     0.191 A 
HETATM    4  N   UNL     1      23.774  48.160  49.950  1.00  0.00    -0.123 NA
HETATM    5  N   UNL     1      24.749  47.738  50.814  1.00  0.00    -0.132 NA
HETATM    6  C   UNL     1      24.968  46.454  50.592  1.00  0.00     0.154 A 
ENDROOT
BRANCH   3   7
HETATM    7  S   UNL     1      22.298  47.177  47.899  1.00  0.00    -0.081 SA
BRANCH   7   8
HETATM    8  C   UNL     1      20.873  46.331  48.640  1.00  0.00     0.185 C 
BRANCH   8   9
HETATM    9  C   UNL     1      19.711  47.274  48.907  1.00  0.00     0.227 C 
HETATM   10  N   UNL     1      19.892  48.151  49.949  1.00  0.00    -0.356 N 
HETATM   11  H   UNL     1      20.760  48.096  50.480  1.00  0.00     0.162 HD
HETATM   12  O   UNL     1      18.663  47.202  48.267  1.00  0.00    -0.273 OA
BRANCH  10  13
HETATM   13  C   UNL     1      18.832  48.987  50.460  1.00  0.00     0.161 C 
BRANCH  13  14
HETATM   14  C   UNL     1      18.770  50.323  49.764  1.00  0.00    -0.041 A 
HETATM   15  C   UNL     1      17.630  51.131  49.897  1.00  0.00     0.009 A 
HETATM   16  C   UNL     1      17.571  52.386  49.287  1.00  0.00     0.001 A 
HETATM   17  C   UNL     1      18.650  52.849  48.537  1.00  0.00     0.000 A 
HETATM   18  C   UNL     1      19.789  52.060  48.399  1.00  0.00     0.001 A 
HETATM   19  C   UNL     1      19.853  50.807  49.013  1.00  0.00     0.009 A 
ENDBRANCH  13  14
ENDBRANCH  10  13
ENDBRANCH   8   9
ENDBRANCH   7   8
ENDBRANCH   3   7
BRANCH   6  20
HETATM   20  C   UNL     1      25.963  45.599  51.295  1.00  0.00     0.256 C 
BRANCH  20  21
HETATM   21  O   UNL     1      25.700  45.733  52.692  1.00  0.00    -0.344 OA
BRANCH  21  22
HETATM   22  C   UNL     1      26.799  45.641  53.502  1.00  0.00     0.069 A 
HETATM   23  C   UNL     1      27.592  44.501  53.646  1.00  0.00     0.044 A 
HETATM   24  C   UNL     1      28.698  44.505  54.514  1.00  0.00    -0.049 A 
HETATM   25  C   UNL     1      28.988  45.658  55.266  1.00  0.00    -0.052 A 
HETATM   26  C   UNL     1      29.510  43.242  54.671  1.00  0.00     0.039 C 
HETATM   27  C   UNL     1      30.186  45.724  56.182  1.00  0.00     0.039 C 
HETATM   28  C   UNL     1      28.179  46.794  55.119  1.00  0.00     0.010 A 
HETATM   29  C   UNL     1      30.730  44.348  56.560  1.00  0.00     0.005 C 
HETATM   30  C   UNL     1      30.873  43.474  55.321  1.00  0.00     0.005 C 
HETATM   31  C   UNL     1      27.086  46.778  54.253  1.00  0.00     0.037 A 
ENDBRANCH  21  22
ENDBRANCH  20  21
ENDBRANCH   6  20
TORSDOF 8
ENDMDL
MODEL 7
REMARK VINA RESULT:      -9.6      1.359      1.872
REMARK  8 active torsions:
REMARK  status: ('A' for Active; 'I' for Inactive)
REMARK    1  A    between atoms: C_3  and  S_4 
REMARK    2  A    between atoms: S_4  and  C_5 
REMARK    3  A    between atoms: C_5  and  C_6 
REMARK       I    between atoms: C_6  and  N_7 
REMARK    4  A    between atoms: N_7  and  C_8 
REMARK    5  A    between atoms: C_8  and  C_9 
REMARK    6  A    between atoms: C_18  and  C_19 
REMARK    7  A    between atoms: C_19  and  O_20 
REMARK    8  A    between atoms: O_20  and  C_21 
ROOT
HETATM    1  C   UNL     1      23.552  44.605  49.710  1.00  0.00     0.160 C 
HETATM    2  N   UNL     1      24.136  45.802  50.255  1.00  0.00    -0.314 N 
HETATM    3  C   UNL     1      23.925  47.093  49.861  1.00  0.00     0.191 A 
HETATM    4  N   UNL     1      24.617  47.909  50.621  1.00  0.00    -0.123 NA
HETATM    5  N   UNL     1      25.330  47.149  51.511  1.00  0.00    -0.132 NA
HETATM    6  C   UNL     1      25.042  45.879  51.290  1.00  0.00     0.154 A 
ENDROOT
BRANCH   3   7
HETATM    7  S   UNL     1      22.932  47.557  48.526  1.00  0.00    -0.081 SA
BRANCH   7   8
HETATM    8  C   UNL     1      23.481  49.266  48.255  1.00  0.00     0.185 C 
BRANCH   8   9
HETATM    9  C   UNL     1      22.836  50.244  49.225  1.00  0.00     0.227 C 
HETATM   10  N   UNL     1      21.585  49.892  49.670  1.00  0.00    -0.356 N 
HETATM   11  H   UNL     1      21.168  49.035  49.310  1.00  0.00     0.162 HD
HETATM   12  O   UNL     1      23.383  51.303  49.530  1.00  0.00    -0.273 OA
BRANCH  10  13
HETATM   13  C   UNL     1      20.752  50.782  50.443  1.00  0.00     0.161 C 
BRANCH  13  14
HETATM   14  C   UNL     1      19.543  51.249  49.674  1.00  0.00    -0.041 A 
HETATM   15  C   UNL     1      18.257  50.866  50.086  1.00  0.00     0.009 A 
HETATM   16  C   UNL     1      17.126  51.318  49.404  1.00  0.00     0.001 A 
HETATM   17  C   UNL     1      17.264  52.158  48.302  1.00  0.00     0.000 A 
HETATM   18  C   UNL     1      18.533  52.550  47.883  1.00  0.00     0.001 A 
HETATM   19  C   UNL     1      19.666  52.104  48.567  1.00  0.00     0.009 A 
ENDBRANCH  13  14
ENDBRANCH  10  13
ENDBRANCH   8   9
ENDBRANCH   7   8
ENDBRANCH   3   7
BRANCH   6  20
HETATM   20  C   UNL     1      25.610  44.711  52.018  1.00  0.00     0.256 C 
BRANCH  20  21
HETATM   21  O   UNL     1      25.781  45.121  53.375  1.00  0.00    -0.344 OA
BRANCH  21  22
HETATM   22  C   UNL     1      26.961  44.738  53.953  1.00  0.00     0.069 A 
HETATM   23  C   UNL     1      27.637  45.457  54.940  1.00  0.00     0.044 A 
HETATM   24  C   UNL     1      28.851  44.981  55.465  1.00  0.00    -0.049 A 
HETATM   25  C   UNL     1      29.403  43.786  54.969  1.00  0.00    -0.052 A 
HETATM   26  C   UNL     1      29.572  45.805  56.505  1.00  0.00     0.039 C 
HETATM   27  C   UNL     1      30.683  43.214  55.527  1.00  0.00     0.039 C 
HETATM   28  C   UNL     1      28.718  43.077  53.972  1.00  0.00     0.010 A 
HETATM   29  C   UNL     1      31.519  44.243  56.287  1.00  0.00     0.005 C 
HETATM   30  C   UNL     1      30.646  45.024  57.260  1.00  0.00     0.005 C 
HETATM   31  C   UNL     1      27.513  43.558  53.460  1.00  0.00     0.037 A 
ENDBRANCH  21  22
ENDBRANCH  20  21
ENDBRANCH   6  20
TORSDOF 8
ENDMDL
MODEL 8
REMARK VINA RESULT:      -9.3      2.068     11.252
REMARK  8 active torsions:
REMARK  status: ('A' for Active; 'I' for Inactive)
REMARK    1  A    between atoms: C_3  and  S_4 
REMARK    2  A    between atoms: S_4  and  C_5 
REMARK    3  A    between atoms: C_5  and  C_6 
REMARK       I    between atoms: C_6  and  N_7 
REMARK    4  A    between atoms: N_7  and  C_8 
REMARK    5  A    between atoms: C_8  and  C_9 
REMARK    6  A    between atoms: C_18  and  C_19 
REMARK    7  A    between atoms: C_19  and  O_20 
REMARK    8  A    between atoms: O_20  and  C_21 
ROOT
HETATM    1  C   UNL     1      26.460  46.640  49.972  1.00  0.00     0.160 C 
HETATM    2  N   UNL     1      25.250  45.949  49.610  1.00  0.00    -0.314 N 
HETATM    3  C   UNL     1      25.066  44.603  49.461  1.00  0.00     0.191 A 
HETATM    4  N   UNL     1      23.813  44.358  49.153  1.00  0.00    -0.123 NA
HETATM    5  N   UNL     1      23.162  45.560  49.058  1.00  0.00    -0.132 NA
HETATM    6  C   UNL     1      24.028  46.519  49.332  1.00  0.00     0.154 A 
ENDROOT
BRANCH   3   7
HETATM    7  S   UNL     1      26.317  43.423  49.609  1.00  0.00    -0.081 SA
BRANCH   7   8
HETATM    8  C   UNL     1      25.946  42.715  51.239  1.00  0.00     0.185 C 
BRANCH   8   9
HETATM    9  C   UNL     1      25.937  43.765  52.340  1.00  0.00     0.227 C 
HETATM   10  N   UNL     1      27.170  44.252  52.698  1.00  0.00    -0.356 N 
HETATM   11  H   UNL     1      27.993  43.870  52.235  1.00  0.00     0.162 HD
HETATM   12  O   UNL     1      24.895  44.097  52.904  1.00  0.00    -0.273 OA
BRANCH  10  13
HETATM   13  C   UNL     1      27.369  45.110  53.842  1.00  0.00     0.161 C 
BRANCH  13  14
HETATM   14  C   UNL     1      28.621  44.764  54.608  1.00  0.00    -0.041 A 
HETATM   15  C   UNL     1      29.308  43.573  54.328  1.00  0.00     0.009 A 
HETATM   16  C   UNL     1      30.487  43.255  55.005  1.00  0.00     0.001 A 
HETATM   17  C   UNL     1      30.995  44.123  55.969  1.00  0.00     0.000 A 
HETATM   18  C   UNL     1      30.325  45.310  56.255  1.00  0.00     0.001 A 
HETATM   19  C   UNL     1      29.149  45.633  55.575  1.00  0.00     0.009 A 
ENDBRANCH  13  14
ENDBRANCH  10  13
ENDBRANCH   8   9
ENDBRANCH   7   8
ENDBRANCH   3   7
BRANCH   6  20
HETATM   20  C   UNL     1      23.749  47.982  49.324  1.00  0.00     0.256 C 
BRANCH  20  21
HETATM   21  O   UNL     1      23.147  48.275  48.063  1.00  0.00    -0.344 OA
BRANCH  21  22
HETATM   22  C   UNL     1      22.127  49.186  48.103  1.00  0.00     0.069 A 
HETATM   23  C   UNL     1      20.861  48.993  47.547  1.00  0.00     0.044 A 
HETATM   24  C   UNL     1      19.882  49.999  47.634  1.00  0.00    -0.049 A 
HETATM   25  C   UNL     1      20.193  51.220  48.259  1.00  0.00    -0.052 A 
HETATM   26  C   UNL     1      18.537  49.768  46.988  1.00  0.00     0.039 C 
HETATM   27  C   UNL     1      19.165  52.314  48.411  1.00  0.00     0.039 C 
HETATM   28  C   UNL     1      21.471  51.404  48.806  1.00  0.00     0.010 A 
HETATM   29  C   UNL     1      17.985  52.168  47.452  1.00  0.00     0.005 C 
HETATM   30  C   UNL     1      17.459  50.739  47.468  1.00  0.00     0.005 C 
HETATM   31  C   UNL     1      22.433  50.398  48.716  1.00  0.00     0.037 A 
ENDBRANCH  21  22
ENDBRANCH  20  21
ENDBRANCH   6  20
TORSDOF 8
ENDMDL
MODEL 9
REMARK VINA RESULT:      -9.2      2.445      3.259
REMARK  8 active torsions:
REMARK  status: ('A' for Active; 'I' for Inactive)
REMARK    1  A    between atoms: C_3  and  S_4 
REMARK    2  A    between atoms: S_4  and  C_5 
REMARK    3  A    between atoms: C_5  and  C_6 
REMARK       I    between atoms: C_6  and  N_7 
REMARK    4  A    between atoms: N_7  and  C_8 
REMARK    5  A    between atoms: C_8  and  C_9 
REMARK    6  A    between atoms: C_18  and  C_19 
REMARK    7  A    between atoms: C_19  and  O_20 
REMARK    8  A    between atoms: O_20  and  C_21 
ROOT
HETATM    1  C   UNL     1      25.866  41.762  50.347  1.00  0.00     0.160 C 
HETATM    2  N   UNL     1      25.166  42.874  50.934  1.00  0.00    -0.314 N 
HETATM    3  C   UNL     1      23.986  43.430  50.528  1.00  0.00     0.191 A 
HETATM    4  N   UNL     1      23.655  44.410  51.337  1.00  0.00    -0.123 NA
HETATM    5  N   UNL     1      24.648  44.533  52.274  1.00  0.00    -0.132 NA
HETATM    6  C   UNL     1      25.559  43.609  52.030  1.00  0.00     0.154 A 
ENDROOT
BRANCH   3   7
HETATM    7  S   UNL     1      23.104  42.938  49.127  1.00  0.00    -0.081 SA
BRANCH   7   8
HETATM    8  C   UNL     1      22.903  44.521  48.261  1.00  0.00     0.185 C 
BRANCH   8   9
HETATM    9  C   UNL     1      21.481  45.053  48.345  1.00  0.00     0.227 C 
HETATM   10  N   UNL     1      21.361  46.421  48.299  1.00  0.00    -0.356 N 
HETATM   11  H   UNL     1      22.212  46.978  48.241  1.00  0.00     0.162 HD
HETATM   12  O   UNL     1      20.521  44.301  48.507  1.00  0.00    -0.273 OA
BRANCH  10  13
HETATM   13  C   UNL     1      20.115  47.105  48.550  1.00  0.00     0.161 C 
BRANCH  13  14
HETATM   14  C   UNL     1      20.304  48.587  48.749  1.00  0.00    -0.041 A 
HETATM   15  C   UNL     1      21.063  49.328  47.830  1.00  0.00     0.009 A 
HETATM   16  C   UNL     1      21.219  50.707  47.982  1.00  0.00     0.001 A 
HETATM   17  C   UNL     1      20.619  51.363  49.055  1.00  0.00     0.000 A 
HETATM   18  C   UNL     1      19.861  50.642  49.974  1.00  0.00     0.001 A 
HETATM   19  C   UNL     1      19.699  49.263  49.820  1.00  0.00     0.009 A 
ENDBRANCH  13  14
ENDBRANCH  10  13
ENDBRANCH   8   9
ENDBRANCH   7   8
ENDBRANCH   3   7
BRANCH   6  20
HETATM   20  C   UNL     1      26.820  43.398  52.794  1.00  0.00     0.256 C 
BRANCH  20  21
HETATM   21  O   UNL     1      27.457  44.672  52.888  1.00  0.00    -0.344 OA
BRANCH  21  22
HETATM   22  C   UNL     1      28.238  44.851  53.997  1.00  0.00     0.069 A 
HETATM   23  C   UNL     1      29.204  43.949  54.449  1.00  0.00     0.044 A 
HETATM   24  C   UNL     1      29.950  44.223  55.609  1.00  0.00    -0.049 A 
HETATM   25  C   UNL     1      29.697  45.399  56.336  1.00  0.00    -0.052 A 
HETATM   26  C   UNL     1      30.959  43.206  56.086  1.00  0.00     0.039 C 
HETATM   27  C   UNL     1      30.497  45.756  57.565  1.00  0.00     0.039 C 
HETATM   28  C   UNL     1      28.719  46.293  55.878  1.00  0.00     0.010 A 
HETATM   29  C   UNL     1      31.221  44.558  58.179  1.00  0.00     0.005 C 
HETATM   30  C   UNL     1      31.952  43.768  57.102  1.00  0.00     0.005 C 
HETATM   31  C   UNL     1      27.987  46.012  54.724  1.00  0.00     0.037 A 
ENDBRANCH  21  22
ENDBRANCH  20  21
ENDBRANCH   6  20
TORSDOF 8
ENDMDL
MODEL 10
REMARK VINA RESULT:      -9.1      2.135      2.640
REMARK  8 active torsions:
REMARK  status: ('A' for Active; 'I' for Inactive)
REMARK    1  A    between atoms: C_3  and  S_4 
REMARK    2  A    between atoms: S_4  and  C_5 
REMARK    3  A    between atoms: C_5  and  C_6 
REMARK       I    between atoms: C_6  and  N_7 
REMARK    4  A    between atoms: N_7  and  C_8 
REMARK    5  A    between atoms: C_8  and  C_9 
REMARK    6  A    between atoms: C_18  and  C_19 
REMARK    7  A    between atoms: C_19  and  O_20 
REMARK    8  A    between atoms: O_20  and  C_21 
ROOT
HETATM    1  C   UNL     1      24.884  42.976  48.859  1.00  0.00     0.160 C 
HETATM    2  N   UNL     1      24.952  44.290  49.444  1.00  0.00    -0.314 N 
HETATM    3  C   UNL     1      24.013  45.282  49.390  1.00  0.00     0.191 A 
HETATM    4  N   UNL     1      24.429  46.324  50.071  1.00  0.00    -0.123 NA
HETATM    5  N   UNL     1      25.678  46.037  50.556  1.00  0.00    -0.132 NA
HETATM    6  C   UNL     1      25.994  44.812  50.177  1.00  0.00     0.154 A 
ENDROOT
BRANCH   3   7
HETATM    7  S   UNL     1      22.533  45.179  48.506  1.00  0.00    -0.081 SA
BRANCH   7   8
HETATM    8  C   UNL     1      22.221  46.928  48.134  1.00  0.00     0.185 C 
BRANCH   8   9
HETATM    9  C   UNL     1      20.820  47.366  48.531  1.00  0.00     0.227 C 
HETATM   10  N   UNL     1      20.761  48.395  49.440  1.00  0.00    -0.356 N 
HETATM   11  H   UNL     1      21.637  48.771  49.800  1.00  0.00     0.162 HD
HETATM   12  O   UNL     1      19.820  46.787  48.109  1.00  0.00    -0.273 OA
BRANCH  10  13
HETATM   13  C   UNL     1      19.530  48.814  50.066  1.00  0.00     0.161 C 
BRANCH  13  14
HETATM   14  C   UNL     1      19.118  50.203  49.649  1.00  0.00    -0.041 A 
HETATM   15  C   UNL     1      19.961  50.969  48.828  1.00  0.00     0.009 A 
HETATM   16  C   UNL     1      19.578  52.243  48.405  1.00  0.00     0.001 A 
HETATM   17  C   UNL     1      18.348  52.769  48.796  1.00  0.00     0.000 A 
HETATM   18  C   UNL     1      17.500  52.019  49.608  1.00  0.00     0.001 A 
HETATM   19  C   UNL     1      17.878  50.742  50.028  1.00  0.00     0.009 A 
ENDBRANCH  13  14
ENDBRANCH  10  13
ENDBRANCH   8   9
ENDBRANCH   7   8
ENDBRANCH   3   7
BRANCH   6  20
HETATM   20  C   UNL     1      27.272  44.106  50.469  1.00  0.00     0.256 C 
BRANCH  20  21
HETATM   21  O   UNL     1      27.030  43.281  51.609  1.00  0.00    -0.344 OA
BRANCH  21  22
HETATM   22  C   UNL     1      27.886  43.474  52.659  1.00  0.00     0.069 A 
HETATM   23  C   UNL     1      27.854  44.568  53.526  1.00  0.00     0.044 A 
HETATM   24  C   UNL     1      28.786  44.678  54.572  1.00  0.00    -0.049 A 
HETATM   25  C   UNL     1      29.779  43.693  54.725  1.00  0.00    -0.052 A 
HETATM   26  C   UNL     1      28.743  45.894  55.466  1.00  0.00     0.039 C 
HETATM   27  C   UNL     1      30.778  43.747  55.855  1.00  0.00     0.039 C 
HETATM   28  C   UNL     1      29.806  42.604  53.843  1.00  0.00     0.010 A 
HETATM   29  C   UNL     1      30.906  45.136  56.478  1.00  0.00     0.005 C 
HETATM   30  C   UNL     1      29.529  45.721  56.764  1.00  0.00     0.005 C 
HETATM   31  C   UNL     1      28.874  42.504  52.811  1.00  0.00     0.037 A 
ENDBRANCH  21  22
ENDBRANCH  20  21
ENDBRANCH   6  20
TORSDOF 8
ENDMDL
