MODEL 1
REMARK VINA RESULT:      -8.5      0.000      0.000
REMARK  5 active torsions:
REMARK  status: ('A' for Active; 'I' for Inactive)
REMARK    1  A    between atoms: C_2  and  C_3 
REMARK    2  A    between atoms: C_3  and  O_4 
REMARK    3  A    between atoms: O_4  and  C_5 
REMARK    4  A    between atoms: C_8  and  C_9 
REMARK    5  A    between atoms: C_15  and  C_16 
ROOT
HETATM    1  C   UNL     1      26.718  44.076  54.666  1.00  0.00     0.066 C 
HETATM    2  C   UNL     1      27.416  45.390  54.631  1.00  0.00     0.028 A 
HETATM    3  C   UNL     1      26.958  46.452  53.894  1.00  0.00     0.133 A 
HETATM    4  N   UNL     1      27.833  47.474  54.072  1.00  0.00    -0.261 N 
HETATM    5  H   UNL     1      27.812  48.412  53.683  1.00  0.00     0.191 HD
HETATM    6  N   UNL     1      28.860  47.142  54.862  1.00  0.00    -0.172 NA
HETATM    7  C   UNL     1      28.639  45.858  55.209  1.00  0.00     0.098 A 
HETATM    8  N   UNL     1      25.844  46.379  53.096  1.00  0.00    -0.312 N 
HETATM    9  C   UNL     1      25.046  45.194  53.098  1.00  0.00     0.224 C 
HETATM   10  O   UNL     1      24.143  45.158  52.279  1.00  0.00    -0.273 OA
HETATM   11  C   UNL     1      25.267  44.172  54.183  1.00  0.00     0.117 C 
HETATM   12  H   UNL     1      25.580  47.117  52.455  1.00  0.00     0.170 HD
ENDROOT
BRANCH   1  13
HETATM   13  C   UNL     1      27.526  43.079  53.854  1.00  0.00    -0.049 A 
HETATM   14  C   UNL     1      27.651  41.768  54.351  1.00  0.00     0.010 A 
HETATM   15  C   UNL     1      28.319  40.775  53.626  1.00  0.00     0.037 A 
HETATM   16  C   UNL     1      28.869  41.073  52.383  1.00  0.00     0.069 A 
HETATM   17  C   UNL     1      28.778  42.374  51.890  1.00  0.00     0.037 A 
HETATM   18  C   UNL     1      28.101  43.365  52.607  1.00  0.00     0.010 A 
BRANCH  16  19
HETATM   19  O   UNL     1      29.527  40.189  51.574  1.00  0.00    -0.348 OA
BRANCH  19  20
HETATM   20  C   UNL     1      28.753  39.598  50.530  1.00  0.00     0.202 C 
BRANCH  20  21
HETATM   21  C   UNL     1      29.374  38.272  50.210  1.00  0.00    -0.011 C 
HETATM   22  C   UNL     1      29.961  37.468  51.106  1.00  0.00     0.009 C 
ENDBRANCH  20  21
ENDBRANCH  19  20
ENDBRANCH  16  19
ENDBRANCH   1  13
BRANCH   7  23
HETATM   23  C   UNL     1      29.628  45.134  56.009  1.00  0.00    -0.005 A 
HETATM   24  C   UNL     1      30.313  44.019  55.512  1.00  0.00     0.014 A 
HETATM   25  C   UNL     1      31.277  43.373  56.291  1.00  0.00     0.001 A 
HETATM   26  C   UNL     1      31.555  43.824  57.580  1.00  0.00     0.000 A 
HETATM   27  C   UNL     1      30.865  44.917  58.096  1.00  0.00     0.001 A 
HETATM   28  C   UNL     1      29.906  45.567  57.316  1.00  0.00     0.014 A 
ENDBRANCH   7  23
TORSDOF 5
ENDMDL
MODEL 2
REMARK VINA RESULT:      -8.1      3.028      6.470
REMARK  5 active torsions:
REMARK  status: ('A' for Active; 'I' for Inactive)
REMARK    1  A    between atoms: C_2  and  C_3 
REMARK    2  A    between atoms: C_3  and  O_4 
REMARK    3  A    between atoms: O_4  and  C_5 
REMARK    4  A    between atoms: C_8  and  C_9 
REMARK    5  A    between atoms: C_15  and  C_16 
ROOT
HETATM    1  C   UNL     1      26.640  44.894  49.983  1.00  0.00     0.066 C 
HETATM    2  C   UNL     1      25.457  44.028  49.720  1.00  0.00     0.028 A 
HETATM    3  C   UNL     1      24.169  44.490  49.805  1.00  0.00     0.133 A 
HETATM    4  N   UNL     1      23.347  43.447  49.527  1.00  0.00    -0.261 N 
HETATM    5  H   UNL     1      22.333  43.419  49.495  1.00  0.00     0.191 HD
HETATM    6  N   UNL     1      24.016  42.312  49.290  1.00  0.00    -0.172 NA
HETATM    7  C   UNL     1      25.318  42.636  49.418  1.00  0.00     0.098 A 
HETATM    8  N   UNL     1      23.862  45.774  50.180  1.00  0.00    -0.312 N 
HETATM    9  C   UNL     1      24.909  46.722  50.390  1.00  0.00     0.224 C 
HETATM   10  O   UNL     1      24.566  47.805  50.834  1.00  0.00    -0.273 OA
HETATM   11  C   UNL     1      26.299  46.386  49.913  1.00  0.00     0.117 C 
HETATM   12  H   UNL     1      22.914  46.077  50.368  1.00  0.00     0.170 HD
ENDROOT
BRANCH   1  13
HETATM   13  C   UNL     1      27.234  44.505  51.326  1.00  0.00    -0.049 A 
HETATM   14  C   UNL     1      28.360  43.661  51.331  1.00  0.00     0.010 A 
HETATM   15  C   UNL     1      29.006  43.316  52.524  1.00  0.00     0.037 A 
HETATM   16  C   UNL     1      28.541  43.817  53.736  1.00  0.00     0.069 A 
HETATM   17  C   UNL     1      27.409  44.631  53.749  1.00  0.00     0.037 A 
HETATM   18  C   UNL     1      26.769  44.987  52.558  1.00  0.00     0.010 A 
BRANCH  16  19
HETATM   19  O   UNL     1      29.094  43.569  54.961  1.00  0.00    -0.348 OA
BRANCH  19  20
HETATM   20  C   UNL     1      30.492  43.282  54.971  1.00  0.00     0.202 C 
BRANCH  20  21
HETATM   21  C   UNL     1      31.071  43.926  56.196  1.00  0.00    -0.011 C 
HETATM   22  C   UNL     1      31.789  43.284  57.127  1.00  0.00     0.009 C 
ENDBRANCH  20  21
ENDBRANCH  19  20
ENDBRANCH  16  19
ENDBRANCH   1  13
BRANCH   7  23
HETATM   23  C   UNL     1      26.346  41.599  49.311  1.00  0.00    -0.005 A 
HETATM   24  C   UNL     1      27.239  41.548  48.234  1.00  0.00     0.014 A 
HETATM   25  C   UNL     1      28.232  40.566  48.182  1.00  0.00     0.001 A 
HETATM   26  C   UNL     1      28.334  39.617  49.198  1.00  0.00     0.000 A 
HETATM   27  C   UNL     1      27.439  39.642  50.264  1.00  0.00     0.001 A 
HETATM   28  C   UNL     1      26.450  40.626  50.319  1.00  0.00     0.014 A 
ENDBRANCH   7  23
TORSDOF 5
ENDMDL
MODEL 3
REMARK VINA RESULT:      -7.8      2.817      4.096
REMARK  5 active torsions:
REMARK  status: ('A' for Active; 'I' for Inactive)
REMARK    1  A    between atoms: C_2  and  C_3 
REMARK    2  A    between atoms: C_3  and  O_4 
REMARK    3  A    between atoms: O_4  and  C_5 
REMARK    4  A    between atoms: C_8  and  C_9 
REMARK    5  A    between atoms: C_15  and  C_16 
ROOT
HETATM    1  C   UNL     1      24.714  42.851  50.954  1.00  0.00     0.066 C 
HETATM    2  C   UNL     1      25.155  44.273  50.911  1.00  0.00     0.028 A 
HETATM    3  C   UNL     1      24.551  45.211  50.114  1.00  0.00     0.133 A 
HETATM    4  N   UNL     1      25.207  46.384  50.303  1.00  0.00    -0.261 N 
HETATM    5  H   UNL     1      25.035  47.291  49.881  1.00  0.00     0.191 HD
HETATM    6  N   UNL     1      26.230  46.270  51.158  1.00  0.00    -0.172 NA
HETATM    7  C   UNL     1      26.233  44.977  51.537  1.00  0.00     0.098 A 
HETATM    8  N   UNL     1      23.520  44.909  49.260  1.00  0.00    -0.312 N 
HETATM    9  C   UNL     1      22.959  43.596  49.260  1.00  0.00     0.224 C 
HETATM   10  O   UNL     1      22.129  43.371  48.395  1.00  0.00    -0.273 OA
HETATM   11  C   UNL     1      23.302  42.660  50.390  1.00  0.00     0.117 C 
HETATM   12  H   UNL     1      23.161  45.569  48.580  1.00  0.00     0.170 HD
ENDROOT
BRANCH   1  13
HETATM   13  C   UNL     1      25.741  42.005  50.221  1.00  0.00    -0.049 A 
HETATM   14  C   UNL     1      26.128  40.783  50.803  1.00  0.00     0.010 A 
HETATM   15  C   UNL     1      27.014  39.916  50.155  1.00  0.00     0.037 A 
HETATM   16  C   UNL     1      27.526  40.252  48.906  1.00  0.00     0.069 A 
HETATM   17  C   UNL     1      27.175  41.472  48.329  1.00  0.00     0.037 A 
HETATM   18  C   UNL     1      26.280  42.335  48.969  1.00  0.00     0.010 A 
BRANCH  16  19
HETATM   19  O   UNL     1      28.383  39.485  48.167  1.00  0.00    -0.348 OA
BRANCH  19  20
HETATM   20  C   UNL     1      28.577  38.146  48.622  1.00  0.00     0.202 C 
BRANCH  20  21
HETATM   21  C   UNL     1      29.919  38.091  49.288  1.00  0.00    -0.011 C 
HETATM   22  C   UNL     1      30.112  37.894  50.600  1.00  0.00     0.009 C 
ENDBRANCH  20  21
ENDBRANCH  19  20
ENDBRANCH  16  19
ENDBRANCH   1  13
BRANCH   7  23
HETATM   23  C   UNL     1      27.289  44.471  52.415  1.00  0.00    -0.005 A 
HETATM   24  C   UNL     1      28.325  43.659  51.937  1.00  0.00     0.014 A 
HETATM   25  C   UNL     1      29.339  43.223  52.796  1.00  0.00     0.001 A 
HETATM   26  C   UNL     1      29.320  43.582  54.143  1.00  0.00     0.000 A 
HETATM   27  C   UNL     1      28.283  44.370  54.636  1.00  0.00     0.001 A 
HETATM   28  C   UNL     1      27.274  44.810  53.778  1.00  0.00     0.014 A 
ENDBRANCH   7  23
TORSDOF 5
ENDMDL
MODEL 4
REMARK VINA RESULT:      -7.6      4.207      7.911
REMARK  5 active torsions:
REMARK  status: ('A' for Active; 'I' for Inactive)
REMARK    1  A    between atoms: C_2  and  C_3 
REMARK    2  A    between atoms: C_3  and  O_4 
REMARK    3  A    between atoms: O_4  and  C_5 
REMARK    4  A    between atoms: C_8  and  C_9 
REMARK    5  A    between atoms: C_15  and  C_16 
ROOT
HETATM    1  C   UNL     1      26.522  43.338  52.702  1.00  0.00     0.066 C 
HETATM    2  C   UNL     1      27.143  42.329  51.800  1.00  0.00     0.028 A 
HETATM    3  C   UNL     1      28.454  41.943  51.913  1.00  0.00     0.133 A 
HETATM    4  N   UNL     1      28.693  41.035  50.933  1.00  0.00    -0.261 N 
HETATM    5  H   UNL     1      29.550  40.536  50.715  1.00  0.00     0.191 HD
HETATM    6  N   UNL     1      27.623  40.818  50.159  1.00  0.00    -0.172 NA
HETATM    7  C   UNL     1      26.657  41.614  50.659  1.00  0.00     0.098 A 
HETATM    8  N   UNL     1      29.312  42.485  52.837  1.00  0.00    -0.312 N 
HETATM    9  C   UNL     1      28.820  43.411  53.806  1.00  0.00     0.224 C 
HETATM   10  O   UNL     1      29.661  43.937  54.516  1.00  0.00    -0.273 OA
HETATM   11  C   UNL     1      27.330  43.549  53.987  1.00  0.00     0.117 C 
HETATM   12  H   UNL     1      30.307  42.296  52.836  1.00  0.00     0.170 HD
ENDROOT
BRANCH   1  13
HETATM   13  C   UNL     1      26.336  44.630  51.926  1.00  0.00    -0.049 A 
HETATM   14  C   UNL     1      25.553  45.645  52.508  1.00  0.00     0.010 A 
HETATM   15  C   UNL     1      25.394  46.889  51.887  1.00  0.00     0.037 A 
HETATM   16  C   UNL     1      26.022  47.144  50.672  1.00  0.00     0.069 A 
HETATM   17  C   UNL     1      26.777  46.139  50.070  1.00  0.00     0.037 A 
HETATM   18  C   UNL     1      26.948  44.900  50.693  1.00  0.00     0.010 A 
BRANCH  16  19
HETATM   19  O   UNL     1      25.958  48.320  49.978  1.00  0.00    -0.348 OA
BRANCH  19  20
HETATM   20  C   UNL     1      27.166  48.741  49.345  1.00  0.00     0.202 C 
BRANCH  20  21
HETATM   21  C   UNL     1      26.811  49.843  48.392  1.00  0.00    -0.011 C 
HETATM   22  C   UNL     1      25.578  50.078  47.924  1.00  0.00     0.009 C 
ENDBRANCH  20  21
ENDBRANCH  19  20
ENDBRANCH  16  19
ENDBRANCH   1  13
BRANCH   7  23
HETATM   23  C   UNL     1      25.357  41.699  49.992  1.00  0.00    -0.005 A 
HETATM   24  C   UNL     1      24.312  42.481  50.499  1.00  0.00     0.014 A 
HETATM   25  C   UNL     1      23.096  42.569  49.816  1.00  0.00     0.001 A 
HETATM   26  C   UNL     1      22.905  41.864  48.629  1.00  0.00     0.000 A 
HETATM   27  C   UNL     1      23.927  41.064  48.126  1.00  0.00     0.001 A 
HETATM   28  C   UNL     1      25.145  40.981  48.804  1.00  0.00     0.014 A 
ENDBRANCH   7  23
TORSDOF 5
ENDMDL
MODEL 5
REMARK VINA RESULT:      -7.5     10.733     14.525
REMARK  5 active torsions:
REMARK  status: ('A' for Active; 'I' for Inactive)
REMARK    1  A    between atoms: C_2  and  C_3 
REMARK    2  A    between atoms: C_3  and  O_4 
REMARK    3  A    between atoms: O_4  and  C_5 
REMARK    4  A    between atoms: C_8  and  C_9 
REMARK    5  A    between atoms: C_15  and  C_16 
ROOT
HETATM    1  C   UNL     1      20.174  50.654  47.812  1.00  0.00     0.066 C 
HETATM    2  C   UNL     1      19.622  50.128  49.092  1.00  0.00     0.028 A 
HETATM    3  C   UNL     1      20.233  49.128  49.804  1.00  0.00     0.133 A 
HETATM    4  N   UNL     1      19.463  48.882  50.894  1.00  0.00    -0.261 N 
HETATM    5  H   UNL     1      19.605  48.211  51.643  1.00  0.00     0.191 HD
HETATM    6  N   UNL     1      18.363  49.643  50.931  1.00  0.00    -0.172 NA
HETATM    7  C   UNL     1      18.425  50.409  49.824  1.00  0.00     0.098 A 
HETATM    8  N   UNL     1      21.376  48.501  49.377  1.00  0.00    -0.312 N 
HETATM    9  C   UNL     1      22.041  48.962  48.200  1.00  0.00     0.224 C 
HETATM   10  O   UNL     1      22.981  48.283  47.818  1.00  0.00    -0.273 OA
HETATM   11  C   UNL     1      21.652  50.298  47.622  1.00  0.00     0.117 C 
HETATM   12  H   UNL     1      21.753  47.679  49.833  1.00  0.00     0.170 HD
ENDROOT
BRANCH   1  13
HETATM   13  C   UNL     1      19.311  50.145  46.670  1.00  0.00    -0.049 A 
HETATM   14  C   UNL     1      19.142  48.754  46.539  1.00  0.00     0.010 A 
HETATM   15  C   UNL     1      18.307  48.212  45.556  1.00  0.00     0.037 A 
HETATM   16  C   UNL     1      17.616  49.053  44.689  1.00  0.00     0.069 A 
HETATM   17  C   UNL     1      17.796  50.432  44.789  1.00  0.00     0.037 A 
HETATM   18  C   UNL     1      18.621  50.977  45.777  1.00  0.00     0.010 A 
BRANCH  16  19
HETATM   19  O   UNL     1      16.760  48.647  43.704  1.00  0.00    -0.348 OA
BRANCH  19  20
HETATM   20  C   UNL     1      15.415  49.109  43.812  1.00  0.00     0.202 C 
BRANCH  20  21
HETATM   21  C   UNL     1      14.752  48.306  44.891  1.00  0.00    -0.011 C 
HETATM   22  C   UNL     1      14.252  48.817  46.024  1.00  0.00     0.009 C 
ENDBRANCH  20  21
ENDBRANCH  19  20
ENDBRANCH  16  19
ENDBRANCH   1  13
BRANCH   7  23
HETATM   23  C   UNL     1      17.322  51.312  49.493  1.00  0.00    -0.005 A 
HETATM   24  C   UNL     1      17.216  52.591  50.051  1.00  0.00     0.014 A 
HETATM   25  C   UNL     1      16.169  53.441  49.685  1.00  0.00     0.001 A 
HETATM   26  C   UNL     1      15.208  53.017  48.768  1.00  0.00     0.000 A 
HETATM   27  C   UNL     1      15.288  51.738  48.223  1.00  0.00     0.001 A 
HETATM   28  C   UNL     1      16.337  50.891  48.584  1.00  0.00     0.014 A 
ENDBRANCH   7  23
TORSDOF 5
ENDMDL
MODEL 6
REMARK VINA RESULT:      -7.5     14.180     16.140
REMARK  5 active torsions:
REMARK  status: ('A' for Active; 'I' for Inactive)
REMARK    1  A    between atoms: C_2  and  C_3 
REMARK    2  A    between atoms: C_3  and  O_4 
REMARK    3  A    between atoms: O_4  and  C_5 
REMARK    4  A    between atoms: C_8  and  C_9 
REMARK    5  A    between atoms: C_15  and  C_16 
ROOT
HETATM    1  C   UNL     1      27.058  49.421  38.546  1.00  0.00     0.066 C 
HETATM    2  C   UNL     1      26.778  48.563  39.729  1.00  0.00     0.028 A 
HETATM    3  C   UNL     1      25.509  48.346  40.202  1.00  0.00     0.133 A 
HETATM    4  N   UNL     1      25.616  47.542  41.290  1.00  0.00    -0.261 N 
HETATM    5  H   UNL     1      24.886  47.175  41.892  1.00  0.00     0.191 HD
HETATM    6  N   UNL     1      26.886  47.237  41.583  1.00  0.00    -0.172 NA
HETATM    7  C   UNL     1      27.626  47.865  40.648  1.00  0.00     0.098 A 
HETATM    8  N   UNL     1      24.399  48.934  39.651  1.00  0.00    -0.312 N 
HETATM    9  C   UNL     1      24.527  49.723  38.468  1.00  0.00     0.224 C 
HETATM   10  O   UNL     1      23.520  50.308  38.105  1.00  0.00    -0.273 OA
HETATM   11  C   UNL     1      25.812  49.653  37.684  1.00  0.00     0.117 C 
HETATM   12  H   UNL     1      23.482  48.878  40.077  1.00  0.00     0.170 HD
ENDROOT
BRANCH   1  13
HETATM   13  C   UNL     1      27.669  50.725  39.029  1.00  0.00    -0.049 A 
HETATM   14  C   UNL     1      27.394  51.136  40.347  1.00  0.00     0.010 A 
HETATM   15  C   UNL     1      27.977  52.288  40.887  1.00  0.00     0.037 A 
HETATM   16  C   UNL     1      28.855  53.048  40.120  1.00  0.00     0.069 A 
HETATM   17  C   UNL     1      29.115  52.669  38.804  1.00  0.00     0.037 A 
HETATM   18  C   UNL     1      28.543  51.512  38.265  1.00  0.00     0.010 A 
BRANCH  16  19
HETATM   19  O   UNL     1      29.499  54.178  40.538  1.00  0.00    -0.348 OA
BRANCH  19  20
HETATM   20  C   UNL     1      30.916  54.078  40.675  1.00  0.00     0.202 C 
BRANCH  20  21
HETATM   21  C   UNL     1      31.196  52.922  41.588  1.00  0.00    -0.011 C 
HETATM   22  C   UNL     1      32.084  51.950  41.336  1.00  0.00     0.009 C 
ENDBRANCH  20  21
ENDBRANCH  19  20
ENDBRANCH  16  19
ENDBRANCH   1  13
BRANCH   7  23
HETATM   23  C   UNL     1      29.087  47.822  40.717  1.00  0.00    -0.005 A 
HETATM   24  C   UNL     1      29.855  47.132  39.771  1.00  0.00     0.014 A 
HETATM   25  C   UNL     1      31.250  47.142  39.846  1.00  0.00     0.001 A 
HETATM   26  C   UNL     1      31.893  47.828  40.874  1.00  0.00     0.000 A 
HETATM   27  C   UNL     1      31.142  48.500  41.836  1.00  0.00     0.001 A 
HETATM   28  C   UNL     1      29.748  48.495  41.758  1.00  0.00     0.014 A 
ENDBRANCH   7  23
TORSDOF 5
ENDMDL
MODEL 7
REMARK VINA RESULT:      -7.4      3.364      6.861
REMARK  5 active torsions:
REMARK  status: ('A' for Active; 'I' for Inactive)
REMARK    1  A    between atoms: C_2  and  C_3 
REMARK    2  A    between atoms: C_3  and  O_4 
REMARK    3  A    between atoms: O_4  and  C_5 
REMARK    4  A    between atoms: C_8  and  C_9 
REMARK    5  A    between atoms: C_15  and  C_16 
ROOT
HETATM    1  C   UNL     1      25.988  44.969  49.649  1.00  0.00     0.066 C 
HETATM    2  C   UNL     1      24.638  44.342  49.623  1.00  0.00     0.028 A 
HETATM    3  C   UNL     1      23.485  45.060  49.810  1.00  0.00     0.133 A 
HETATM    4  N   UNL     1      22.449  44.186  49.744  1.00  0.00    -0.261 N 
HETATM    5  H   UNL     1      21.453  44.361  49.835  1.00  0.00     0.191 HD
HETATM    6  N   UNL     1      22.852  42.924  49.554  1.00  0.00    -0.172 NA
HETATM    7  C   UNL     1      24.197  42.987  49.492  1.00  0.00     0.098 A 
HETATM    8  N   UNL     1      23.481  46.406  50.077  1.00  0.00    -0.312 N 
HETATM    9  C   UNL     1      24.708  47.137  50.059  1.00  0.00     0.224 C 
HETATM   10  O   UNL     1      24.642  48.300  50.420  1.00  0.00    -0.273 OA
HETATM   11  C   UNL     1      25.930  46.489  49.460  1.00  0.00     0.117 C 
HETATM   12  H   UNL     1      22.643  46.910  50.342  1.00  0.00     0.170 HD
ENDROOT
BRANCH   1  13
HETATM   13  C   UNL     1      26.675  44.581  50.947  1.00  0.00    -0.049 A 
HETATM   14  C   UNL     1      25.973  44.776  52.151  1.00  0.00     0.010 A 
HETATM   15  C   UNL     1      26.512  44.377  53.380  1.00  0.00     0.037 A 
HETATM   16  C   UNL     1      27.762  43.768  53.427  1.00  0.00     0.069 A 
HETATM   17  C   UNL     1      28.480  43.594  52.245  1.00  0.00     0.037 A 
HETATM   18  C   UNL     1      27.941  43.980  51.015  1.00  0.00     0.010 A 
BRANCH  16  19
HETATM   19  O   UNL     1      28.384  43.320  54.558  1.00  0.00    -0.348 OA
BRANCH  19  20
HETATM   20  C   UNL     1      29.810  43.310  54.528  1.00  0.00     0.202 C 
BRANCH  20  21
HETATM   21  C   UNL     1      30.288  44.169  55.660  1.00  0.00    -0.011 C 
HETATM   22  C   UNL     1      29.702  45.309  56.052  1.00  0.00     0.009 C 
ENDBRANCH  20  21
ENDBRANCH  19  20
ENDBRANCH  16  19
ENDBRANCH   1  13
BRANCH   7  23
HETATM   23  C   UNL     1      24.985  41.759  49.377  1.00  0.00    -0.005 A 
HETATM   24  C   UNL     1      25.588  41.157  50.488  1.00  0.00     0.014 A 
HETATM   25  C   UNL     1      26.303  39.964  50.348  1.00  0.00     0.001 A 
HETATM   26  C   UNL     1      26.436  39.368  49.095  1.00  0.00     0.000 A 
HETATM   27  C   UNL     1      25.861  39.968  47.978  1.00  0.00     0.001 A 
HETATM   28  C   UNL     1      25.142  41.156  48.118  1.00  0.00     0.014 A 
ENDBRANCH   7  23
TORSDOF 5
ENDMDL
MODEL 8
REMARK VINA RESULT:      -7.3     13.763     16.211
REMARK  5 active torsions:
REMARK  status: ('A' for Active; 'I' for Inactive)
REMARK    1  A    between atoms: C_2  and  C_3 
REMARK    2  A    between atoms: C_3  and  O_4 
REMARK    3  A    between atoms: O_4  and  C_5 
REMARK    4  A    between atoms: C_8  and  C_9 
REMARK    5  A    between atoms: C_15  and  C_16 
ROOT
HETATM    1  C   UNL     1      37.677  44.885  63.830  1.00  0.00     0.066 C 
HETATM    2  C   UNL     1      36.883  43.928  64.650  1.00  0.00     0.028 A 
HETATM    3  C   UNL     1      35.914  44.337  65.530  1.00  0.00     0.133 A 
HETATM    4  N   UNL     1      35.409  43.223  66.119  1.00  0.00    -0.261 N 
HETATM    5  H   UNL     1      34.678  43.141  66.818  1.00  0.00     0.191 HD
HETATM    6  N   UNL     1      36.007  42.102  65.699  1.00  0.00    -0.172 NA
HETATM    7  C   UNL     1      36.931  42.506  64.806  1.00  0.00     0.098 A 
HETATM    8  N   UNL     1      35.626  45.658  65.760  1.00  0.00    -0.312 N 
HETATM    9  C   UNL     1      36.269  46.670  64.984  1.00  0.00     0.224 C 
HETATM   10  O   UNL     1      36.051  47.822  65.324  1.00  0.00    -0.273 OA
HETATM   11  C   UNL     1      37.018  46.265  63.741  1.00  0.00     0.117 C 
HETATM   12  H   UNL     1      35.005  45.963  66.500  1.00  0.00     0.170 HD
ENDROOT
BRANCH   1  13
HETATM   13  C   UNL     1      39.083  44.958  64.400  1.00  0.00    -0.049 A 
HETATM   14  C   UNL     1      40.164  44.758  63.521  1.00  0.00     0.010 A 
HETATM   15  C   UNL     1      41.488  44.880  63.956  1.00  0.00     0.037 A 
HETATM   16  C   UNL     1      41.757  45.212  65.280  1.00  0.00     0.069 A 
HETATM   17  C   UNL     1      40.697  45.385  66.169  1.00  0.00     0.037 A 
HETATM   18  C   UNL     1      39.373  45.275  65.735  1.00  0.00     0.010 A 
BRANCH  16  19
HETATM   19  O   UNL     1      43.002  45.377  65.820  1.00  0.00    -0.348 OA
BRANCH  19  20
HETATM   20  C   UNL     1      43.299  46.679  66.324  1.00  0.00     0.202 C 
BRANCH  20  21
HETATM   21  C   UNL     1      44.543  47.153  65.634  1.00  0.00    -0.011 C 
HETATM   22  C   UNL     1      45.103  46.553  64.575  1.00  0.00     0.009 C 
ENDBRANCH  20  21
ENDBRANCH  19  20
ENDBRANCH  16  19
ENDBRANCH   1  13
BRANCH   7  23
HETATM   23  C   UNL     1      37.845  41.535  64.203  1.00  0.00    -0.005 A 
HETATM   24  C   UNL     1      38.336  41.686  62.901  1.00  0.00     0.014 A 
HETATM   25  C   UNL     1      39.236  40.758  62.369  1.00  0.00     0.001 A 
HETATM   26  C   UNL     1      39.643  39.662  63.128  1.00  0.00     0.000 A 
HETATM   27  C   UNL     1      39.145  39.486  64.416  1.00  0.00     0.001 A 
HETATM   28  C   UNL     1      38.250  40.416  64.949  1.00  0.00     0.014 A 
ENDBRANCH   7  23
TORSDOF 5
ENDMDL
MODEL 9
REMARK VINA RESULT:      -7.1      4.893      8.274
REMARK  5 active torsions:
REMARK  status: ('A' for Active; 'I' for Inactive)
REMARK    1  A    between atoms: C_2  and  C_3 
REMARK    2  A    between atoms: C_3  and  O_4 
REMARK    3  A    between atoms: O_4  and  C_5 
REMARK    4  A    between atoms: C_8  and  C_9 
REMARK    5  A    between atoms: C_15  and  C_16 
ROOT
HETATM    1  C   UNL     1      26.148  44.671  49.633  1.00  0.00     0.066 C 
HETATM    2  C   UNL     1      26.225  45.598  50.796  1.00  0.00     0.028 A 
HETATM    3  C   UNL     1      26.505  45.169  52.067  1.00  0.00     0.133 A 
HETATM    4  N   UNL     1      26.478  46.258  52.876  1.00  0.00    -0.261 N 
HETATM    5  H   UNL     1      26.640  46.319  53.876  1.00  0.00     0.191 HD
HETATM    6  N   UNL     1      26.168  47.381  52.218  1.00  0.00    -0.172 NA
HETATM    7  C   UNL     1      25.991  47.003  50.937  1.00  0.00     0.098 A 
HETATM    8  N   UNL     1      26.695  43.847  52.382  1.00  0.00    -0.312 N 
HETATM    9  C   UNL     1      26.716  42.866  51.343  1.00  0.00     0.224 C 
HETATM   10  O   UNL     1      26.772  41.703  51.709  1.00  0.00    -0.273 OA
HETATM   11  C   UNL     1      26.828  43.326  49.912  1.00  0.00     0.117 C 
HETATM   12  H   UNL     1      26.772  43.516  53.336  1.00  0.00     0.170 HD
ENDROOT
BRANCH   1  13
HETATM   13  C   UNL     1      24.689  44.504  49.245  1.00  0.00    -0.049 A 
HETATM   14  C   UNL     1      23.813  43.940  50.193  1.00  0.00     0.010 A 
HETATM   15  C   UNL     1      22.443  43.820  49.935  1.00  0.00     0.037 A 
HETATM   16  C   UNL     1      21.920  44.268  48.726  1.00  0.00     0.069 A 
HETATM   17  C   UNL     1      22.780  44.802  47.767  1.00  0.00     0.037 A 
HETATM   18  C   UNL     1      24.147  44.935  48.026  1.00  0.00     0.010 A 
BRANCH  16  19
HETATM   19  O   UNL     1      20.603  44.222  48.366  1.00  0.00    -0.348 OA
BRANCH  19  20
HETATM   20  C   UNL     1      19.834  45.390  48.648  1.00  0.00     0.202 C 
BRANCH  20  21
HETATM   21  C   UNL     1      18.598  45.328  47.802  1.00  0.00    -0.011 C 
HETATM   22  C   UNL     1      17.480  46.030  48.031  1.00  0.00     0.009 C 
ENDBRANCH  20  21
ENDBRANCH  19  20
ENDBRANCH  16  19
ENDBRANCH   1  13
BRANCH   7  23
HETATM   23  C   UNL     1      25.548  47.978  49.938  1.00  0.00    -0.005 A 
HETATM   24  C   UNL     1      24.193  48.188  49.656  1.00  0.00     0.014 A 
HETATM   25  C   UNL     1      23.804  49.153  48.723  1.00  0.00     0.001 A 
HETATM   26  C   UNL     1      24.765  49.907  48.051  1.00  0.00     0.000 A 
HETATM   27  C   UNL     1      26.117  49.692  48.304  1.00  0.00     0.001 A 
HETATM   28  C   UNL     1      26.506  48.732  49.241  1.00  0.00     0.014 A 
ENDBRANCH   7  23
TORSDOF 5
ENDMDL
MODEL 10
REMARK VINA RESULT:      -7.1      3.959      6.677
REMARK  5 active torsions:
REMARK  status: ('A' for Active; 'I' for Inactive)
REMARK    1  A    between atoms: C_2  and  C_3 
REMARK    2  A    between atoms: C_3  and  O_4 
REMARK    3  A    between atoms: O_4  and  C_5 
REMARK    4  A    between atoms: C_8  and  C_9 
REMARK    5  A    between atoms: C_15  and  C_16 
ROOT
HETATM    1  C   UNL     1      27.023  42.942  50.292  1.00  0.00     0.066 C 
HETATM    2  C   UNL     1      27.221  42.472  51.690  1.00  0.00     0.028 A 
HETATM    3  C   UNL     1      27.412  41.151  52.006  1.00  0.00     0.133 A 
HETATM    4  N   UNL     1      27.538  41.073  53.355  1.00  0.00    -0.261 N 
HETATM    5  H   UNL     1      27.691  40.257  53.939  1.00  0.00     0.191 HD
HETATM    6  N   UNL     1      27.413  42.263  53.954  1.00  0.00    -0.172 NA
HETATM    7  C   UNL     1      27.200  43.142  52.955  1.00  0.00     0.098 A 
HETATM    8  N   UNL     1      27.394  40.151  51.067  1.00  0.00    -0.312 N 
HETATM    9  C   UNL     1      27.283  40.480  49.681  1.00  0.00     0.224 C 
HETATM   10  O   UNL     1      27.155  39.537  48.918  1.00  0.00    -0.273 OA
HETATM   11  C   UNL     1      27.486  41.912  49.257  1.00  0.00     0.117 C 
HETATM   12  H   UNL     1      27.405  39.169  51.312  1.00  0.00     0.170 HD
ENDROOT
BRANCH   1  13
HETATM   13  C   UNL     1      25.561  43.317  50.111  1.00  0.00    -0.049 A 
HETATM   14  C   UNL     1      25.264  44.494  49.400  1.00  0.00     0.010 A 
HETATM   15  C   UNL     1      23.942  44.868  49.131  1.00  0.00     0.037 A 
HETATM   16  C   UNL     1      22.891  44.065  49.563  1.00  0.00     0.069 A 
HETATM   17  C   UNL     1      23.170  42.910  50.293  1.00  0.00     0.037 A 
HETATM   18  C   UNL     1      24.489  42.528  50.553  1.00  0.00     0.010 A 
BRANCH  16  19
HETATM   19  O   UNL     1      21.564  44.312  49.348  1.00  0.00    -0.348 OA
BRANCH  19  20
HETATM   20  C   UNL     1      21.242  45.000  48.140  1.00  0.00     0.202 C 
BRANCH  20  21
HETATM   21  C   UNL     1      21.172  43.976  47.047  1.00  0.00    -0.011 C 
HETATM   22  C   UNL     1      21.633  44.158  45.802  1.00  0.00     0.009 C 
ENDBRANCH  20  21
ENDBRANCH  19  20
ENDBRANCH  16  19
ENDBRANCH   1  13
BRANCH   7  23
HETATM   23  C   UNL     1      26.927  44.547  53.259  1.00  0.00    -0.005 A 
HETATM   24  C   UNL     1      25.807  45.214  52.746  1.00  0.00     0.014 A 
HETATM   25  C   UNL     1      25.557  46.546  53.087  1.00  0.00     0.001 A 
HETATM   26  C   UNL     1      26.430  47.231  53.931  1.00  0.00     0.000 A 
HETATM   27  C   UNL     1      27.559  46.587  54.430  1.00  0.00     0.001 A 
HETATM   28  C   UNL     1      27.807  45.255  54.095  1.00  0.00     0.014 A 
ENDBRANCH   7  23
TORSDOF 5
ENDMDL
