MODEL 1
REMARK VINA RESULT:      -9.3      0.000      0.000
REMARK  7 active torsions:
REMARK  status: ('A' for Active; 'I' for Inactive)
REMARK       I    between atoms: C_2  and  N_3 
REMARK    1  A    between atoms: N_3  and  C_4 
REMARK    2  A    between atoms: C_6  and  N_7 
REMARK       I    between atoms: N_7  and  C_8 
REMARK       I    between atoms: C_8  and  N_9 
REMARK    3  A    between atoms: N_9  and  C_10 
REMARK    4  A    between atoms: C_10  and  C_11 
REMARK    5  A    between atoms: C_11  and  C_12 
REMARK    6  A    between atoms: N_14  and  C_16 
REMARK    7  A    between atoms: C_16  and  C_17 
ROOT
HETATM    1  N   UNL     1      24.752  48.648  48.887  1.00  0.00    -0.309 N 
HETATM    2  C   UNL     1      25.389  47.957  49.868  1.00  0.00     0.320 C 
HETATM    3  N   UNL     1      24.635  47.145  50.655  1.00  0.00    -0.343 N 
HETATM    4  O   UNL     1      26.612  48.035  49.979  1.00  0.00    -0.247 OA
HETATM    5  H   UNL     1      25.399  49.013  48.197  1.00  0.00     0.170 HD
HETATM    6  H   UNL     1      23.744  46.852  50.272  1.00  0.00     0.164 HD
ENDROOT
BRANCH   3   7
HETATM    7  C   UNL     1      25.123  46.513  51.860  1.00  0.00     0.125 C 
BRANCH   7   8
HETATM    8  C   UNL     1      25.969  45.251  51.647  1.00  0.00     0.026 C 
BRANCH   8   9
HETATM    9  C   UNL     1      25.771  44.100  52.655  1.00  0.00     0.014 C 
HETATM   10  C   UNL     1      27.043  43.325  53.003  1.00  0.00     0.240 C 
HETATM   11  N   UNL     1      27.597  43.982  54.256  1.00  0.00    -0.067 N 
HETATM   12  H   UNL     1      27.644  43.236  54.961  1.00  0.00     0.280 HD
HETATM   13  C   UNL     1      26.594  45.000  54.725  1.00  0.00     0.235 C 
HETATM   14  C   UNL     1      25.310  44.606  54.020  1.00  0.00     0.034 C 
BRANCH  11  15
HETATM   15  C   UNL     1      29.000  44.514  54.124  1.00  0.00     0.273 C 
BRANCH  15  16
HETATM   16  C   UNL     1      29.806  44.373  55.388  1.00  0.00    -0.033 A 
HETATM   17  C   UNL     1      29.776  45.380  56.366  1.00  0.00     0.009 A 
HETATM   18  C   UNL     1      30.563  45.278  57.514  1.00  0.00     0.001 A 
HETATM   19  C   UNL     1      31.381  44.167  57.701  1.00  0.00     0.000 A 
HETATM   20  C   UNL     1      31.411  43.155  56.744  1.00  0.00     0.001 A 
HETATM   21  C   UNL     1      30.629  43.255  55.592  1.00  0.00     0.009 A 
ENDBRANCH  15  16
ENDBRANCH  11  15
ENDBRANCH   8   9
ENDBRANCH   7   8
ENDBRANCH   3   7
BRANCH   1  22
HETATM   22  C   UNL     1      23.439  49.156  48.810  1.00  0.00     0.038 A 
HETATM   23  C   UNL     1      22.286  48.357  48.821  1.00  0.00     0.059 A 
HETATM   24  C   UNL     1      21.010  48.933  48.822  1.00  0.00     0.036 A 
HETATM   25  C   UNL     1      20.901  50.328  48.861  1.00  0.00     0.029 A 
HETATM   26  C   UNL     1      22.038  51.132  48.860  1.00  0.00     0.004 A 
HETATM   27  C   UNL     1      23.302  50.548  48.834  1.00  0.00     0.029 A 
BRANCH  24  28
HETATM   28  N   UNL     1      19.805  48.210  48.861  1.00  0.00    -0.327 N 
HETATM   29  C   UNL     1      18.749  48.198  49.722  1.00  0.00     0.218 C 
HETATM   30  C   UNL     1      18.816  48.897  51.049  1.00  0.00     0.117 C 
HETATM   31  O   UNL     1      17.742  47.558  49.410  1.00  0.00    -0.274 OA
HETATM   32  H   UNL     1      19.655  47.548  48.106  1.00  0.00     0.169 HD
ENDBRANCH  24  28
ENDBRANCH   1  22
TORSDOF 7
ENDMDL
MODEL 2
REMARK VINA RESULT:      -9.2      1.339      2.042
REMARK  7 active torsions:
REMARK  status: ('A' for Active; 'I' for Inactive)
REMARK       I    between atoms: C_2  and  N_3 
REMARK    1  A    between atoms: N_3  and  C_4 
REMARK    2  A    between atoms: C_6  and  N_7 
REMARK       I    between atoms: N_7  and  C_8 
REMARK       I    between atoms: C_8  and  N_9 
REMARK    3  A    between atoms: N_9  and  C_10 
REMARK    4  A    between atoms: C_10  and  C_11 
REMARK    5  A    between atoms: C_11  and  C_12 
REMARK    6  A    between atoms: N_14  and  C_16 
REMARK    7  A    between atoms: C_16  and  C_17 
ROOT
HETATM    1  N   UNL     1      23.882  48.322  48.723  1.00  0.00    -0.309 N 
HETATM    2  C   UNL     1      24.742  47.982  49.718  1.00  0.00     0.320 C 
HETATM    3  N   UNL     1      24.380  46.960  50.539  1.00  0.00    -0.343 N 
HETATM    4  O   UNL     1      25.828  48.552  49.813  1.00  0.00    -0.247 OA
HETATM    5  H   UNL     1      24.328  48.895  48.014  1.00  0.00     0.170 HD
HETATM    6  H   UNL     1      23.685  46.319  50.175  1.00  0.00     0.164 HD
ENDROOT
BRANCH   3   7
HETATM    7  C   UNL     1      25.079  46.621  51.758  1.00  0.00     0.125 C 
BRANCH   7   8
HETATM    8  C   UNL     1      26.169  45.551  51.617  1.00  0.00     0.026 C 
BRANCH   8   9
HETATM    9  C   UNL     1      26.085  44.339  52.567  1.00  0.00     0.014 C 
HETATM   10  C   UNL     1      27.423  43.882  53.148  1.00  0.00     0.240 C 
HETATM   11  N   UNL     1      27.559  44.593  54.484  1.00  0.00    -0.067 N 
HETATM   12  H   UNL     1      27.660  43.848  55.184  1.00  0.00     0.280 HD
HETATM   13  C   UNL     1      26.265  45.312  54.758  1.00  0.00     0.235 C 
HETATM   14  C   UNL     1      25.270  44.650  53.822  1.00  0.00     0.034 C 
BRANCH  11  15
HETATM   15  C   UNL     1      28.784  45.458  54.620  1.00  0.00     0.273 C 
BRANCH  15  16
HETATM   16  C   UNL     1      29.719  44.991  55.703  1.00  0.00    -0.033 A 
HETATM   17  C   UNL     1      30.512  43.847  55.513  1.00  0.00     0.009 A 
HETATM   18  C   UNL     1      31.339  43.379  56.534  1.00  0.00     0.001 A 
HETATM   19  C   UNL     1      31.390  44.051  57.753  1.00  0.00     0.000 A 
HETATM   20  C   UNL     1      30.618  45.194  57.951  1.00  0.00     0.001 A 
HETATM   21  C   UNL     1      29.785  45.664  56.933  1.00  0.00     0.009 A 
ENDBRANCH  15  16
ENDBRANCH  11  15
ENDBRANCH   8   9
ENDBRANCH   7   8
ENDBRANCH   3   7
BRANCH   1  22
HETATM   22  C   UNL     1      22.476  48.251  48.644  1.00  0.00     0.038 A 
HETATM   23  C   UNL     1      21.606  49.097  49.348  1.00  0.00     0.059 A 
HETATM   24  C   UNL     1      20.221  49.024  49.160  1.00  0.00     0.036 A 
HETATM   25  C   UNL     1      19.716  48.122  48.217  1.00  0.00     0.029 A 
HETATM   26  C   UNL     1      20.570  47.283  47.505  1.00  0.00     0.004 A 
HETATM   27  C   UNL     1      21.944  47.348  47.718  1.00  0.00     0.029 A 
BRANCH  24  28
HETATM   28  N   UNL     1      19.282  49.851  49.802  1.00  0.00    -0.327 N 
HETATM   29  C   UNL     1      18.841  51.119  49.571  1.00  0.00     0.218 C 
HETATM   30  C   UNL     1      19.536  52.022  48.592  1.00  0.00     0.117 C 
HETATM   31  O   UNL     1      17.877  51.535  50.219  1.00  0.00    -0.274 OA
HETATM   32  H   UNL     1      18.813  49.453  50.610  1.00  0.00     0.169 HD
ENDBRANCH  24  28
ENDBRANCH   1  22
TORSDOF 7
ENDMDL
MODEL 3
REMARK VINA RESULT:      -9.2      1.962      3.857
REMARK  7 active torsions:
REMARK  status: ('A' for Active; 'I' for Inactive)
REMARK       I    between atoms: C_2  and  N_3 
REMARK    1  A    between atoms: N_3  and  C_4 
REMARK    2  A    between atoms: C_6  and  N_7 
REMARK       I    between atoms: N_7  and  C_8 
REMARK       I    between atoms: C_8  and  N_9 
REMARK    3  A    between atoms: N_9  and  C_10 
REMARK    4  A    between atoms: C_10  and  C_11 
REMARK    5  A    between atoms: C_11  and  C_12 
REMARK    6  A    between atoms: N_14  and  C_16 
REMARK    7  A    between atoms: C_16  and  C_17 
ROOT
HETATM    1  N   UNL     1      21.101  46.086  48.545  1.00  0.00    -0.309 N 
HETATM    2  C   UNL     1      21.753  44.916  48.775  1.00  0.00     0.320 C 
HETATM    3  N   UNL     1      22.669  44.896  49.779  1.00  0.00    -0.343 N 
HETATM    4  O   UNL     1      21.463  43.913  48.125  1.00  0.00    -0.247 OA
HETATM    5  H   UNL     1      20.271  45.953  47.976  1.00  0.00     0.170 HD
HETATM    6  H   UNL     1      22.575  45.616  50.485  1.00  0.00     0.164 HD
ENDROOT
BRANCH   3   7
HETATM    7  C   UNL     1      23.586  43.802  50.009  1.00  0.00     0.125 C 
BRANCH   7   8
HETATM    8  C   UNL     1      24.869  44.165  50.767  1.00  0.00     0.026 C 
BRANCH   8   9
HETATM    9  C   UNL     1      24.699  44.835  52.147  1.00  0.00     0.014 C 
HETATM   10  C   UNL     1      25.492  44.184  53.280  1.00  0.00     0.240 C 
HETATM   11  N   UNL     1      26.804  44.947  53.359  1.00  0.00    -0.067 N 
HETATM   12  H   UNL     1      26.851  45.316  54.316  1.00  0.00     0.280 HD
HETATM   13  C   UNL     1      26.714  46.117  52.416  1.00  0.00     0.235 C 
HETATM   14  C   UNL     1      25.227  46.269  52.157  1.00  0.00     0.034 C 
BRANCH  11  15
HETATM   15  C   UNL     1      28.039  44.104  53.179  1.00  0.00     0.273 C 
BRANCH  15  16
HETATM   16  C   UNL     1      29.016  44.239  54.315  1.00  0.00    -0.033 A 
HETATM   17  C   UNL     1      29.927  43.207  54.597  1.00  0.00     0.009 A 
HETATM   18  C   UNL     1      30.797  43.305  55.683  1.00  0.00     0.001 A 
HETATM   19  C   UNL     1      30.774  44.437  56.495  1.00  0.00     0.000 A 
HETATM   20  C   UNL     1      29.884  45.473  56.219  1.00  0.00     0.001 A 
HETATM   21  C   UNL     1      29.008  45.378  55.136  1.00  0.00     0.009 A 
ENDBRANCH  15  16
ENDBRANCH  11  15
ENDBRANCH   8   9
ENDBRANCH   7   8
ENDBRANCH   3   7
BRANCH   1  22
HETATM   22  C   UNL     1      21.504  47.425  48.719  1.00  0.00     0.038 A 
HETATM   23  C   UNL     1      22.748  47.931  48.312  1.00  0.00     0.059 A 
HETATM   24  C   UNL     1      23.050  49.291  48.444  1.00  0.00     0.036 A 
HETATM   25  C   UNL     1      22.070  50.154  48.946  1.00  0.00     0.029 A 
HETATM   26  C   UNL     1      20.828  49.666  49.345  1.00  0.00     0.004 A 
HETATM   27  C   UNL     1      20.547  48.307  49.232  1.00  0.00     0.029 A 
BRANCH  24  28
HETATM   28  N   UNL     1      24.258  49.885  48.037  1.00  0.00    -0.327 N 
HETATM   29  C   UNL     1      25.568  49.606  48.288  1.00  0.00     0.218 C 
HETATM   30  C   UNL     1      25.967  48.618  49.346  1.00  0.00     0.117 C 
HETATM   31  O   UNL     1      26.432  50.218  47.656  1.00  0.00    -0.274 OA
HETATM   32  H   UNL     1      24.178  50.693  47.428  1.00  0.00     0.169 HD
ENDBRANCH  24  28
ENDBRANCH   1  22
TORSDOF 7
ENDMDL
MODEL 4
REMARK VINA RESULT:      -9.1      1.857      2.629
REMARK  7 active torsions:
REMARK  status: ('A' for Active; 'I' for Inactive)
REMARK       I    between atoms: C_2  and  N_3 
REMARK    1  A    between atoms: N_3  and  C_4 
REMARK    2  A    between atoms: C_6  and  N_7 
REMARK       I    between atoms: N_7  and  C_8 
REMARK       I    between atoms: C_8  and  N_9 
REMARK    3  A    between atoms: N_9  and  C_10 
REMARK    4  A    between atoms: C_10  and  C_11 
REMARK    5  A    between atoms: C_11  and  C_12 
REMARK    6  A    between atoms: N_14  and  C_16 
REMARK    7  A    between atoms: C_16  and  C_17 
ROOT
HETATM    1  N   UNL     1      23.684  48.602  48.877  1.00  0.00    -0.309 N 
HETATM    2  C   UNL     1      24.485  47.837  49.664  1.00  0.00     0.320 C 
HETATM    3  N   UNL     1      24.054  46.584  49.969  1.00  0.00    -0.343 N 
HETATM    4  O   UNL     1      25.582  48.264  50.023  1.00  0.00    -0.247 OA
HETATM    5  H   UNL     1      24.180  49.397  48.488  1.00  0.00     0.170 HD
HETATM    6  H   UNL     1      23.359  46.188  49.348  1.00  0.00     0.164 HD
ENDROOT
BRANCH   3   7
HETATM    7  C   UNL     1      24.684  45.735  50.954  1.00  0.00     0.125 C 
BRANCH   7   8
HETATM    8  C   UNL     1      25.093  44.342  50.458  1.00  0.00     0.026 C 
BRANCH   8   9
HETATM    9  C   UNL     1      26.586  44.126  50.135  1.00  0.00     0.014 C 
HETATM   10  C   UNL     1      27.542  44.405  51.295  1.00  0.00     0.240 C 
HETATM   11  N   UNL     1      27.763  43.066  51.979  1.00  0.00    -0.067 N 
HETATM   12  H   UNL     1      28.777  42.902  51.943  1.00  0.00     0.280 HD
HETATM   13  C   UNL     1      27.094  42.006  51.146  1.00  0.00     0.235 C 
HETATM   14  C   UNL     1      26.895  42.669  49.796  1.00  0.00     0.034 C 
BRANCH  11  15
HETATM   15  C   UNL     1      27.389  43.030  53.437  1.00  0.00     0.273 C 
BRANCH  15  16
HETATM   16  C   UNL     1      28.441  43.631  54.331  1.00  0.00    -0.033 A 
HETATM   17  C   UNL     1      28.239  44.892  54.918  1.00  0.00     0.009 A 
HETATM   18  C   UNL     1      29.234  45.476  55.703  1.00  0.00     0.001 A 
HETATM   19  C   UNL     1      30.436  44.807  55.917  1.00  0.00     0.000 A 
HETATM   20  C   UNL     1      30.644  43.551  55.350  1.00  0.00     0.001 A 
HETATM   21  C   UNL     1      29.654  42.964  54.560  1.00  0.00     0.009 A 
ENDBRANCH  15  16
ENDBRANCH  11  15
ENDBRANCH   8   9
ENDBRANCH   7   8
ENDBRANCH   3   7
BRANCH   1  22
HETATM   22  C   UNL     1      22.283  48.637  48.732  1.00  0.00     0.038 A 
HETATM   23  C   UNL     1      21.437  49.477  49.472  1.00  0.00     0.059 A 
HETATM   24  C   UNL     1      20.061  49.518  49.219  1.00  0.00     0.036 A 
HETATM   25  C   UNL     1      19.544  48.739  48.178  1.00  0.00     0.029 A 
HETATM   26  C   UNL     1      20.374  47.907  47.430  1.00  0.00     0.004 A 
HETATM   27  C   UNL     1      21.738  47.857  47.707  1.00  0.00     0.029 A 
BRANCH  24  28
HETATM   28  N   UNL     1      19.148  50.349  49.892  1.00  0.00    -0.327 N 
HETATM   29  C   UNL     1      18.589  51.556  49.596  1.00  0.00     0.218 C 
HETATM   30  C   UNL     1      19.090  52.389  48.451  1.00  0.00     0.117 C 
HETATM   31  O   UNL     1      17.683  51.979  50.319  1.00  0.00    -0.274 OA
HETATM   32  H   UNL     1      18.812  50.013  50.789  1.00  0.00     0.169 HD
ENDBRANCH  24  28
ENDBRANCH   1  22
TORSDOF 7
ENDMDL
MODEL 5
REMARK VINA RESULT:      -9.1      2.249      3.312
REMARK  7 active torsions:
REMARK  status: ('A' for Active; 'I' for Inactive)
REMARK       I    between atoms: C_2  and  N_3 
REMARK    1  A    between atoms: N_3  and  C_4 
REMARK    2  A    between atoms: C_6  and  N_7 
REMARK       I    between atoms: N_7  and  C_8 
REMARK       I    between atoms: C_8  and  N_9 
REMARK    3  A    between atoms: N_9  and  C_10 
REMARK    4  A    between atoms: C_10  and  C_11 
REMARK    5  A    between atoms: C_11  and  C_12 
REMARK    6  A    between atoms: N_14  and  C_16 
REMARK    7  A    between atoms: C_16  and  C_17 
ROOT
HETATM    1  N   UNL     1      26.034  47.067  51.165  1.00  0.00    -0.309 N 
HETATM    2  C   UNL     1      26.215  45.722  51.225  1.00  0.00     0.320 C 
HETATM    3  N   UNL     1      26.821  45.123  50.165  1.00  0.00    -0.343 N 
HETATM    4  O   UNL     1      25.890  45.102  52.237  1.00  0.00    -0.247 OA
HETATM    5  H   UNL     1      25.825  47.463  52.076  1.00  0.00     0.170 HD
HETATM    6  H   UNL     1      27.381  45.724  49.572  1.00  0.00     0.164 HD
ENDROOT
BRANCH   3   7
HETATM    7  C   UNL     1      26.896  43.691  49.986  1.00  0.00     0.125 C 
BRANCH   7   8
HETATM    8  C   UNL     1      26.928  42.865  51.278  1.00  0.00     0.026 C 
BRANCH   8   9
HETATM    9  C   UNL     1      28.278  42.226  51.666  1.00  0.00     0.014 C 
HETATM   10  C   UNL     1      29.321  43.204  52.207  1.00  0.00     0.240 C 
HETATM   11  N   UNL     1      29.169  43.177  53.719  1.00  0.00    -0.067 N 
HETATM   12  H   UNL     1      30.088  42.898  54.083  1.00  0.00     0.280 HD
HETATM   13  C   UNL     1      28.184  42.093  54.064  1.00  0.00     0.235 C 
HETATM   14  C   UNL     1      28.132  41.231  52.817  1.00  0.00     0.034 C 
BRANCH  11  15
HETATM   15  C   UNL     1      28.862  44.511  54.348  1.00  0.00     0.273 C 
BRANCH  15  16
HETATM   16  C   UNL     1      29.599  44.736  55.641  1.00  0.00    -0.033 A 
HETATM   17  C   UNL     1      30.664  43.897  56.008  1.00  0.00     0.009 A 
HETATM   18  C   UNL     1      31.314  44.069  57.231  1.00  0.00     0.001 A 
HETATM   19  C   UNL     1      30.914  45.084  58.096  1.00  0.00     0.000 A 
HETATM   20  C   UNL     1      29.867  45.931  57.739  1.00  0.00     0.001 A 
HETATM   21  C   UNL     1      29.209  45.760  56.519  1.00  0.00     0.009 A 
ENDBRANCH  15  16
ENDBRANCH  11  15
ENDBRANCH   8   9
ENDBRANCH   7   8
ENDBRANCH   3   7
BRANCH   1  22
HETATM   22  C   UNL     1      25.824  47.929  50.071  1.00  0.00     0.038 A 
HETATM   23  C   UNL     1      24.566  48.196  49.510  1.00  0.00     0.059 A 
HETATM   24  C   UNL     1      24.422  49.127  48.475  1.00  0.00     0.036 A 
HETATM   25  C   UNL     1      25.550  49.827  48.036  1.00  0.00     0.029 A 
HETATM   26  C   UNL     1      26.804  49.579  48.590  1.00  0.00     0.004 A 
HETATM   27  C   UNL     1      26.939  48.633  49.603  1.00  0.00     0.029 A 
BRANCH  24  28
HETATM   28  N   UNL     1      23.197  49.474  47.876  1.00  0.00    -0.327 N 
HETATM   29  C   UNL     1      22.185  50.311  48.238  1.00  0.00     0.218 C 
HETATM   30  C   UNL     1      22.119  50.910  49.613  1.00  0.00     0.117 C 
HETATM   31  O   UNL     1      21.288  50.537  47.421  1.00  0.00    -0.274 OA
HETATM   32  H   UNL     1      22.990  49.029  46.988  1.00  0.00     0.169 HD
ENDBRANCH  24  28
ENDBRANCH   1  22
TORSDOF 7
ENDMDL
MODEL 6
REMARK VINA RESULT:      -9.1      1.412      2.171
REMARK  7 active torsions:
REMARK  status: ('A' for Active; 'I' for Inactive)
REMARK       I    between atoms: C_2  and  N_3 
REMARK    1  A    between atoms: N_3  and  C_4 
REMARK    2  A    between atoms: C_6  and  N_7 
REMARK       I    between atoms: N_7  and  C_8 
REMARK       I    between atoms: C_8  and  N_9 
REMARK    3  A    between atoms: N_9  and  C_10 
REMARK    4  A    between atoms: C_10  and  C_11 
REMARK    5  A    between atoms: C_11  and  C_12 
REMARK    6  A    between atoms: N_14  and  C_16 
REMARK    7  A    between atoms: C_16  and  C_17 
ROOT
HETATM    1  N   UNL     1      25.134  48.323  49.524  1.00  0.00    -0.309 N 
HETATM    2  C   UNL     1      25.403  47.289  50.364  1.00  0.00     0.320 C 
HETATM    3  N   UNL     1      24.627  46.178  50.259  1.00  0.00    -0.343 N 
HETATM    4  O   UNL     1      26.356  47.359  51.138  1.00  0.00    -0.247 OA
HETATM    5  H   UNL     1      25.900  48.988  49.483  1.00  0.00     0.170 HD
HETATM    6  H   UNL     1      24.139  46.055  49.380  1.00  0.00     0.164 HD
ENDROOT
BRANCH   3   7
HETATM    7  C   UNL     1      24.649  45.089  51.209  1.00  0.00     0.125 C 
BRANCH   7   8
HETATM    8  C   UNL     1      25.156  43.748  50.663  1.00  0.00     0.026 C 
BRANCH   8   9
HETATM    9  C   UNL     1      26.649  43.668  50.281  1.00  0.00     0.014 C 
HETATM   10  C   UNL     1      27.620  44.062  51.394  1.00  0.00     0.240 C 
HETATM   11  N   UNL     1      27.995  42.766  52.093  1.00  0.00    -0.067 N 
HETATM   12  H   UNL     1      29.018  42.698  52.017  1.00  0.00     0.280 HD
HETATM   13  C   UNL     1      27.398  41.629  51.309  1.00  0.00     0.235 C 
HETATM   14  C   UNL     1      27.082  42.239  49.956  1.00  0.00     0.034 C 
BRANCH  11  15
HETATM   15  C   UNL     1      27.686  42.727  53.566  1.00  0.00     0.273 C 
BRANCH  15  16
HETATM   16  C   UNL     1      28.683  43.487  54.399  1.00  0.00    -0.033 A 
HETATM   17  C   UNL     1      29.919  42.907  54.733  1.00  0.00     0.009 A 
HETATM   18  C   UNL     1      30.824  43.586  55.549  1.00  0.00     0.001 A 
HETATM   19  C   UNL     1      30.510  44.853  56.034  1.00  0.00     0.000 A 
HETATM   20  C   UNL     1      29.293  45.445  55.701  1.00  0.00     0.001 A 
HETATM   21  C   UNL     1      28.382  44.767  54.888  1.00  0.00     0.009 A 
ENDBRANCH  15  16
ENDBRANCH  11  15
ENDBRANCH   8   9
ENDBRANCH   7   8
ENDBRANCH   3   7
BRANCH   1  22
HETATM   22  C   UNL     1      23.928  48.756  48.939  1.00  0.00     0.038 A 
HETATM   23  C   UNL     1      22.674  48.186  49.209  1.00  0.00     0.059 A 
HETATM   24  C   UNL     1      21.506  48.719  48.652  1.00  0.00     0.036 A 
HETATM   25  C   UNL     1      21.600  49.865  47.856  1.00  0.00     0.029 A 
HETATM   26  C   UNL     1      22.838  50.447  47.588  1.00  0.00     0.004 A 
HETATM   27  C   UNL     1      23.996  49.893  48.127  1.00  0.00     0.029 A 
BRANCH  24  28
HETATM   28  N   UNL     1      20.209  48.228  48.892  1.00  0.00    -0.327 N 
HETATM   29  C   UNL     1      19.156  48.690  49.622  1.00  0.00     0.218 C 
HETATM   30  C   UNL     1      19.310  49.838  50.577  1.00  0.00     0.117 C 
HETATM   31  O   UNL     1      18.070  48.113  49.518  1.00  0.00    -0.274 OA
HETATM   32  H   UNL     1      19.973  47.349  48.443  1.00  0.00     0.169 HD
ENDBRANCH  24  28
ENDBRANCH   1  22
TORSDOF 7
ENDMDL
MODEL 7
REMARK VINA RESULT:      -9.0      1.789      2.645
REMARK  7 active torsions:
REMARK  status: ('A' for Active; 'I' for Inactive)
REMARK       I    between atoms: C_2  and  N_3 
REMARK    1  A    between atoms: N_3  and  C_4 
REMARK    2  A    between atoms: C_6  and  N_7 
REMARK       I    between atoms: N_7  and  C_8 
REMARK       I    between atoms: C_8  and  N_9 
REMARK    3  A    between atoms: N_9  and  C_10 
REMARK    4  A    between atoms: C_10  and  C_11 
REMARK    5  A    between atoms: C_11  and  C_12 
REMARK    6  A    between atoms: N_14  and  C_16 
REMARK    7  A    between atoms: C_16  and  C_17 
ROOT
HETATM    1  N   UNL     1      23.342  50.458  47.633  1.00  0.00    -0.309 N 
HETATM    2  C   UNL     1      24.483  49.827  48.015  1.00  0.00     0.320 C 
HETATM    3  N   UNL     1      24.364  48.785  48.881  1.00  0.00    -0.343 N 
HETATM    4  O   UNL     1      25.562  50.166  47.533  1.00  0.00    -0.247 OA
HETATM    5  H   UNL     1      23.482  51.032  46.808  1.00  0.00     0.170 HD
HETATM    6  H   UNL     1      23.453  48.343  48.925  1.00  0.00     0.164 HD
ENDROOT
BRANCH   3   7
HETATM    7  C   UNL     1      25.485  48.153  49.537  1.00  0.00     0.125 C 
BRANCH   7   8
HETATM    8  C   UNL     1      25.126  47.192  50.677  1.00  0.00     0.026 C 
BRANCH   8   9
HETATM    9  C   UNL     1      25.505  45.708  50.484  1.00  0.00     0.014 C 
HETATM   10  C   UNL     1      26.823  45.290  51.138  1.00  0.00     0.240 C 
HETATM   11  N   UNL     1      26.451  44.750  52.509  1.00  0.00    -0.067 N 
HETATM   12  H   UNL     1      26.805  43.786  52.530  1.00  0.00     0.280 HD
HETATM   13  C   UNL     1      24.950  44.695  52.592  1.00  0.00     0.235 C 
HETATM   14  C   UNL     1      24.497  44.769  51.145  1.00  0.00     0.034 C 
BRANCH  11  15
HETATM   15  C   UNL     1      27.106  45.456  53.667  1.00  0.00     0.273 C 
BRANCH  15  16
HETATM   16  C   UNL     1      28.329  44.744  54.177  1.00  0.00    -0.033 A 
HETATM   17  C   UNL     1      28.741  43.533  53.596  1.00  0.00     0.009 A 
HETATM   18  C   UNL     1      29.843  42.842  54.100  1.00  0.00     0.001 A 
HETATM   19  C   UNL     1      30.550  43.355  55.185  1.00  0.00     0.000 A 
HETATM   20  C   UNL     1      30.160  44.561  55.763  1.00  0.00     0.001 A 
HETATM   21  C   UNL     1      29.055  45.254  55.265  1.00  0.00     0.009 A 
ENDBRANCH  15  16
ENDBRANCH  11  15
ENDBRANCH   8   9
ENDBRANCH   7   8
ENDBRANCH   3   7
BRANCH   1  22
HETATM   22  C   UNL     1      22.121  50.663  48.308  1.00  0.00     0.038 A 
HETATM   23  C   UNL     1      20.860  50.506  47.715  1.00  0.00     0.059 A 
HETATM   24  C   UNL     1      19.688  50.646  48.467  1.00  0.00     0.036 A 
HETATM   25  C   UNL     1      19.793  50.900  49.839  1.00  0.00     0.029 A 
HETATM   26  C   UNL     1      21.040  51.049  50.442  1.00  0.00     0.004 A 
HETATM   27  C   UNL     1      22.199  50.931  49.679  1.00  0.00     0.029 A 
BRANCH  24  28
HETATM   28  N   UNL     1      18.386  50.478  47.960  1.00  0.00    -0.327 N 
HETATM   29  C   UNL     1      17.481  49.462  48.026  1.00  0.00     0.218 C 
HETATM   30  C   UNL     1      17.867  48.106  48.542  1.00  0.00     0.117 C 
HETATM   31  O   UNL     1      16.338  49.664  47.609  1.00  0.00    -0.274 OA
HETATM   32  H   UNL     1      18.009  51.256  47.428  1.00  0.00     0.169 HD
ENDBRANCH  24  28
ENDBRANCH   1  22
TORSDOF 7
ENDMDL
MODEL 8
REMARK VINA RESULT:      -9.0      1.891      2.880
REMARK  7 active torsions:
REMARK  status: ('A' for Active; 'I' for Inactive)
REMARK       I    between atoms: C_2  and  N_3 
REMARK    1  A    between atoms: N_3  and  C_4 
REMARK    2  A    between atoms: C_6  and  N_7 
REMARK       I    between atoms: N_7  and  C_8 
REMARK       I    between atoms: C_8  and  N_9 
REMARK    3  A    between atoms: N_9  and  C_10 
REMARK    4  A    between atoms: C_10  and  C_11 
REMARK    5  A    between atoms: C_11  and  C_12 
REMARK    6  A    between atoms: N_14  and  C_16 
REMARK    7  A    between atoms: C_16  and  C_17 
ROOT
HETATM    1  N   UNL     1      23.739  50.334  48.553  1.00  0.00    -0.309 N 
HETATM    2  C   UNL     1      24.594  49.353  48.944  1.00  0.00     0.320 C 
HETATM    3  N   UNL     1      24.077  48.110  49.134  1.00  0.00    -0.343 N 
HETATM    4  O   UNL     1      25.795  49.593  49.056  1.00  0.00    -0.247 OA
HETATM    5  H   UNL     1      24.231  51.143  48.186  1.00  0.00     0.170 HD
HETATM    6  H   UNL     1      23.198  47.916  48.669  1.00  0.00     0.164 HD
ENDROOT
BRANCH   3   7
HETATM    7  C   UNL     1      24.805  47.021  49.744  1.00  0.00     0.125 C 
BRANCH   7   8
HETATM    8  C   UNL     1      24.159  45.637  49.608  1.00  0.00     0.026 C 
BRANCH   8   9
HETATM    9  C   UNL     1      25.096  44.458  49.272  1.00  0.00     0.014 C 
HETATM   10  C   UNL     1      26.521  44.596  49.809  1.00  0.00     0.240 C 
HETATM   11  N   UNL     1      26.529  43.883  51.150  1.00  0.00    -0.067 N 
HETATM   12  H   UNL     1      27.248  43.154  51.071  1.00  0.00     0.280 HD
HETATM   13  C   UNL     1      25.197  43.202  51.318  1.00  0.00     0.235 C 
HETATM   14  C   UNL     1      24.628  43.152  49.913  1.00  0.00     0.034 C 
BRANCH  11  15
HETATM   15  C   UNL     1      26.934  44.739  52.321  1.00  0.00     0.273 C 
BRANCH  15  16
HETATM   16  C   UNL     1      28.153  44.221  53.036  1.00  0.00    -0.033 A 
HETATM   17  C   UNL     1      29.016  43.311  52.403  1.00  0.00     0.009 A 
HETATM   18  C   UNL     1      30.117  42.787  53.082  1.00  0.00     0.001 A 
HETATM   19  C   UNL     1      30.373  43.171  54.396  1.00  0.00     0.000 A 
HETATM   20  C   UNL     1      29.532  44.083  55.031  1.00  0.00     0.001 A 
HETATM   21  C   UNL     1      28.426  44.606  54.358  1.00  0.00     0.009 A 
ENDBRANCH  15  16
ENDBRANCH  11  15
ENDBRANCH   8   9
ENDBRANCH   7   8
ENDBRANCH   3   7
BRANCH   1  22
HETATM   22  C   UNL     1      22.367  50.528  48.807  1.00  0.00     0.038 A 
HETATM   23  C   UNL     1      21.672  49.927  49.867  1.00  0.00     0.059 A 
HETATM   24  C   UNL     1      20.326  50.227  50.109  1.00  0.00     0.036 A 
HETATM   25  C   UNL     1      19.693  51.179  49.302  1.00  0.00     0.029 A 
HETATM   26  C   UNL     1      20.374  51.790  48.252  1.00  0.00     0.004 A 
HETATM   27  C   UNL     1      21.706  51.465  48.006  1.00  0.00     0.029 A 
BRANCH  24  28
HETATM   28  N   UNL     1      19.563  49.693  51.163  1.00  0.00    -0.327 N 
HETATM   29  C   UNL     1      18.665  48.672  51.242  1.00  0.00     0.218 C 
HETATM   30  C   UNL     1      18.126  48.008  50.008  1.00  0.00     0.117 C 
HETATM   31  O   UNL     1      18.263  48.326  52.356  1.00  0.00    -0.274 OA
HETATM   32  H   UNL     1      19.680  50.135  52.069  1.00  0.00     0.169 HD
ENDBRANCH  24  28
ENDBRANCH   1  22
TORSDOF 7
ENDMDL
MODEL 9
REMARK VINA RESULT:      -8.9      2.918      9.370
REMARK  7 active torsions:
REMARK  status: ('A' for Active; 'I' for Inactive)
REMARK       I    between atoms: C_2  and  N_3 
REMARK    1  A    between atoms: N_3  and  C_4 
REMARK    2  A    between atoms: C_6  and  N_7 
REMARK       I    between atoms: N_7  and  C_8 
REMARK       I    between atoms: C_8  and  N_9 
REMARK    3  A    between atoms: N_9  and  C_10 
REMARK    4  A    between atoms: C_10  and  C_11 
REMARK    5  A    between atoms: C_11  and  C_12 
REMARK    6  A    between atoms: N_14  and  C_16 
REMARK    7  A    between atoms: C_16  and  C_17 
ROOT
HETATM    1  N   UNL     1      27.606  41.780  52.648  1.00  0.00    -0.309 N 
HETATM    2  C   UNL     1      26.952  41.822  51.458  1.00  0.00     0.320 C 
HETATM    3  N   UNL     1      27.269  42.832  50.604  1.00  0.00    -0.343 N 
HETATM    4  O   UNL     1      26.155  40.934  51.164  1.00  0.00    -0.247 OA
HETATM    5  H   UNL     1      27.513  40.877  53.102  1.00  0.00     0.170 HD
HETATM    6  H   UNL     1      28.168  43.275  50.750  1.00  0.00     0.164 HD
ENDROOT
BRANCH   3   7
HETATM    7  C   UNL     1      26.522  43.133  49.404  1.00  0.00     0.125 C 
BRANCH   7   8
HETATM    8  C   UNL     1      25.938  44.549  49.329  1.00  0.00     0.026 C 
BRANCH   8   9
HETATM    9  C   UNL     1      24.957  44.961  50.446  1.00  0.00     0.014 C 
HETATM   10  C   UNL     1      24.352  46.357  50.290  1.00  0.00     0.240 C 
HETATM   11  N   UNL     1      23.034  46.157  49.561  1.00  0.00    -0.067 N 
HETATM   12  H   UNL     1      22.314  46.547  50.182  1.00  0.00     0.280 HD
HETATM   13  C   UNL     1      22.791  44.677  49.443  1.00  0.00     0.235 C 
HETATM   14  C   UNL     1      23.718  44.067  50.479  1.00  0.00     0.034 C 
BRANCH  11  15
HETATM   15  C   UNL     1      22.910  46.907  48.261  1.00  0.00     0.273 C 
BRANCH  15  16
HETATM   16  C   UNL     1      22.636  48.375  48.450  1.00  0.00    -0.033 A 
HETATM   17  C   UNL     1      21.395  48.808  48.946  1.00  0.00     0.009 A 
HETATM   18  C   UNL     1      21.118  50.170  49.071  1.00  0.00     0.001 A 
HETATM   19  C   UNL     1      22.077  51.113  48.712  1.00  0.00     0.000 A 
HETATM   20  C   UNL     1      23.317  50.696  48.230  1.00  0.00     0.001 A 
HETATM   21  C   UNL     1      23.597  49.335  48.098  1.00  0.00     0.009 A 
ENDBRANCH  15  16
ENDBRANCH  11  15
ENDBRANCH   8   9
ENDBRANCH   7   8
ENDBRANCH   3   7
BRANCH   1  22
HETATM   22  C   UNL     1      28.138  42.806  53.454  1.00  0.00     0.038 A 
HETATM   23  C   UNL     1      27.410  43.927  53.881  1.00  0.00     0.059 A 
HETATM   24  C   UNL     1      27.979  44.868  54.748  1.00  0.00     0.036 A 
HETATM   25  C   UNL     1      29.276  44.648  55.224  1.00  0.00     0.029 A 
HETATM   26  C   UNL     1      30.006  43.535  54.815  1.00  0.00     0.004 A 
HETATM   27  C   UNL     1      29.439  42.618  53.934  1.00  0.00     0.029 A 
BRANCH  24  28
HETATM   28  N   UNL     1      27.313  46.002  55.246  1.00  0.00    -0.327 N 
HETATM   29  C   UNL     1      26.565  46.979  54.660  1.00  0.00     0.218 C 
HETATM   30  C   UNL     1      26.505  47.127  53.167  1.00  0.00     0.117 C 
HETATM   31  O   UNL     1      25.966  47.777  55.385  1.00  0.00    -0.274 OA
HETATM   32  H   UNL     1      27.381  46.159  56.246  1.00  0.00     0.169 HD
ENDBRANCH  24  28
ENDBRANCH   1  22
TORSDOF 7
ENDMDL
MODEL 10
REMARK VINA RESULT:      -8.7      5.464      7.097
REMARK  7 active torsions:
REMARK  status: ('A' for Active; 'I' for Inactive)
REMARK       I    between atoms: C_2  and  N_3 
REMARK    1  A    between atoms: N_3  and  C_4 
REMARK    2  A    between atoms: C_6  and  N_7 
REMARK       I    between atoms: N_7  and  C_8 
REMARK       I    between atoms: C_8  and  N_9 
REMARK    3  A    between atoms: N_9  and  C_10 
REMARK    4  A    between atoms: C_10  and  C_11 
REMARK    5  A    between atoms: C_11  and  C_12 
REMARK    6  A    between atoms: N_14  and  C_16 
REMARK    7  A    between atoms: C_16  and  C_17 
ROOT
HETATM    1  N   UNL     1      27.872  40.167  51.297  1.00  0.00    -0.309 N 
HETATM    2  C   UNL     1      28.185  41.300  51.977  1.00  0.00     0.320 C 
HETATM    3  N   UNL     1      27.627  42.464  51.550  1.00  0.00    -0.343 N 
HETATM    4  O   UNL     1      28.900  41.238  52.976  1.00  0.00    -0.247 OA
HETATM    5  H   UNL     1      28.106  39.331  51.821  1.00  0.00     0.170 HD
HETATM    6  H   UNL     1      26.787  42.377  50.990  1.00  0.00     0.164 HD
ENDROOT
BRANCH   3   7
HETATM    7  C   UNL     1      28.020  43.769  52.031  1.00  0.00     0.125 C 
BRANCH   7   8
HETATM    8  C   UNL     1      26.871  44.753  52.283  1.00  0.00     0.026 C 
BRANCH   8   9
HETATM    9  C   UNL     1      26.244  44.748  53.693  1.00  0.00     0.014 C 
HETATM   10  C   UNL     1      27.239  44.563  54.839  1.00  0.00     0.240 C 
HETATM   11  N   UNL     1      27.614  45.965  55.291  1.00  0.00    -0.067 N 
HETATM   12  H   UNL     1      27.363  46.009  56.286  1.00  0.00     0.280 HD
HETATM   13  C   UNL     1      26.740  46.939  54.549  1.00  0.00     0.235 C 
HETATM   14  C   UNL     1      25.593  46.088  54.035  1.00  0.00     0.034 C 
BRANCH  11  15
HETATM   15  C   UNL     1      29.085  46.281  55.221  1.00  0.00     0.273 C 
BRANCH  15  16
HETATM   16  C   UNL     1      29.923  45.389  56.097  1.00  0.00    -0.033 A 
HETATM   17  C   UNL     1      30.150  45.723  57.442  1.00  0.00     0.009 A 
HETATM   18  C   UNL     1      30.970  44.927  58.242  1.00  0.00     0.001 A 
HETATM   19  C   UNL     1      31.566  43.786  57.712  1.00  0.00     0.000 A 
HETATM   20  C   UNL     1      31.339  43.436  56.382  1.00  0.00     0.001 A 
HETATM   21  C   UNL     1      30.523  44.232  55.576  1.00  0.00     0.009 A 
ENDBRANCH  15  16
ENDBRANCH  11  15
ENDBRANCH   8   9
ENDBRANCH   7   8
ENDBRANCH   3   7
BRANCH   1  22
HETATM   22  C   UNL     1      27.545  39.956  49.942  1.00  0.00     0.038 A 
HETATM   23  C   UNL     1      26.238  39.759  49.470  1.00  0.00     0.059 A 
HETATM   24  C   UNL     1      25.978  39.637  48.100  1.00  0.00     0.036 A 
HETATM   25  C   UNL     1      27.040  39.762  47.198  1.00  0.00     0.029 A 
HETATM   26  C   UNL     1      28.341  39.967  47.654  1.00  0.00     0.004 A 
HETATM   27  C   UNL     1      28.591  40.063  49.019  1.00  0.00     0.029 A 
BRANCH  24  28
HETATM   28  N   UNL     1      24.699  39.466  47.541  1.00  0.00    -0.327 N 
HETATM   29  C   UNL     1      23.650  40.310  47.333  1.00  0.00     0.218 C 
HETATM   30  C   UNL     1      23.619  41.683  47.939  1.00  0.00     0.117 C 
HETATM   31  O   UNL     1      22.693  39.906  46.666  1.00  0.00    -0.274 OA
HETATM   32  H   UNL     1      24.474  38.532  47.213  1.00  0.00     0.169 HD
ENDBRANCH  24  28
ENDBRANCH   1  22
TORSDOF 7
ENDMDL
