MODEL 1
REMARK VINA RESULT:      -8.4      0.000      0.000
REMARK  7 active torsions:
REMARK  status: ('A' for Active; 'I' for Inactive)
REMARK    1  A    between atoms: O_2  and  C_3 
REMARK    2  A    between atoms: C_6  and  C_7 
REMARK    3  A    between atoms: C_7  and  N_8 
REMARK    4  A    between atoms: C_7  and  C_23 
REMARK       I    between atoms: N_8  and  C_9 
REMARK    5  A    between atoms: C_9  and  C_10 
REMARK    6  A    between atoms: C_10  and  S_11 
REMARK    7  A    between atoms: S_11  and  C_12 
ROOT
HETATM    1  N   UNL     1      26.526  46.817  52.533  1.00  0.00    -0.348 N 
HETATM    2  C   UNL     1      26.378  47.568  53.680  1.00  0.00     0.228 C 
HETATM    3  O   UNL     1      25.310  48.052  54.041  1.00  0.00    -0.273 OA
HETATM    4  H   UNL     1      27.458  46.586  52.218  1.00  0.00     0.163 HD
ENDROOT
BRANCH   1   5
HETATM    5  C   UNL     1      25.432  46.620  51.596  1.00  0.00     0.151 C 
BRANCH   5   6
HETATM    6  C   UNL     1      25.329  45.189  51.078  1.00  0.00    -0.031 A 
HETATM    7  C   UNL     1      26.505  44.505  50.729  1.00  0.00     0.012 A 
HETATM    8  C   UNL     1      26.459  43.173  50.311  1.00  0.00     0.037 A 
HETATM    9  C   UNL     1      25.245  42.489  50.248  1.00  0.00     0.068 A 
HETATM   10  C   UNL     1      24.068  43.161  50.575  1.00  0.00     0.037 A 
HETATM   11  C   UNL     1      24.110  44.499  50.988  1.00  0.00     0.012 A 
BRANCH   9  12
HETATM   12  O   UNL     1      25.342  41.185  49.849  1.00  0.00    -0.356 OA
HETATM   13  C   UNL     1      26.288  40.379  50.541  1.00  0.00     0.210 C 
ENDBRANCH   9  12
ENDBRANCH   5   6
BRANCH   5  14
HETATM   14  C   UNL     1      25.541  47.643  50.469  1.00  0.00    -0.031 A 
HETATM   15  C   UNL     1      26.804  48.085  50.045  1.00  0.00     0.009 A 
HETATM   16  C   UNL     1      26.923  49.015  49.009  1.00  0.00     0.001 A 
HETATM   17  C   UNL     1      25.783  49.510  48.380  1.00  0.00     0.000 A 
HETATM   18  C   UNL     1      24.522  49.075  48.782  1.00  0.00     0.001 A 
HETATM   19  C   UNL     1      24.401  48.147  49.817  1.00  0.00     0.009 A 
ENDBRANCH   5  14
ENDBRANCH   1   5
BRANCH   2  20
HETATM   20  C   UNL     1      27.668  47.774  54.451  1.00  0.00     0.185 C 
BRANCH  20  21
HETATM   21  S   UNL     1      27.637  46.704  55.921  1.00  0.00    -0.081 SA
BRANCH  21  22
HETATM   22  C   UNL     1      27.268  45.182  55.192  1.00  0.00     0.192 A 
HETATM   23  N   UNL     1      28.214  44.299  54.740  1.00  0.00    -0.311 N 
HETATM   24  C   UNL     1      27.503  43.283  54.141  1.00  0.00     0.130 A 
HETATM   25  C   UNL     1      29.652  44.454  54.826  1.00  0.00     0.133 C 
HETATM   26  C   UNL     1      28.078  42.108  53.425  1.00  0.00     0.081 C 
HETATM   27  N   UNL     1      26.214  43.523  54.286  1.00  0.00    -0.134 NA
HETATM   28  C   UNL     1      29.297  42.464  52.583  1.00  0.00     0.008 C 
HETATM   29  C   UNL     1      30.592  42.554  53.389  1.00  0.00     0.002 C 
HETATM   30  C   UNL     1      30.462  43.162  54.785  1.00  0.00     0.020 C 
HETATM   31  N   UNL     1      26.068  44.717  54.943  1.00  0.00    -0.123 NA
ENDBRANCH  21  22
ENDBRANCH  20  21
ENDBRANCH   2  20
TORSDOF 7
ENDMDL
MODEL 2
REMARK VINA RESULT:      -8.1      4.462      7.862
REMARK  7 active torsions:
REMARK  status: ('A' for Active; 'I' for Inactive)
REMARK    1  A    between atoms: O_2  and  C_3 
REMARK    2  A    between atoms: C_6  and  C_7 
REMARK    3  A    between atoms: C_7  and  N_8 
REMARK    4  A    between atoms: C_7  and  C_23 
REMARK       I    between atoms: N_8  and  C_9 
REMARK    5  A    between atoms: C_9  and  C_10 
REMARK    6  A    between atoms: C_10  and  S_11 
REMARK    7  A    between atoms: S_11  and  C_12 
ROOT
HETATM    1  N   UNL     1      24.074  45.573  50.331  1.00  0.00    -0.348 N 
HETATM    2  C   UNL     1      23.742  44.421  49.649  1.00  0.00     0.228 C 
HETATM    3  O   UNL     1      24.570  43.657  49.164  1.00  0.00    -0.273 OA
HETATM    4  H   UNL     1      23.342  46.230  50.564  1.00  0.00     0.163 HD
ENDROOT
BRANCH   1   5
HETATM    5  C   UNL     1      25.449  46.029  50.445  1.00  0.00     0.151 C 
BRANCH   5   6
HETATM    6  C   UNL     1      25.960  46.059  51.882  1.00  0.00    -0.031 A 
HETATM    7  C   UNL     1      26.786  45.016  52.332  1.00  0.00     0.012 A 
HETATM    8  C   UNL     1      27.326  45.038  53.621  1.00  0.00     0.037 A 
HETATM    9  C   UNL     1      27.070  46.106  54.481  1.00  0.00     0.068 A 
HETATM   10  C   UNL     1      26.237  47.139  54.053  1.00  0.00     0.037 A 
HETATM   11  C   UNL     1      25.688  47.116  52.764  1.00  0.00     0.012 A 
BRANCH   9  12
HETATM   12  O   UNL     1      27.679  46.018  55.701  1.00  0.00    -0.356 OA
HETATM   13  C   UNL     1      29.101  46.015  55.701  1.00  0.00     0.210 C 
ENDBRANCH   9  12
ENDBRANCH   5   6
BRANCH   5  14
HETATM   14  C   UNL     1      25.595  47.378  49.746  1.00  0.00    -0.031 A 
HETATM   15  C   UNL     1      24.450  48.114  49.402  1.00  0.00     0.009 A 
HETATM   16  C   UNL     1      24.564  49.354  48.769  1.00  0.00     0.001 A 
HETATM   17  C   UNL     1      25.822  49.877  48.476  1.00  0.00     0.000 A 
HETATM   18  C   UNL     1      26.968  49.163  48.818  1.00  0.00     0.001 A 
HETATM   19  C   UNL     1      26.857  47.924  49.450  1.00  0.00     0.009 A 
ENDBRANCH   5  14
ENDBRANCH   1   5
BRANCH   2  20
HETATM   20  C   UNL     1      22.248  44.192  49.521  1.00  0.00     0.185 C 
BRANCH  20  21
HETATM   21  S   UNL     1      21.779  44.419  47.778  1.00  0.00    -0.081 SA
BRANCH  21  22
HETATM   22  C   UNL     1      20.195  45.083  47.964  1.00  0.00     0.192 A 
HETATM   23  N   UNL     1      19.946  46.378  48.337  1.00  0.00    -0.311 N 
HETATM   24  C   UNL     1      18.578  46.459  48.473  1.00  0.00     0.130 A 
HETATM   25  C   UNL     1      20.932  47.408  48.595  1.00  0.00     0.133 C 
HETATM   26  C   UNL     1      17.806  47.647  48.937  1.00  0.00     0.081 C 
HETATM   27  N   UNL     1      18.049  45.297  48.139  1.00  0.00    -0.134 NA
HETATM   28  C   UNL     1      18.492  48.392  50.076  1.00  0.00     0.008 C 
HETATM   29  C   UNL     1      19.595  49.342  49.609  1.00  0.00     0.002 C 
HETATM   30  C   UNL     1      20.445  48.846  48.440  1.00  0.00     0.020 C 
HETATM   31  N   UNL     1      19.065  44.434  47.824  1.00  0.00    -0.123 NA
ENDBRANCH  21  22
ENDBRANCH  20  21
ENDBRANCH   2  20
TORSDOF 7
ENDMDL
MODEL 3
REMARK VINA RESULT:      -8.1      1.051      2.096
REMARK  7 active torsions:
REMARK  status: ('A' for Active; 'I' for Inactive)
REMARK    1  A    between atoms: O_2  and  C_3 
REMARK    2  A    between atoms: C_6  and  C_7 
REMARK    3  A    between atoms: C_7  and  N_8 
REMARK    4  A    between atoms: C_7  and  C_23 
REMARK       I    between atoms: N_8  and  C_9 
REMARK    5  A    between atoms: C_9  and  C_10 
REMARK    6  A    between atoms: C_10  and  S_11 
REMARK    7  A    between atoms: S_11  and  C_12 
ROOT
HETATM    1  N   UNL     1      26.692  47.065  52.349  1.00  0.00    -0.348 N 
HETATM    2  C   UNL     1      26.463  47.576  53.610  1.00  0.00     0.228 C 
HETATM    3  O   UNL     1      25.349  47.871  54.030  1.00  0.00    -0.273 OA
HETATM    4  H   UNL     1      27.643  46.995  52.017  1.00  0.00     0.163 HD
ENDROOT
BRANCH   1   5
HETATM    5  C   UNL     1      25.625  46.926  51.371  1.00  0.00     0.151 C 
BRANCH   5   6
HETATM    6  C   UNL     1      25.459  45.500  50.855  1.00  0.00    -0.031 A 
HETATM    7  C   UNL     1      24.551  44.645  51.500  1.00  0.00     0.012 A 
HETATM    8  C   UNL     1      24.323  43.353  51.020  1.00  0.00     0.037 A 
HETATM    9  C   UNL     1      24.981  42.892  49.879  1.00  0.00     0.068 A 
HETATM   10  C   UNL     1      25.899  43.724  49.240  1.00  0.00     0.037 A 
HETATM   11  C   UNL     1      26.136  45.018  49.724  1.00  0.00     0.012 A 
BRANCH   9  12
HETATM   12  O   UNL     1      24.650  41.620  49.501  1.00  0.00    -0.356 OA
HETATM   13  C   UNL     1      25.730  40.720  49.289  1.00  0.00     0.210 C 
ENDBRANCH   9  12
ENDBRANCH   5   6
BRANCH   5  14
HETATM   14  C   UNL     1      25.837  47.933  50.244  1.00  0.00    -0.031 A 
HETATM   15  C   UNL     1      24.730  48.467  49.566  1.00  0.00     0.009 A 
HETATM   16  C   UNL     1      24.905  49.395  48.537  1.00  0.00     0.001 A 
HETATM   17  C   UNL     1      26.186  49.807  48.176  1.00  0.00     0.000 A 
HETATM   18  C   UNL     1      27.295  49.294  48.845  1.00  0.00     0.001 A 
HETATM   19  C   UNL     1      27.123  48.366  49.873  1.00  0.00     0.009 A 
ENDBRANCH   5  14
ENDBRANCH   1   5
BRANCH   2  20
HETATM   20  C   UNL     1      27.723  47.775  54.430  1.00  0.00     0.185 C 
BRANCH  20  21
HETATM   21  S   UNL     1      27.630  46.705  55.897  1.00  0.00    -0.081 SA
BRANCH  21  22
HETATM   22  C   UNL     1      28.897  45.584  55.549  1.00  0.00     0.192 A 
HETATM   23  N   UNL     1      28.797  44.577  54.624  1.00  0.00    -0.311 N 
HETATM   24  C   UNL     1      29.968  43.862  54.740  1.00  0.00     0.130 A 
HETATM   25  C   UNL     1      27.663  44.303  53.764  1.00  0.00     0.133 C 
HETATM   26  C   UNL     1      30.317  42.617  53.998  1.00  0.00     0.081 C 
HETATM   27  N   UNL     1      30.737  44.449  55.637  1.00  0.00    -0.134 NA
HETATM   28  C   UNL     1      29.135  41.668  53.839  1.00  0.00     0.008 C 
HETATM   29  C   UNL     1      28.201  42.042  52.689  1.00  0.00     0.002 C 
HETATM   30  C   UNL     1      27.973  43.539  52.481  1.00  0.00     0.020 C 
HETATM   31  N   UNL     1      30.062  45.527  56.146  1.00  0.00    -0.123 NA
ENDBRANCH  21  22
ENDBRANCH  20  21
ENDBRANCH   2  20
TORSDOF 7
ENDMDL
MODEL 4
REMARK VINA RESULT:      -8.0      3.325      7.756
REMARK  7 active torsions:
REMARK  status: ('A' for Active; 'I' for Inactive)
REMARK    1  A    between atoms: O_2  and  C_3 
REMARK    2  A    between atoms: C_6  and  C_7 
REMARK    3  A    between atoms: C_7  and  N_8 
REMARK    4  A    between atoms: C_7  and  C_23 
REMARK       I    between atoms: N_8  and  C_9 
REMARK    5  A    between atoms: C_9  and  C_10 
REMARK    6  A    between atoms: C_10  and  S_11 
REMARK    7  A    between atoms: S_11  and  C_12 
ROOT
HETATM    1  N   UNL     1      26.436  44.800  51.185  1.00  0.00    -0.348 N 
HETATM    2  C   UNL     1      26.237  45.870  50.338  1.00  0.00     0.228 C 
HETATM    3  O   UNL     1      26.933  46.095  49.353  1.00  0.00    -0.273 OA
HETATM    4  H   UNL     1      25.928  44.767  52.058  1.00  0.00     0.163 HD
ENDROOT
BRANCH   1   5
HETATM    5  C   UNL     1      27.564  43.897  51.030  1.00  0.00     0.151 C 
BRANCH   5   6
HETATM    6  C   UNL     1      27.174  42.531  50.474  1.00  0.00    -0.031 A 
HETATM    7  C   UNL     1      27.048  42.372  49.085  1.00  0.00     0.012 A 
HETATM    8  C   UNL     1      26.754  41.122  48.533  1.00  0.00     0.037 A 
HETATM    9  C   UNL     1      26.597  40.003  49.350  1.00  0.00     0.068 A 
HETATM   10  C   UNL     1      26.701  40.150  50.733  1.00  0.00     0.037 A 
HETATM   11  C   UNL     1      26.988  41.404  51.290  1.00  0.00     0.012 A 
BRANCH   9  12
HETATM   12  O   UNL     1      26.338  38.838  48.683  1.00  0.00    -0.356 OA
HETATM   13  C   UNL     1      26.714  37.634  49.341  1.00  0.00     0.210 C 
ENDBRANCH   9  12
ENDBRANCH   5   6
BRANCH   5  14
HETATM   14  C   UNL     1      28.318  43.796  52.353  1.00  0.00    -0.031 A 
HETATM   15  C   UNL     1      27.779  44.378  53.511  1.00  0.00     0.009 A 
HETATM   16  C   UNL     1      28.452  44.289  54.732  1.00  0.00     0.001 A 
HETATM   17  C   UNL     1      29.667  43.611  54.814  1.00  0.00     0.000 A 
HETATM   18  C   UNL     1      30.210  43.020  53.676  1.00  0.00     0.001 A 
HETATM   19  C   UNL     1      29.542  43.109  52.455  1.00  0.00     0.009 A 
ENDBRANCH   5  14
ENDBRANCH   1   5
BRANCH   2  20
HETATM   20  C   UNL     1      25.091  46.775  50.750  1.00  0.00     0.185 C 
BRANCH  20  21
HETATM   21  S   UNL     1      23.828  46.736  49.441  1.00  0.00    -0.081 SA
BRANCH  21  22
HETATM   22  C   UNL     1      23.423  48.413  49.348  1.00  0.00     0.192 A 
HETATM   23  N   UNL     1      22.155  48.884  49.125  1.00  0.00    -0.311 N 
HETATM   24  C   UNL     1      22.291  50.249  49.014  1.00  0.00     0.130 A 
HETATM   25  C   UNL     1      20.952  48.090  48.975  1.00  0.00     0.133 C 
HETATM   26  C   UNL     1      21.206  51.220  48.695  1.00  0.00     0.081 C 
HETATM   27  N   UNL     1      23.555  50.569  49.220  1.00  0.00    -0.134 NA
HETATM   28  C   UNL     1      20.236  50.701  47.640  1.00  0.00     0.008 C 
HETATM   29  C   UNL     1      19.171  49.758  48.199  1.00  0.00     0.002 C 
HETATM   30  C   UNL     1      19.643  48.804  49.296  1.00  0.00     0.020 C 
HETATM   31  N   UNL     1      24.264  49.415  49.425  1.00  0.00    -0.123 NA
ENDBRANCH  21  22
ENDBRANCH  20  21
ENDBRANCH   2  20
TORSDOF 7
ENDMDL
MODEL 5
REMARK VINA RESULT:      -7.9      3.510      8.225
REMARK  7 active torsions:
REMARK  status: ('A' for Active; 'I' for Inactive)
REMARK    1  A    between atoms: O_2  and  C_3 
REMARK    2  A    between atoms: C_6  and  C_7 
REMARK    3  A    between atoms: C_7  and  N_8 
REMARK    4  A    between atoms: C_7  and  C_23 
REMARK       I    between atoms: N_8  and  C_9 
REMARK    5  A    between atoms: C_9  and  C_10 
REMARK    6  A    between atoms: C_10  and  S_11 
REMARK    7  A    between atoms: S_11  and  C_12 
ROOT
HETATM    1  N   UNL     1      26.458  44.605  50.850  1.00  0.00    -0.348 N 
HETATM    2  C   UNL     1      25.326  45.381  50.985  1.00  0.00     0.228 C 
HETATM    3  O   UNL     1      24.422  45.130  51.777  1.00  0.00    -0.273 OA
HETATM    4  H   UNL     1      27.081  44.782  50.074  1.00  0.00     0.163 HD
ENDROOT
BRANCH   1   5
HETATM    5  C   UNL     1      26.626  43.357  51.576  1.00  0.00     0.151 C 
BRANCH   5   6
HETATM    6  C   UNL     1      27.824  43.363  52.520  1.00  0.00    -0.031 A 
HETATM    7  C   UNL     1      27.656  43.841  53.830  1.00  0.00     0.012 A 
HETATM    8  C   UNL     1      28.712  43.805  54.745  1.00  0.00     0.037 A 
HETATM    9  C   UNL     1      29.950  43.276  54.380  1.00  0.00     0.068 A 
HETATM   10  C   UNL     1      30.136  42.814  53.078  1.00  0.00     0.037 A 
HETATM   11  C   UNL     1      29.082  42.856  52.156  1.00  0.00     0.012 A 
BRANCH   9  12
HETATM   12  O   UNL     1      30.888  43.275  55.375  1.00  0.00    -0.356 OA
HETATM   13  C   UNL     1      30.908  44.413  56.229  1.00  0.00     0.210 C 
ENDBRANCH   9  12
ENDBRANCH   5   6
BRANCH   5  14
HETATM   14  C   UNL     1      26.670  42.197  50.585  1.00  0.00    -0.031 A 
HETATM   15  C   UNL     1      26.453  40.885  51.035  1.00  0.00     0.009 A 
HETATM   16  C   UNL     1      26.483  39.812  50.141  1.00  0.00     0.001 A 
HETATM   17  C   UNL     1      26.722  40.036  48.787  1.00  0.00     0.000 A 
HETATM   18  C   UNL     1      26.929  41.332  48.323  1.00  0.00     0.001 A 
HETATM   19  C   UNL     1      26.902  42.406  49.214  1.00  0.00     0.009 A 
ENDBRANCH   5  14
ENDBRANCH   1   5
BRANCH   2  20
HETATM   20  C   UNL     1      25.276  46.566  50.040  1.00  0.00     0.185 C 
BRANCH  20  21
HETATM   21  S   UNL     1      23.653  46.579  49.218  1.00  0.00    -0.081 SA
BRANCH  21  22
HETATM   22  C   UNL     1      23.282  48.265  49.287  1.00  0.00     0.192 A 
HETATM   23  N   UNL     1      22.029  48.782  49.083  1.00  0.00    -0.311 N 
HETATM   24  C   UNL     1      22.192  50.149  49.115  1.00  0.00     0.130 A 
HETATM   25  C   UNL     1      20.816  48.033  48.824  1.00  0.00     0.133 C 
HETATM   26  C   UNL     1      21.133  51.169  48.870  1.00  0.00     0.081 C 
HETATM   27  N   UNL     1      23.456  50.419  49.383  1.00  0.00    -0.134 NA
HETATM   28  C   UNL     1      20.182  50.780  47.745  1.00  0.00     0.008 C 
HETATM   29  C   UNL     1      19.086  49.807  48.180  1.00  0.00     0.002 C 
HETATM   30  C   UNL     1      19.511  48.737  49.184  1.00  0.00     0.020 C 
HETATM   31  N   UNL     1      24.138  49.236  49.486  1.00  0.00    -0.123 NA
ENDBRANCH  21  22
ENDBRANCH  20  21
ENDBRANCH   2  20
TORSDOF 7
ENDMDL
MODEL 6
REMARK VINA RESULT:      -7.9      4.531      7.113
REMARK  7 active torsions:
REMARK  status: ('A' for Active; 'I' for Inactive)
REMARK    1  A    between atoms: O_2  and  C_3 
REMARK    2  A    between atoms: C_6  and  C_7 
REMARK    3  A    between atoms: C_7  and  N_8 
REMARK    4  A    between atoms: C_7  and  C_23 
REMARK       I    between atoms: N_8  and  C_9 
REMARK    5  A    between atoms: C_9  and  C_10 
REMARK    6  A    between atoms: C_10  and  S_11 
REMARK    7  A    between atoms: S_11  and  C_12 
ROOT
HETATM    1  N   UNL     1      22.875  48.374  48.877  1.00  0.00    -0.348 N 
HETATM    2  C   UNL     1      24.126  48.887  48.605  1.00  0.00     0.228 C 
HETATM    3  O   UNL     1      24.351  49.680  47.696  1.00  0.00    -0.273 OA
HETATM    4  H   UNL     1      22.793  47.611  49.535  1.00  0.00     0.163 HD
ENDROOT
BRANCH   1   5
HETATM    5  C   UNL     1      21.727  48.661  48.033  1.00  0.00     0.151 C 
BRANCH   5   6
HETATM    6  C   UNL     1      20.764  49.673  48.646  1.00  0.00    -0.031 A 
HETATM    7  C   UNL     1      20.736  50.982  48.136  1.00  0.00     0.012 A 
HETATM    8  C   UNL     1      19.825  51.920  48.626  1.00  0.00     0.037 A 
HETATM    9  C   UNL     1      18.912  51.572  49.622  1.00  0.00     0.068 A 
HETATM   10  C   UNL     1      18.940  50.282  50.150  1.00  0.00     0.037 A 
HETATM   11  C   UNL     1      19.857  49.340  49.665  1.00  0.00     0.012 A 
BRANCH   9  12
HETATM   12  O   UNL     1      18.059  52.574  49.994  1.00  0.00    -0.356 OA
HETATM   13  C   UNL     1      16.669  52.289  49.904  1.00  0.00     0.210 C 
ENDBRANCH   9  12
ENDBRANCH   5   6
BRANCH   5  14
HETATM   14  C   UNL     1      21.036  47.354  47.655  1.00  0.00    -0.031 A 
HETATM   15  C   UNL     1      20.134  47.325  46.580  1.00  0.00     0.009 A 
HETATM   16  C   UNL     1      19.498  46.135  46.216  1.00  0.00     0.001 A 
HETATM   17  C   UNL     1      19.759  44.960  46.916  1.00  0.00     0.000 A 
HETATM   18  C   UNL     1      20.659  44.969  47.979  1.00  0.00     0.001 A 
HETATM   19  C   UNL     1      21.294  46.156  48.346  1.00  0.00     0.009 A 
ENDBRANCH   5  14
ENDBRANCH   1   5
BRANCH   2  20
HETATM   20  C   UNL     1      25.218  48.358  49.515  1.00  0.00     0.185 C 
BRANCH  20  21
HETATM   21  S   UNL     1      24.728  46.708  50.104  1.00  0.00    -0.081 SA
BRANCH  21  22
HETATM   22  C   UNL     1      25.473  46.697  51.662  1.00  0.00     0.192 A 
HETATM   23  N   UNL     1      26.284  45.690  52.117  1.00  0.00    -0.311 N 
HETATM   24  C   UNL     1      26.569  46.017  53.423  1.00  0.00     0.130 A 
HETATM   25  C   UNL     1      26.687  44.507  51.383  1.00  0.00     0.133 C 
HETATM   26  C   UNL     1      27.360  45.197  54.385  1.00  0.00     0.081 C 
HETATM   27  N   UNL     1      26.010  47.179  53.702  1.00  0.00    -0.134 NA
HETATM   28  C   UNL     1      27.075  43.705  54.268  1.00  0.00     0.008 C 
HETATM   29  C   UNL     1      27.834  43.025  53.128  1.00  0.00     0.002 C 
HETATM   30  C   UNL     1      27.981  43.847  51.848  1.00  0.00     0.020 C 
HETATM   31  N   UNL     1      25.319  47.603  52.597  1.00  0.00    -0.123 NA
ENDBRANCH  21  22
ENDBRANCH  20  21
ENDBRANCH   2  20
TORSDOF 7
ENDMDL
MODEL 7
REMARK VINA RESULT:      -7.7      5.311      8.933
REMARK  7 active torsions:
REMARK  status: ('A' for Active; 'I' for Inactive)
REMARK    1  A    between atoms: O_2  and  C_3 
REMARK    2  A    between atoms: C_6  and  C_7 
REMARK    3  A    between atoms: C_7  and  N_8 
REMARK    4  A    between atoms: C_7  and  C_23 
REMARK       I    between atoms: N_8  and  C_9 
REMARK    5  A    between atoms: C_9  and  C_10 
REMARK    6  A    between atoms: C_10  and  S_11 
REMARK    7  A    between atoms: S_11  and  C_12 
ROOT
HETATM    1  N   UNL     1      22.149  46.374  48.835  1.00  0.00    -0.348 N 
HETATM    2  C   UNL     1      21.605  46.058  47.608  1.00  0.00     0.228 C 
HETATM    3  O   UNL     1      22.210  46.175  46.548  1.00  0.00    -0.273 OA
HETATM    4  H   UNL     1      21.544  46.402  49.645  1.00  0.00     0.163 HD
ENDROOT
BRANCH   1   5
HETATM    5  C   UNL     1      23.467  46.974  48.960  1.00  0.00     0.151 C 
BRANCH   5   6
HETATM    6  C   UNL     1      24.234  46.500  50.191  1.00  0.00    -0.031 A 
HETATM    7  C   UNL     1      24.129  45.155  50.582  1.00  0.00     0.012 A 
HETATM    8  C   UNL     1      24.864  44.667  51.665  1.00  0.00     0.037 A 
HETATM    9  C   UNL     1      25.731  45.501  52.370  1.00  0.00     0.068 A 
HETATM   10  C   UNL     1      25.832  46.843  52.004  1.00  0.00     0.037 A 
HETATM   11  C   UNL     1      25.090  47.338  50.923  1.00  0.00     0.012 A 
BRANCH   9  12
HETATM   12  O   UNL     1      26.409  44.894  53.389  1.00  0.00    -0.356 OA
HETATM   13  C   UNL     1      27.662  44.306  53.056  1.00  0.00     0.210 C 
ENDBRANCH   9  12
ENDBRANCH   5   6
BRANCH   5  14
HETATM   14  C   UNL     1      23.339  48.494  48.902  1.00  0.00    -0.031 A 
HETATM   15  C   UNL     1      24.261  49.245  48.156  1.00  0.00     0.009 A 
HETATM   16  C   UNL     1      24.155  50.636  48.086  1.00  0.00     0.001 A 
HETATM   17  C   UNL     1      23.125  51.294  48.754  1.00  0.00     0.000 A 
HETATM   18  C   UNL     1      22.197  50.563  49.491  1.00  0.00     0.001 A 
HETATM   19  C   UNL     1      22.301  49.173  49.564  1.00  0.00     0.009 A 
ENDBRANCH   5  14
ENDBRANCH   1   5
BRANCH   2  20
HETATM   20  C   UNL     1      20.169  45.576  47.679  1.00  0.00     0.185 C 
BRANCH  20  21
HETATM   21  S   UNL     1      19.097  46.853  46.952  1.00  0.00    -0.081 SA
BRANCH  21  22
HETATM   22  C   UNL     1      18.877  47.890  48.316  1.00  0.00     0.192 A 
HETATM   23  N   UNL     1      18.586  49.226  48.223  1.00  0.00    -0.311 N 
HETATM   24  C   UNL     1      18.605  49.691  49.519  1.00  0.00     0.130 A 
HETATM   25  C   UNL     1      18.375  49.983  47.005  1.00  0.00     0.133 C 
HETATM   26  C   UNL     1      18.421  51.106  49.951  1.00  0.00     0.081 C 
HETATM   27  N   UNL     1      18.832  48.676  50.331  1.00  0.00    -0.134 NA
HETATM   28  C   UNL     1      19.107  52.104  49.025  1.00  0.00     0.008 C 
HETATM   29  C   UNL     1      18.299  52.426  47.768  1.00  0.00     0.002 C 
HETATM   30  C   UNL     1      17.541  51.252  47.149  1.00  0.00     0.020 C 
HETATM   31  N   UNL     1      19.007  47.548  49.574  1.00  0.00    -0.123 NA
ENDBRANCH  21  22
ENDBRANCH  20  21
ENDBRANCH   2  20
TORSDOF 7
ENDMDL
MODEL 8
REMARK VINA RESULT:      -7.7      4.663      8.303
REMARK  7 active torsions:
REMARK  status: ('A' for Active; 'I' for Inactive)
REMARK    1  A    between atoms: O_2  and  C_3 
REMARK    2  A    between atoms: C_6  and  C_7 
REMARK    3  A    between atoms: C_7  and  N_8 
REMARK    4  A    between atoms: C_7  and  C_23 
REMARK       I    between atoms: N_8  and  C_9 
REMARK    5  A    between atoms: C_9  and  C_10 
REMARK    6  A    between atoms: C_10  and  S_11 
REMARK    7  A    between atoms: S_11  and  C_12 
ROOT
HETATM    1  N   UNL     1      23.972  46.128  49.945  1.00  0.00    -0.348 N 
HETATM    2  C   UNL     1      23.449  45.103  49.184  1.00  0.00     0.228 C 
HETATM    3  O   UNL     1      24.134  44.230  48.660  1.00  0.00    -0.273 OA
HETATM    4  H   UNL     1      23.369  46.894  50.212  1.00  0.00     0.163 HD
ENDROOT
BRANCH   1   5
HETATM    5  C   UNL     1      25.404  46.312  50.106  1.00  0.00     0.151 C 
BRANCH   5   6
HETATM    6  C   UNL     1      25.879  46.141  51.546  1.00  0.00    -0.031 A 
HETATM    7  C   UNL     1      26.742  45.077  51.856  1.00  0.00     0.012 A 
HETATM    8  C   UNL     1      27.249  44.922  53.149  1.00  0.00     0.037 A 
HETATM    9  C   UNL     1      26.922  45.832  54.154  1.00  0.00     0.068 A 
HETATM   10  C   UNL     1      26.052  46.882  53.865  1.00  0.00     0.037 A 
HETATM   11  C   UNL     1      25.535  47.036  52.572  1.00  0.00     0.012 A 
BRANCH   9  12
HETATM   12  O   UNL     1      27.505  45.582  55.365  1.00  0.00    -0.356 OA
HETATM   13  C   UNL     1      28.801  44.996  55.336  1.00  0.00     0.210 C 
ENDBRANCH   9  12
ENDBRANCH   5   6
BRANCH   5  14
HETATM   14  C   UNL     1      25.811  47.659  49.515  1.00  0.00    -0.031 A 
HETATM   15  C   UNL     1      24.825  48.559  49.082  1.00  0.00     0.009 A 
HETATM   16  C   UNL     1      25.179  49.799  48.544  1.00  0.00     0.001 A 
HETATM   17  C   UNL     1      26.521  50.158  48.438  1.00  0.00     0.000 A 
HETATM   18  C   UNL     1      27.511  49.281  48.872  1.00  0.00     0.001 A 
HETATM   19  C   UNL     1      27.161  48.041  49.407  1.00  0.00     0.009 A 
ENDBRANCH   5  14
ENDBRANCH   1   5
BRANCH   2  20
HETATM   20  C   UNL     1      21.942  45.165  49.022  1.00  0.00     0.185 C 
BRANCH  20  21
HETATM   21  S   UNL     1      21.558  46.271  47.630  1.00  0.00    -0.081 SA
BRANCH  21  22
HETATM   22  C   UNL     1      20.760  47.556  48.463  1.00  0.00     0.192 A 
HETATM   23  N   UNL     1      19.398  47.699  48.526  1.00  0.00    -0.311 N 
HETATM   24  C   UNL     1      19.189  48.894  49.178  1.00  0.00     0.130 A 
HETATM   25  C   UNL     1      18.408  46.804  47.962  1.00  0.00     0.133 C 
HETATM   26  C   UNL     1      17.871  49.541  49.433  1.00  0.00     0.081 C 
HETATM   27  N   UNL     1      20.358  49.395  49.531  1.00  0.00    -0.134 NA
HETATM   28  C   UNL     1      16.906  49.407  48.260  1.00  0.00     0.008 C 
HETATM   29  C   UNL     1      16.189  48.058  48.210  1.00  0.00     0.002 C 
HETATM   30  C   UNL     1      17.029  46.846  48.612  1.00  0.00     0.020 C 
HETATM   31  N   UNL     1      21.342  48.556  49.079  1.00  0.00    -0.123 NA
ENDBRANCH  21  22
ENDBRANCH  20  21
ENDBRANCH   2  20
TORSDOF 7
ENDMDL
MODEL 9
REMARK VINA RESULT:      -7.7      3.517      6.650
REMARK  7 active torsions:
REMARK  status: ('A' for Active; 'I' for Inactive)
REMARK    1  A    between atoms: O_2  and  C_3 
REMARK    2  A    between atoms: C_6  and  C_7 
REMARK    3  A    between atoms: C_7  and  N_8 
REMARK    4  A    between atoms: C_7  and  C_23 
REMARK       I    between atoms: N_8  and  C_9 
REMARK    5  A    between atoms: C_9  and  C_10 
REMARK    6  A    between atoms: C_10  and  S_11 
REMARK    7  A    between atoms: S_11  and  C_12 
ROOT
HETATM    1  N   UNL     1      25.734  44.557  51.292  1.00  0.00    -0.348 N 
HETATM    2  C   UNL     1      24.831  43.543  51.051  1.00  0.00     0.228 C 
HETATM    3  O   UNL     1      23.616  43.677  51.159  1.00  0.00    -0.273 OA
HETATM    4  H   UNL     1      26.718  44.334  51.338  1.00  0.00     0.163 HD
ENDROOT
BRANCH   1   5
HETATM    5  C   UNL     1      25.315  45.856  51.795  1.00  0.00     0.151 C 
BRANCH   5   6
HETATM    6  C   UNL     1      25.337  46.951  50.733  1.00  0.00    -0.031 A 
HETATM    7  C   UNL     1      24.120  47.401  50.195  1.00  0.00     0.012 A 
HETATM    8  C   UNL     1      24.092  48.446  49.267  1.00  0.00     0.037 A 
HETATM    9  C   UNL     1      25.272  49.075  48.870  1.00  0.00     0.068 A 
HETATM   10  C   UNL     1      26.489  48.627  49.383  1.00  0.00     0.037 A 
HETATM   11  C   UNL     1      26.521  47.574  50.307  1.00  0.00     0.012 A 
BRANCH   9  12
HETATM   12  O   UNL     1      25.104  50.098  47.979  1.00  0.00    -0.356 OA
HETATM   13  C   UNL     1      23.776  50.580  47.811  1.00  0.00     0.210 C 
ENDBRANCH   9  12
ENDBRANCH   5   6
BRANCH   5  14
HETATM   14  C   UNL     1      26.148  46.216  53.022  1.00  0.00    -0.031 A 
HETATM   15  C   UNL     1      25.871  47.394  53.733  1.00  0.00     0.009 A 
HETATM   16  C   UNL     1      26.619  47.737  54.863  1.00  0.00     0.001 A 
HETATM   17  C   UNL     1      27.647  46.904  55.300  1.00  0.00     0.000 A 
HETATM   18  C   UNL     1      27.928  45.727  54.611  1.00  0.00     0.001 A 
HETATM   19  C   UNL     1      27.184  45.384  53.482  1.00  0.00     0.009 A 
ENDBRANCH   5  14
ENDBRANCH   1   5
BRANCH   2  20
HETATM   20  C   UNL     1      25.475  42.224  50.669  1.00  0.00     0.185 C 
BRANCH  20  21
HETATM   21  S   UNL     1      26.784  42.556  49.450  1.00  0.00    -0.081 SA
BRANCH  21  22
HETATM   22  C   UNL     1      27.642  41.057  49.497  1.00  0.00     0.192 A 
HETATM   23  N   UNL     1      27.791  40.226  48.417  1.00  0.00    -0.311 N 
HETATM   24  C   UNL     1      28.432  39.110  48.907  1.00  0.00     0.130 A 
HETATM   25  C   UNL     1      27.310  40.462  47.071  1.00  0.00     0.133 C 
HETATM   26  C   UNL     1      28.760  37.874  48.139  1.00  0.00     0.081 C 
HETATM   27  N   UNL     1      28.698  39.299  50.185  1.00  0.00    -0.134 NA
HETATM   28  C   UNL     1      27.656  37.464  47.172  1.00  0.00     0.008 C 
HETATM   29  C   UNL     1      27.679  38.239  45.854  1.00  0.00     0.002 C 
HETATM   30  C   UNL     1      28.049  39.718  45.963  1.00  0.00     0.020 C 
HETATM   31  N   UNL     1      28.198  40.520  50.554  1.00  0.00    -0.123 NA
ENDBRANCH  21  22
ENDBRANCH  20  21
ENDBRANCH   2  20
TORSDOF 7
ENDMDL
MODEL 10
REMARK VINA RESULT:      -7.4      4.702      7.116
REMARK  7 active torsions:
REMARK  status: ('A' for Active; 'I' for Inactive)
REMARK    1  A    between atoms: O_2  and  C_3 
REMARK    2  A    between atoms: C_6  and  C_7 
REMARK    3  A    between atoms: C_7  and  N_8 
REMARK    4  A    between atoms: C_7  and  C_23 
REMARK       I    between atoms: N_8  and  C_9 
REMARK    5  A    between atoms: C_9  and  C_10 
REMARK    6  A    between atoms: C_10  and  S_11 
REMARK    7  A    between atoms: S_11  and  C_12 
ROOT
HETATM    1  N   UNL     1      22.477  47.656  49.160  1.00  0.00    -0.348 N 
HETATM    2  C   UNL     1      23.660  48.265  49.522  1.00  0.00     0.228 C 
HETATM    3  O   UNL     1      23.983  49.391  49.157  1.00  0.00    -0.273 OA
HETATM    4  H   UNL     1      22.350  46.675  49.367  1.00  0.00     0.163 HD
ENDROOT
BRANCH   1   5
HETATM    5  C   UNL     1      21.550  48.272  48.225  1.00  0.00     0.151 C 
BRANCH   5   6
HETATM    6  C   UNL     1      20.642  49.314  48.870  1.00  0.00    -0.031 A 
HETATM    7  C   UNL     1      20.743  50.653  48.458  1.00  0.00     0.012 A 
HETATM    8  C   UNL     1      19.887  51.627  48.978  1.00  0.00     0.037 A 
HETATM    9  C   UNL     1      18.902  51.286  49.905  1.00  0.00     0.068 A 
HETATM   10  C   UNL     1      18.802  49.964  50.336  1.00  0.00     0.037 A 
HETATM   11  C   UNL     1      19.665  48.986  49.823  1.00  0.00     0.012 A 
BRANCH   9  12
HETATM   12  O   UNL     1      18.115  52.326  50.314  1.00  0.00    -0.356 OA
HETATM   13  C   UNL     1      16.772  52.327  49.846  1.00  0.00     0.210 C 
ENDBRANCH   9  12
ENDBRANCH   5   6
BRANCH   5  14
HETATM   14  C   UNL     1      20.765  47.183  47.499  1.00  0.00    -0.031 A 
HETATM   15  C   UNL     1      20.866  45.848  47.922  1.00  0.00     0.009 A 
HETATM   16  C   UNL     1      20.148  44.840  47.274  1.00  0.00     0.001 A 
HETATM   17  C   UNL     1      19.317  45.152  46.201  1.00  0.00     0.000 A 
HETATM   18  C   UNL     1      19.198  46.472  45.774  1.00  0.00     0.001 A 
HETATM   19  C   UNL     1      19.915  47.482  46.419  1.00  0.00     0.009 A 
ENDBRANCH   5  14
ENDBRANCH   1   5
BRANCH   2  20
HETATM   20  C   UNL     1      24.554  47.402  50.393  1.00  0.00     0.185 C 
BRANCH  20  21
HETATM   21  S   UNL     1      24.215  45.656  50.014  1.00  0.00    -0.081 SA
BRANCH  21  22
HETATM   22  C   UNL     1      25.730  44.944  50.439  1.00  0.00     0.192 A 
HETATM   23  N   UNL     1      26.110  44.662  51.726  1.00  0.00    -0.311 N 
HETATM   24  C   UNL     1      27.408  44.215  51.630  1.00  0.00     0.130 A 
HETATM   25  C   UNL     1      25.320  44.863  52.924  1.00  0.00     0.133 C 
HETATM   26  C   UNL     1      28.301  43.848  52.766  1.00  0.00     0.081 C 
HETATM   27  N   UNL     1      27.752  44.178  50.356  1.00  0.00    -0.134 NA
HETATM   28  C   UNL     1      28.153  44.781  53.962  1.00  0.00     0.008 C 
HETATM   29  C   UNL     1      26.954  44.451  54.851  1.00  0.00     0.002 C 
HETATM   30  C   UNL     1      25.694  43.992  54.119  1.00  0.00     0.020 C 
HETATM   31  N   UNL     1      26.699  44.639  49.611  1.00  0.00    -0.123 NA
ENDBRANCH  21  22
ENDBRANCH  20  21
ENDBRANCH   2  20
TORSDOF 7
ENDMDL
