MODEL 1
REMARK VINA RESULT:      -8.1      0.000      0.000
REMARK  6 active torsions:
REMARK  status: ('A' for Active; 'I' for Inactive)
REMARK    1  A    between atoms: C_2  and  C_3 
REMARK    2  A    between atoms: C_3  and  O_4 
REMARK    3  A    between atoms: C_3  and  C_12 
REMARK    4  A    between atoms: O_4  and  C_5 
REMARK    5  A    between atoms: C_12  and  N_13 
REMARK       I    between atoms: N_13  and  C_14 
REMARK       I    between atoms: C_14  and  N_15 
REMARK    6  A    between atoms: N_15  and  C_16 
ROOT
HETATM    1  N   UNL     1      26.434  45.078  51.436  1.00  0.00    -0.340 N 
HETATM    2  C   UNL     1      26.158  45.782  50.290  1.00  0.00     0.320 C 
HETATM    3  N   UNL     1      26.111  47.137  50.532  1.00  0.00    -0.307 N 
HETATM    4  O   UNL     1      25.981  45.264  49.196  1.00  0.00    -0.247 OA
HETATM    5  H   UNL     1      26.469  45.596  52.301  1.00  0.00     0.164 HD
HETATM    6  H   UNL     1      26.734  47.468  51.250  1.00  0.00     0.170 HD
ENDROOT
BRANCH   1   7
HETATM    7  C   UNL     1      26.812  43.671  51.499  1.00  0.00     0.156 C 
BRANCH   7   8
HETATM    8  C   UNL     1      28.114  43.273  52.228  1.00  0.00     0.146 C 
BRANCH   8   9
HETATM    9  C   UNL     1      28.591  41.843  51.924  1.00  0.00     0.029 C 
HETATM   10  C   UNL     1      27.512  40.922  51.366  1.00  0.00     0.007 C 
ENDBRANCH   8   9
BRANCH   8  11
HETATM   11  O   UNL     1      27.842  43.393  53.636  1.00  0.00    -0.343 OA
BRANCH  11  12
HETATM   12  C   UNL     1      28.818  43.825  54.494  1.00  0.00     0.091 A 
HETATM   13  C   UNL     1      28.659  45.117  55.022  1.00  0.00     0.067 A 
HETATM   14 CL   UNL     1      27.287  46.093  54.615  1.00  0.00    -0.081 Cl
HETATM   15  C   UNL     1      29.607  45.658  55.895  1.00  0.00     0.026 A 
HETATM   16  C   UNL     1      30.729  44.916  56.253  1.00  0.00     0.002 A 
HETATM   17  C   UNL     1      30.894  43.629  55.745  1.00  0.00     0.003 A 
HETATM   18  C   UNL     1      29.941  43.084  54.877  1.00  0.00     0.038 A 
ENDBRANCH  11  12
ENDBRANCH   8  11
ENDBRANCH   7   8
ENDBRANCH   1   7
BRANCH   3  19
HETATM   19  C   UNL     1      25.582  48.095  49.636  1.00  0.00     0.059 A 
HETATM   20  C   UNL     1      26.432  49.010  48.993  1.00  0.00    -0.032 A 
HETATM   21  C   UNL     1      27.926  48.956  49.125  1.00  0.00     0.050 C 
HETATM   22  C   UNL     1      25.859  49.980  48.159  1.00  0.00     0.028 A 
HETATM   23  C   UNL     1      24.481  50.014  48.001  1.00  0.00     0.117 A 
HETATM   24  N   UNL     1      23.641  49.154  48.604  1.00  0.00    -0.271 NA
HETATM   25  C   UNL     1      24.209  48.213  49.401  1.00  0.00     0.146 A 
ENDBRANCH   3  19
TORSDOF 6
ENDMDL
MODEL 2
REMARK VINA RESULT:      -7.9      4.155      5.817
REMARK  6 active torsions:
REMARK  status: ('A' for Active; 'I' for Inactive)
REMARK    1  A    between atoms: C_2  and  C_3 
REMARK    2  A    between atoms: C_3  and  O_4 
REMARK    3  A    between atoms: C_3  and  C_12 
REMARK    4  A    between atoms: O_4  and  C_5 
REMARK    5  A    between atoms: C_12  and  N_13 
REMARK       I    between atoms: N_13  and  C_14 
REMARK       I    between atoms: C_14  and  N_15 
REMARK    6  A    between atoms: N_15  and  C_16 
ROOT
HETATM    1  N   UNL     1      26.611  44.194  53.841  1.00  0.00    -0.340 N 
HETATM    2  C   UNL     1      26.758  43.837  52.523  1.00  0.00     0.320 C 
HETATM    3  N   UNL     1      26.573  42.485  52.346  1.00  0.00    -0.307 N 
HETATM    4  O   UNL     1      27.018  44.628  51.626  1.00  0.00    -0.247 OA
HETATM    5  H   UNL     1      26.490  43.451  54.512  1.00  0.00     0.164 HD
HETATM    6  H   UNL     1      25.904  42.057  52.965  1.00  0.00     0.170 HD
ENDROOT
BRANCH   1   7
HETATM    7  C   UNL     1      26.481  45.558  54.343  1.00  0.00     0.156 C 
BRANCH   7   8
HETATM    8  C   UNL     1      27.565  46.119  55.287  1.00  0.00     0.146 C 
BRANCH   8   9
HETATM    9  C   UNL     1      27.731  47.646  55.214  1.00  0.00     0.029 C 
HETATM   10  C   UNL     1      26.426  48.428  55.294  1.00  0.00     0.007 C 
ENDBRANCH   8   9
BRANCH   8  11
HETATM   11  O   UNL     1      28.801  45.489  54.904  1.00  0.00    -0.343 OA
BRANCH  11  12
HETATM   12  C   UNL     1      29.678  45.050  55.858  1.00  0.00     0.091 A 
HETATM   13  C   UNL     1      30.466  43.937  55.518  1.00  0.00     0.067 A 
HETATM   14 CL   UNL     1      30.336  43.184  53.964  1.00  0.00    -0.081 Cl
HETATM   15  C   UNL     1      31.382  43.400  56.428  1.00  0.00     0.026 A 
HETATM   16  C   UNL     1      31.524  43.966  57.691  1.00  0.00     0.002 A 
HETATM   17  C   UNL     1      30.757  45.077  58.038  1.00  0.00     0.003 A 
HETATM   18  C   UNL     1      29.845  45.620  57.125  1.00  0.00     0.038 A 
ENDBRANCH  11  12
ENDBRANCH   8  11
ENDBRANCH   7   8
ENDBRANCH   1   7
BRANCH   3  19
HETATM   19  C   UNL     1      26.926  41.772  51.177  1.00  0.00     0.059 A 
HETATM   20  C   UNL     1      28.037  40.911  51.179  1.00  0.00    -0.032 A 
HETATM   21  C   UNL     1      28.829  40.617  52.419  1.00  0.00     0.050 C 
HETATM   22  C   UNL     1      28.386  40.270  49.982  1.00  0.00     0.028 A 
HETATM   23  C   UNL     1      27.636  40.508  48.839  1.00  0.00     0.117 A 
HETATM   24  N   UNL     1      26.570  41.327  48.805  1.00  0.00    -0.271 NA
HETATM   25  C   UNL     1      26.236  41.933  49.971  1.00  0.00     0.146 A 
ENDBRANCH   3  19
TORSDOF 6
ENDMDL
MODEL 3
REMARK VINA RESULT:      -7.9      4.817      6.857
REMARK  6 active torsions:
REMARK  status: ('A' for Active; 'I' for Inactive)
REMARK    1  A    between atoms: C_2  and  C_3 
REMARK    2  A    between atoms: C_3  and  O_4 
REMARK    3  A    between atoms: C_3  and  C_12 
REMARK    4  A    between atoms: O_4  and  C_5 
REMARK    5  A    between atoms: C_12  and  N_13 
REMARK       I    between atoms: N_13  and  C_14 
REMARK       I    between atoms: C_14  and  N_15 
REMARK    6  A    between atoms: N_15  and  C_16 
ROOT
HETATM    1  N   UNL     1      29.119  41.317  52.054  1.00  0.00    -0.340 N 
HETATM    2  C   UNL     1      28.432  40.916  50.935  1.00  0.00     0.320 C 
HETATM    3  N   UNL     1      28.371  39.543  50.848  1.00  0.00    -0.307 N 
HETATM    4  O   UNL     1      27.937  41.687  50.125  1.00  0.00    -0.247 OA
HETATM    5  H   UNL     1      29.566  40.600  52.605  1.00  0.00     0.164 HD
HETATM    6  H   UNL     1      28.327  39.058  51.729  1.00  0.00     0.170 HD
ENDROOT
BRANCH   1   7
HETATM    7  C   UNL     1      29.151  42.672  52.592  1.00  0.00     0.156 C 
BRANCH   7   8
HETATM    8  C   UNL     1      28.753  42.906  54.066  1.00  0.00     0.146 C 
BRANCH   8   9
HETATM    9  C   UNL     1      27.235  42.975  54.302  1.00  0.00     0.029 C 
HETATM   10  C   UNL     1      26.592  44.296  53.899  1.00  0.00     0.007 C 
ENDBRANCH   8   9
BRANCH   8  11
HETATM   11  O   UNL     1      29.351  44.157  54.452  1.00  0.00    -0.343 OA
BRANCH  11  12
HETATM   12  C   UNL     1      30.038  44.259  55.632  1.00  0.00     0.091 A 
HETATM   13  C   UNL     1      29.766  45.394  56.416  1.00  0.00     0.067 A 
HETATM   14 CL   UNL     1      28.608  46.578  55.914  1.00  0.00    -0.081 Cl
HETATM   15  C   UNL     1      30.426  45.601  57.631  1.00  0.00     0.026 A 
HETATM   16  C   UNL     1      31.368  44.680  58.080  1.00  0.00     0.002 A 
HETATM   17  C   UNL     1      31.639  43.546  57.317  1.00  0.00     0.003 A 
HETATM   18  C   UNL     1      30.973  43.333  56.105  1.00  0.00     0.038 A 
ENDBRANCH  11  12
ENDBRANCH   8  11
ENDBRANCH   7   8
ENDBRANCH   1   7
BRANCH   3  19
HETATM   19  C   UNL     1      27.984  38.828  49.691  1.00  0.00     0.059 A 
HETATM   20  C   UNL     1      28.954  38.222  48.875  1.00  0.00    -0.032 A 
HETATM   21  C   UNL     1      30.412  38.200  49.232  1.00  0.00     0.050 C 
HETATM   22  C   UNL     1      28.531  37.573  47.706  1.00  0.00     0.028 A 
HETATM   23  C   UNL     1      27.181  37.556  47.388  1.00  0.00     0.117 A 
HETATM   24  N   UNL     1      26.230  38.129  48.147  1.00  0.00    -0.271 NA
HETATM   25  C   UNL     1      26.650  38.744  49.280  1.00  0.00     0.146 A 
ENDBRANCH   3  19
TORSDOF 6
ENDMDL
MODEL 4
REMARK VINA RESULT:      -7.8      4.743      5.905
REMARK  6 active torsions:
REMARK  status: ('A' for Active; 'I' for Inactive)
REMARK    1  A    between atoms: C_2  and  C_3 
REMARK    2  A    between atoms: C_3  and  O_4 
REMARK    3  A    between atoms: C_3  and  C_12 
REMARK    4  A    between atoms: O_4  and  C_5 
REMARK    5  A    between atoms: C_12  and  N_13 
REMARK       I    between atoms: N_13  and  C_14 
REMARK       I    between atoms: C_14  and  N_15 
REMARK    6  A    between atoms: N_15  and  C_16 
ROOT
HETATM    1  N   UNL     1      27.735  41.022  52.978  1.00  0.00    -0.340 N 
HETATM    2  C   UNL     1      27.592  41.067  51.613  1.00  0.00     0.320 C 
HETATM    3  N   UNL     1      26.433  40.443  51.209  1.00  0.00    -0.307 N 
HETATM    4  O   UNL     1      28.395  41.599  50.859  1.00  0.00    -0.247 OA
HETATM    5  H   UNL     1      27.063  40.478  53.497  1.00  0.00     0.164 HD
HETATM    6  H   UNL     1      25.660  40.513  51.851  1.00  0.00     0.170 HD
ENDROOT
BRANCH   1   7
HETATM    7  C   UNL     1      28.693  41.798  53.758  1.00  0.00     0.156 C 
BRANCH   7   8
HETATM    8  C   UNL     1      28.236  43.121  54.410  1.00  0.00     0.146 C 
BRANCH   8   9
HETATM    9  C   UNL     1      27.108  43.838  53.649  1.00  0.00     0.029 C 
HETATM   10  C   UNL     1      25.857  44.104  54.477  1.00  0.00     0.007 C 
ENDBRANCH   8   9
BRANCH   8  11
HETATM   11  O   UNL     1      29.395  43.973  54.452  1.00  0.00    -0.343 OA
BRANCH  11  12
HETATM   12  C   UNL     1      30.067  44.168  55.628  1.00  0.00     0.091 A 
HETATM   13  C   UNL     1      29.774  45.352  56.326  1.00  0.00     0.067 A 
HETATM   14 CL   UNL     1      28.609  46.484  55.727  1.00  0.00    -0.081 Cl
HETATM   15  C   UNL     1      30.418  45.655  57.530  1.00  0.00     0.026 A 
HETATM   16  C   UNL     1      31.364  44.779  58.054  1.00  0.00     0.002 A 
HETATM   17  C   UNL     1      31.656  43.596  57.378  1.00  0.00     0.003 A 
HETATM   18  C   UNL     1      31.007  43.289  56.177  1.00  0.00     0.038 A 
ENDBRANCH  11  12
ENDBRANCH   8  11
ENDBRANCH   7   8
ENDBRANCH   1   7
BRANCH   3  19
HETATM   19  C   UNL     1      26.140  40.078  49.875  1.00  0.00     0.059 A 
HETATM   20  C   UNL     1      25.251  40.850  49.107  1.00  0.00    -0.032 A 
HETATM   21  C   UNL     1      24.660  42.137  49.605  1.00  0.00     0.050 C 
HETATM   22  C   UNL     1      24.943  40.418  47.809  1.00  0.00     0.028 A 
HETATM   23  C   UNL     1      25.514  39.249  47.328  1.00  0.00     0.117 A 
HETATM   24  N   UNL     1      26.365  38.489  48.038  1.00  0.00    -0.271 NA
HETATM   25  C   UNL     1      26.663  38.922  49.289  1.00  0.00     0.146 A 
ENDBRANCH   3  19
TORSDOF 6
ENDMDL
MODEL 5
REMARK VINA RESULT:      -7.8      5.817     10.380
REMARK  6 active torsions:
REMARK  status: ('A' for Active; 'I' for Inactive)
REMARK    1  A    between atoms: C_2  and  C_3 
REMARK    2  A    between atoms: C_3  and  O_4 
REMARK    3  A    between atoms: C_3  and  C_12 
REMARK    4  A    between atoms: O_4  and  C_5 
REMARK    5  A    between atoms: C_12  and  N_13 
REMARK       I    between atoms: N_13  and  C_14 
REMARK       I    between atoms: C_14  and  N_15 
REMARK    6  A    between atoms: N_15  and  C_16 
ROOT
HETATM    1  N   UNL     1      20.808  48.099  49.421  1.00  0.00    -0.340 N 
HETATM    2  C   UNL     1      22.015  48.050  48.767  1.00  0.00     0.320 C 
HETATM    3  N   UNL     1      23.031  48.547  49.552  1.00  0.00    -0.307 N 
HETATM    4  O   UNL     1      22.160  47.616  47.633  1.00  0.00    -0.247 OA
HETATM    5  H   UNL     1      20.784  48.562  50.317  1.00  0.00     0.164 HD
HETATM    6  H   UNL     1      22.929  48.387  50.541  1.00  0.00     0.170 HD
ENDROOT
BRANCH   1   7
HETATM    7  C   UNL     1      19.585  47.426  48.998  1.00  0.00     0.156 C 
BRANCH   7   8
HETATM    8  C   UNL     1      18.226  48.122  49.226  1.00  0.00     0.146 C 
BRANCH   8   9
HETATM    9  C   UNL     1      17.009  47.254  48.865  1.00  0.00     0.029 C 
HETATM   10  C   UNL     1      17.334  46.030  48.018  1.00  0.00     0.007 C 
ENDBRANCH   8   9
BRANCH   8  11
HETATM   11  O   UNL     1      18.231  49.299  48.398  1.00  0.00    -0.343 OA
BRANCH  11  12
HETATM   12  C   UNL     1      17.526  50.411  48.774  1.00  0.00     0.091 A 
HETATM   13  C   UNL     1      18.265  51.447  49.370  1.00  0.00     0.067 A 
HETATM   14 CL   UNL     1      19.978  51.318  49.593  1.00  0.00    -0.081 Cl
HETATM   15  C   UNL     1      17.639  52.619  49.804  1.00  0.00     0.026 A 
HETATM   16  C   UNL     1      16.264  52.773  49.649  1.00  0.00     0.002 A 
HETATM   17  C   UNL     1      15.521  51.758  49.050  1.00  0.00     0.003 A 
HETATM   18  C   UNL     1      16.149  50.588  48.608  1.00  0.00     0.038 A 
ENDBRANCH  11  12
ENDBRANCH   8  11
ENDBRANCH   7   8
ENDBRANCH   1   7
BRANCH   3  19
HETATM   19  C   UNL     1      24.319  48.889  49.077  1.00  0.00     0.059 A 
HETATM   20  C   UNL     1      25.462  48.290  49.633  1.00  0.00    -0.032 A 
HETATM   21  C   UNL     1      25.385  47.196  50.659  1.00  0.00     0.050 C 
HETATM   22  C   UNL     1      26.721  48.702  49.173  1.00  0.00     0.028 A 
HETATM   23  C   UNL     1      26.801  49.685  48.198  1.00  0.00     0.117 A 
HETATM   24  N   UNL     1      25.727  50.279  47.650  1.00  0.00    -0.271 NA
HETATM   25  C   UNL     1      24.514  49.864  48.095  1.00  0.00     0.146 A 
ENDBRANCH   3  19
TORSDOF 6
ENDMDL
MODEL 6
REMARK VINA RESULT:      -7.7      3.595      7.138
REMARK  6 active torsions:
REMARK  status: ('A' for Active; 'I' for Inactive)
REMARK    1  A    between atoms: C_2  and  C_3 
REMARK    2  A    between atoms: C_3  and  O_4 
REMARK    3  A    between atoms: C_3  and  C_12 
REMARK    4  A    between atoms: O_4  and  C_5 
REMARK    5  A    between atoms: C_12  and  N_13 
REMARK       I    between atoms: N_13  and  C_14 
REMARK       I    between atoms: C_14  and  N_15 
REMARK    6  A    between atoms: N_15  and  C_16 
ROOT
HETATM    1  N   UNL     1      29.489  42.273  52.693  1.00  0.00    -0.340 N 
HETATM    2  C   UNL     1      29.312  42.730  53.976  1.00  0.00     0.320 C 
HETATM    3  N   UNL     1      30.330  43.579  54.350  1.00  0.00    -0.307 N 
HETATM    4  O   UNL     1      28.366  42.421  54.687  1.00  0.00    -0.247 OA
HETATM    5  H   UNL     1      30.350  42.516  52.228  1.00  0.00     0.164 HD
HETATM    6  H   UNL     1      30.717  44.140  53.610  1.00  0.00     0.170 HD
ENDROOT
BRANCH   1   7
HETATM    7  C   UNL     1      28.486  41.579  51.893  1.00  0.00     0.156 C 
BRANCH   7   8
HETATM    8  C   UNL     1      27.129  42.265  51.626  1.00  0.00     0.146 C 
BRANCH   8   9
HETATM    9  C   UNL     1      26.317  41.627  50.485  1.00  0.00     0.029 C 
HETATM   10  C   UNL     1      26.486  42.306  49.132  1.00  0.00     0.007 C 
ENDBRANCH   8   9
BRANCH   8  11
HETATM   11  O   UNL     1      27.427  43.632  51.288  1.00  0.00    -0.343 OA
BRANCH  11  12
HETATM   12  C   UNL     1      26.793  44.658  51.937  1.00  0.00     0.091 A 
HETATM   13  C   UNL     1      26.571  45.827  51.189  1.00  0.00     0.067 A 
HETATM   14 CL   UNL     1      27.060  45.941  49.531  1.00  0.00    -0.081 Cl
HETATM   15  C   UNL     1      25.945  46.938  51.762  1.00  0.00     0.026 A 
HETATM   16  C   UNL     1      25.534  46.898  53.091  1.00  0.00     0.002 A 
HETATM   17  C   UNL     1      25.739  45.742  53.841  1.00  0.00     0.003 A 
HETATM   18  C   UNL     1      26.357  44.626  53.265  1.00  0.00     0.038 A 
ENDBRANCH  11  12
ENDBRANCH   8  11
ENDBRANCH   7   8
ENDBRANCH   1   7
BRANCH   3  19
HETATM   19  C   UNL     1      30.585  43.989  55.679  1.00  0.00     0.059 A 
HETATM   20  C   UNL     1      30.046  45.190  56.168  1.00  0.00    -0.032 A 
HETATM   21  C   UNL     1      29.097  46.035  55.367  1.00  0.00     0.050 C 
HETATM   22  C   UNL     1      30.373  45.587  57.472  1.00  0.00     0.028 A 
HETATM   23  C   UNL     1      31.219  44.794  58.232  1.00  0.00     0.117 A 
HETATM   24  N   UNL     1      31.753  43.641  57.793  1.00  0.00    -0.271 NA
HETATM   25  C   UNL     1      31.421  43.262  56.533  1.00  0.00     0.146 A 
ENDBRANCH   3  19
TORSDOF 6
ENDMDL
MODEL 7
REMARK VINA RESULT:      -7.7      2.535      7.707
REMARK  6 active torsions:
REMARK  status: ('A' for Active; 'I' for Inactive)
REMARK    1  A    between atoms: C_2  and  C_3 
REMARK    2  A    between atoms: C_3  and  O_4 
REMARK    3  A    between atoms: C_3  and  C_12 
REMARK    4  A    between atoms: O_4  and  C_5 
REMARK    5  A    between atoms: C_12  and  N_13 
REMARK       I    between atoms: N_13  and  C_14 
REMARK       I    between atoms: C_14  and  N_15 
REMARK    6  A    between atoms: N_15  and  C_16 
ROOT
HETATM    1  N   UNL     1      25.808  44.697  52.576  1.00  0.00    -0.340 N 
HETATM    2  C   UNL     1      26.777  45.339  53.307  1.00  0.00     0.320 C 
HETATM    3  N   UNL     1      27.655  44.443  53.874  1.00  0.00    -0.307 N 
HETATM    4  O   UNL     1      26.845  46.554  53.431  1.00  0.00    -0.247 OA
HETATM    5  H   UNL     1      25.789  43.689  52.616  1.00  0.00     0.164 HD
HETATM    6  H   UNL     1      27.827  43.610  53.336  1.00  0.00     0.170 HD
ENDROOT
BRANCH   1   7
HETATM    7  C   UNL     1      24.887  45.333  51.641  1.00  0.00     0.156 C 
BRANCH   7   8
HETATM    8  C   UNL     1      25.412  45.794  50.264  1.00  0.00     0.146 C 
BRANCH   8   9
HETATM    9  C   UNL     1      26.625  44.995  49.756  1.00  0.00     0.029 C 
HETATM   10  C   UNL     1      26.326  43.540  49.416  1.00  0.00     0.007 C 
ENDBRANCH   8   9
BRANCH   8  11
HETATM   11  O   UNL     1      25.783  47.176  50.414  1.00  0.00    -0.343 OA
BRANCH  11  12
HETATM   12  C   UNL     1      25.241  48.130  49.596  1.00  0.00     0.091 A 
HETATM   13  C   UNL     1      26.150  48.959  48.916  1.00  0.00     0.067 A 
HETATM   14 CL   UNL     1      27.860  48.760  49.099  1.00  0.00    -0.081 Cl
HETATM   15  C   UNL     1      25.699  49.975  48.068  1.00  0.00     0.026 A 
HETATM   16  C   UNL     1      24.334  50.179  47.888  1.00  0.00     0.002 A 
HETATM   17  C   UNL     1      23.422  49.357  48.548  1.00  0.00     0.003 A 
HETATM   18  C   UNL     1      23.873  48.334  49.390  1.00  0.00     0.038 A 
ENDBRANCH  11  12
ENDBRANCH   8  11
ENDBRANCH   7   8
ENDBRANCH   1   7
BRANCH   3  19
HETATM   19  C   UNL     1      28.580  44.761  54.895  1.00  0.00     0.059 A 
HETATM   20  C   UNL     1      29.802  44.075  54.985  1.00  0.00    -0.032 A 
HETATM   21  C   UNL     1      30.240  43.066  53.962  1.00  0.00     0.050 C 
HETATM   22  C   UNL     1      30.664  44.381  56.048  1.00  0.00     0.028 A 
HETATM   23  C   UNL     1      30.284  45.339  56.976  1.00  0.00     0.117 A 
HETATM   24  N   UNL     1      29.121  46.011  56.920  1.00  0.00    -0.271 NA
HETATM   25  C   UNL     1      28.300  45.713  55.881  1.00  0.00     0.146 A 
ENDBRANCH   3  19
TORSDOF 6
ENDMDL
MODEL 8
REMARK VINA RESULT:      -7.5      6.177     10.258
REMARK  6 active torsions:
REMARK  status: ('A' for Active; 'I' for Inactive)
REMARK    1  A    between atoms: C_2  and  C_3 
REMARK    2  A    between atoms: C_3  and  O_4 
REMARK    3  A    between atoms: C_3  and  C_12 
REMARK    4  A    between atoms: O_4  and  C_5 
REMARK    5  A    between atoms: C_12  and  N_13 
REMARK       I    between atoms: N_13  and  C_14 
REMARK       I    between atoms: C_14  and  N_15 
REMARK    6  A    between atoms: N_15  and  C_16 
ROOT
HETATM    1  N   UNL     1      20.851  47.721  49.175  1.00  0.00    -0.340 N 
HETATM    2  C   UNL     1      22.135  47.684  48.687  1.00  0.00     0.320 C 
HETATM    3  N   UNL     1      23.027  48.230  49.582  1.00  0.00    -0.307 N 
HETATM    4  O   UNL     1      22.438  47.219  47.597  1.00  0.00    -0.247 OA
HETATM    5  H   UNL     1      20.699  48.210  50.044  1.00  0.00     0.164 HD
HETATM    6  H   UNL     1      22.799  48.098  50.553  1.00  0.00     0.170 HD
ENDROOT
BRANCH   1   7
HETATM    7  C   UNL     1      19.710  47.004  48.618  1.00  0.00     0.156 C 
BRANCH   7   8
HETATM    8  C   UNL     1      18.292  47.585  48.806  1.00  0.00     0.146 C 
BRANCH   8   9
HETATM    9  C   UNL     1      17.163  46.640  48.359  1.00  0.00     0.029 C 
HETATM   10  C   UNL     1      17.168  46.308  46.873  1.00  0.00     0.007 C 
ENDBRANCH   8   9
BRANCH   8  11
HETATM   11  O   UNL     1      18.241  48.790  48.020  1.00  0.00    -0.343 OA
BRANCH  11  12
HETATM   12  C   UNL     1      18.020  49.999  48.623  1.00  0.00     0.091 A 
HETATM   13  C   UNL     1      16.707  50.497  48.561  1.00  0.00     0.067 A 
HETATM   14 CL   UNL     1      15.443  49.608  47.780  1.00  0.00    -0.081 Cl
HETATM   15  C   UNL     1      16.380  51.731  49.131  1.00  0.00     0.026 A 
HETATM   16  C   UNL     1      17.359  52.486  49.770  1.00  0.00     0.002 A 
HETATM   17  C   UNL     1      18.662  51.999  49.847  1.00  0.00     0.003 A 
HETATM   18  C   UNL     1      18.989  50.761  49.284  1.00  0.00     0.038 A 
ENDBRANCH  11  12
ENDBRANCH   8  11
ENDBRANCH   7   8
ENDBRANCH   1   7
BRANCH   3  19
HETATM   19  C   UNL     1      24.359  48.591  49.270  1.00  0.00     0.059 A 
HETATM   20  C   UNL     1      24.622  49.736  48.499  1.00  0.00    -0.032 A 
HETATM   21  C   UNL     1      23.542  50.685  48.067  1.00  0.00     0.050 C 
HETATM   22  C   UNL     1      25.952  50.023  48.164  1.00  0.00     0.028 A 
HETATM   23  C   UNL     1      26.961  49.172  48.591  1.00  0.00     0.117 A 
HETATM   24  N   UNL     1      26.741  48.068  49.327  1.00  0.00    -0.271 NA
HETATM   25  C   UNL     1      25.451  47.806  49.654  1.00  0.00     0.146 A 
ENDBRANCH   3  19
TORSDOF 6
ENDMDL
MODEL 9
REMARK VINA RESULT:      -7.5      3.307      5.065
REMARK  6 active torsions:
REMARK  status: ('A' for Active; 'I' for Inactive)
REMARK    1  A    between atoms: C_2  and  C_3 
REMARK    2  A    between atoms: C_3  and  O_4 
REMARK    3  A    between atoms: C_3  and  C_12 
REMARK    4  A    between atoms: O_4  and  C_5 
REMARK    5  A    between atoms: C_12  and  N_13 
REMARK       I    between atoms: N_13  and  C_14 
REMARK       I    between atoms: C_14  and  N_15 
REMARK    6  A    between atoms: N_15  and  C_16 
ROOT
HETATM    1  N   UNL     1      22.858  46.686  49.461  1.00  0.00    -0.340 N 
HETATM    2  C   UNL     1      22.532  47.892  48.890  1.00  0.00     0.320 C 
HETATM    3  N   UNL     1      21.291  48.322  49.301  1.00  0.00    -0.307 N 
HETATM    4  O   UNL     1      23.260  48.501  48.119  1.00  0.00    -0.247 OA
HETATM    5  H   UNL     1      22.148  46.225  50.009  1.00  0.00     0.164 HD
HETATM    6  H   UNL     1      21.035  48.066  50.240  1.00  0.00     0.170 HD
ENDROOT
BRANCH   1   7
HETATM    7  C   UNL     1      24.182  46.074  49.457  1.00  0.00     0.156 C 
BRANCH   7   8
HETATM    8  C   UNL     1      25.270  46.627  50.403  1.00  0.00     0.146 C 
BRANCH   8   9
HETATM    9  C   UNL     1      26.622  46.891  49.717  1.00  0.00     0.029 C 
HETATM   10  C   UNL     1      26.963  48.364  49.536  1.00  0.00     0.007 C 
ENDBRANCH   8   9
BRANCH   8  11
HETATM   11  O   UNL     1      25.447  45.642  51.436  1.00  0.00    -0.343 OA
BRANCH  11  12
HETATM   12  C   UNL     1      26.068  45.975  52.609  1.00  0.00     0.091 A 
HETATM   13  C   UNL     1      27.052  45.083  53.070  1.00  0.00     0.067 A 
HETATM   14 CL   UNL     1      27.459  43.654  52.180  1.00  0.00    -0.081 Cl
HETATM   15  C   UNL     1      27.736  45.323  54.266  1.00  0.00     0.026 A 
HETATM   16  C   UNL     1      27.446  46.456  55.020  1.00  0.00     0.002 A 
HETATM   17  C   UNL     1      26.480  47.354  54.569  1.00  0.00     0.003 A 
HETATM   18  C   UNL     1      25.801  47.119  53.369  1.00  0.00     0.038 A 
ENDBRANCH  11  12
ENDBRANCH   8  11
ENDBRANCH   7   8
ENDBRANCH   1   7
BRANCH   3  19
HETATM   19  C   UNL     1      20.560  49.367  48.690  1.00  0.00     0.059 A 
HETATM   20  C   UNL     1      20.617  50.671  49.209  1.00  0.00    -0.032 A 
HETATM   21  C   UNL     1      21.522  51.050  50.346  1.00  0.00     0.050 C 
HETATM   22  C   UNL     1      19.831  51.664  48.608  1.00  0.00     0.028 A 
HETATM   23  C   UNL     1      19.021  51.332  47.533  1.00  0.00     0.117 A 
HETATM   24  N   UNL     1      18.942  50.093  47.015  1.00  0.00    -0.271 NA
HETATM   25  C   UNL     1      19.715  49.144  47.598  1.00  0.00     0.146 A 
ENDBRANCH   3  19
TORSDOF 6
ENDMDL
MODEL 10
REMARK VINA RESULT:      -7.3      1.748      2.494
REMARK  6 active torsions:
REMARK  status: ('A' for Active; 'I' for Inactive)
REMARK    1  A    between atoms: C_2  and  C_3 
REMARK    2  A    between atoms: C_3  and  O_4 
REMARK    3  A    between atoms: C_3  and  C_12 
REMARK    4  A    between atoms: O_4  and  C_5 
REMARK    5  A    between atoms: C_12  and  N_13 
REMARK       I    between atoms: N_13  and  C_14 
REMARK       I    between atoms: C_14  and  N_15 
REMARK    6  A    between atoms: N_15  and  C_16 
ROOT
HETATM    1  N   UNL     1      25.677  46.046  49.966  1.00  0.00    -0.340 N 
HETATM    2  C   UNL     1      24.880  47.142  50.188  1.00  0.00     0.320 C 
HETATM    3  N   UNL     1      24.034  47.371  49.126  1.00  0.00    -0.307 N 
HETATM    4  O   UNL     1      24.920  47.822  51.204  1.00  0.00    -0.247 OA
HETATM    5  H   UNL     1      25.628  45.614  49.056  1.00  0.00     0.164 HD
HETATM    6  H   UNL     1      23.721  46.547  48.640  1.00  0.00     0.170 HD
ENDROOT
BRANCH   1   7
HETATM    7  C   UNL     1      26.491  45.370  50.969  1.00  0.00     0.156 C 
BRANCH   7   8
HETATM    8  C   UNL     1      26.041  43.991  51.498  1.00  0.00     0.146 C 
BRANCH   8   9
HETATM    9  C   UNL     1      24.593  43.621  51.131  1.00  0.00     0.029 C 
HETATM   10  C   UNL     1      24.467  42.484  50.124  1.00  0.00     0.007 C 
ENDBRANCH   8   9
BRANCH   8  11
HETATM   11  O   UNL     1      26.167  44.046  52.930  1.00  0.00    -0.343 OA
BRANCH  11  12
HETATM   12  C   UNL     1      27.373  43.796  53.528  1.00  0.00     0.091 A 
HETATM   13  C   UNL     1      27.889  44.818  54.344  1.00  0.00     0.067 A 
HETATM   14 CL   UNL     1      27.024  46.298  54.588  1.00  0.00    -0.081 Cl
HETATM   15  C   UNL     1      29.121  44.670  54.987  1.00  0.00     0.026 A 
HETATM   16  C   UNL     1      29.858  43.500  54.824  1.00  0.00     0.002 A 
HETATM   17  C   UNL     1      29.353  42.475  54.025  1.00  0.00     0.003 A 
HETATM   18  C   UNL     1      28.116  42.619  53.387  1.00  0.00     0.038 A 
ENDBRANCH  11  12
ENDBRANCH   8  11
ENDBRANCH   7   8
ENDBRANCH   1   7
BRANCH   3  19
HETATM   19  C   UNL     1      23.299  48.563  48.926  1.00  0.00     0.059 A 
HETATM   20  C   UNL     1      23.954  49.742  48.532  1.00  0.00    -0.032 A 
HETATM   21  C   UNL     1      25.417  49.782  48.198  1.00  0.00     0.050 C 
HETATM   22  C   UNL     1      23.196  50.914  48.403  1.00  0.00     0.028 A 
HETATM   23  C   UNL     1      21.836  50.879  48.673  1.00  0.00     0.117 A 
HETATM   24  N   UNL     1      21.182  49.768  49.054  1.00  0.00    -0.271 NA
HETATM   25  C   UNL     1      21.924  48.637  49.165  1.00  0.00     0.146 A 
ENDBRANCH   3  19
TORSDOF 6
ENDMDL
