MODEL 1
REMARK VINA RESULT:      -9.0      0.000      0.000
REMARK  5 active torsions:
REMARK  status: ('A' for Active; 'I' for Inactive)
REMARK    1  A    between atoms: O_2  and  C_3 
REMARK    2  A    between atoms: C_4  and  C_5 
REMARK    3  A    between atoms: C_17  and  N_18 
REMARK       I    between atoms: N_18  and  C_19 
REMARK       I    between atoms: C_19  and  N_20 
REMARK    4  A    between atoms: N_20  and  C_21 
REMARK    5  A    between atoms: C_21  and  C_22 
ROOT
HETATM    1  C   UNL     1      26.105  45.727  52.474  1.00  0.00    -0.022 A 
HETATM    2  C   UNL     1      25.409  44.642  51.911  1.00  0.00     0.031 A 
HETATM    3  C   UNL     1      24.478  44.794  50.856  1.00  0.00     0.059 A 
HETATM    4  C   UNL     1      24.221  46.073  50.366  1.00  0.00     0.050 A 
HETATM    5  N   UNL     1      23.330  46.382  49.336  1.00  0.00    -0.324 N 
HETATM    6  C   UNL     1      22.986  45.622  48.257  1.00  0.00     0.245 C 
HETATM    7  O   UNL     1      22.228  46.133  47.429  1.00  0.00    -0.271 OA
HETATM    8  C   UNL     1      23.679  44.259  48.054  1.00  0.00     0.181 C 
HETATM    9  N   UNL     1      23.300  43.348  49.148  1.00  0.00    -0.334 N 
HETATM   10  C   UNL     1      23.752  43.558  50.461  1.00  0.00     0.256 C 
HETATM   11  O   UNL     1      23.615  42.689  51.327  1.00  0.00    -0.267 OA
HETATM   12  C   UNL     1      23.337  43.771  46.634  1.00  0.00     0.060 C 
HETATM   13  C   UNL     1      23.514  42.273  46.442  1.00  0.00     0.090 C 
HETATM   14  C   UNL     1      22.614  41.579  47.450  1.00  0.00     0.045 C 
HETATM   15  C   UNL     1      22.992  41.941  48.874  1.00  0.00     0.129 C 
HETATM   16  C   UNL     1      24.871  47.170  50.948  1.00  0.00     0.031 A 
HETATM   17  C   UNL     1      25.816  46.997  51.964  1.00  0.00     0.014 A 
HETATM   18  H   UNL     1      23.000  47.337  49.248  1.00  0.00     0.169 HD
ENDROOT
BRANCH   1  19
HETATM   19  C   UNL     1      27.107  45.523  53.550  1.00  0.00     0.009 A 
HETATM   20  C   UNL     1      27.118  46.270  54.756  1.00  0.00     0.079 A 
HETATM   21  C   UNL     1      28.105  46.029  55.725  1.00  0.00     0.039 A 
HETATM   22  C   UNL     1      29.076  45.047  55.524  1.00  0.00     0.026 A 
HETATM   23  C   UNL     1      29.070  44.304  54.354  1.00  0.00     0.035 A 
HETATM   24  C   UNL     1      28.105  44.538  53.376  1.00  0.00     0.039 A 
HETATM   25 CL   UNL     1      30.260  43.085  54.106  1.00  0.00    -0.084 Cl
BRANCH  20  26
HETATM   26  O   UNL     1      26.120  47.201  54.912  1.00  0.00    -0.355 OA
HETATM   27  C   UNL     1      26.437  48.419  55.573  1.00  0.00     0.210 C 
ENDBRANCH  20  26
ENDBRANCH   1  19
BRANCH  13  28
HETATM   28  N   UNL     1      24.906  41.853  46.542  1.00  0.00    -0.338 N 
HETATM   29  C   UNL     1      25.477  41.073  45.567  1.00  0.00     0.316 C 
HETATM   30  N   UNL     1      26.822  40.929  45.776  1.00  0.00    -0.340 N 
HETATM   31  O   UNL     1      24.867  40.597  44.620  1.00  0.00    -0.247 OA
HETATM   32  H   UNL     1      27.103  40.925  46.745  1.00  0.00     0.164 HD
HETATM   33  H   UNL     1      25.555  42.468  47.011  1.00  0.00     0.164 HD
BRANCH  30  34
HETATM   34  C   UNL     1      27.594  40.088  44.896  1.00  0.00     0.150 C 
BRANCH  34  35
HETATM   35  C   UNL     1      28.333  40.988  43.959  1.00  0.00    -0.018 C 
HETATM   36  C   UNL     1      29.423  40.641  43.262  1.00  0.00     0.008 C 
ENDBRANCH  34  35
ENDBRANCH  30  34
ENDBRANCH  13  28
TORSDOF 5
ENDMDL
MODEL 2
REMARK VINA RESULT:      -8.8      1.443      2.079
REMARK  5 active torsions:
REMARK  status: ('A' for Active; 'I' for Inactive)
REMARK    1  A    between atoms: O_2  and  C_3 
REMARK    2  A    between atoms: C_4  and  C_5 
REMARK    3  A    between atoms: C_17  and  N_18 
REMARK       I    between atoms: N_18  and  C_19 
REMARK       I    between atoms: C_19  and  N_20 
REMARK    4  A    between atoms: N_20  and  C_21 
REMARK    5  A    between atoms: C_21  and  C_22 
ROOT
HETATM    1  C   UNL     1      26.460  45.325  52.457  1.00  0.00    -0.022 A 
HETATM    2  C   UNL     1      25.677  44.332  51.842  1.00  0.00     0.031 A 
HETATM    3  C   UNL     1      24.670  44.629  50.893  1.00  0.00     0.059 A 
HETATM    4  C   UNL     1      24.426  45.962  50.567  1.00  0.00     0.050 A 
HETATM    5  N   UNL     1      23.468  46.411  49.656  1.00  0.00    -0.324 N 
HETATM    6  C   UNL     1      23.007  45.786  48.535  1.00  0.00     0.245 C 
HETATM    7  O   UNL     1      22.205  46.410  47.835  1.00  0.00    -0.271 OA
HETATM    8  C   UNL     1      23.625  44.433  48.127  1.00  0.00     0.181 C 
HETATM    9  N   UNL     1      23.300  43.419  49.145  1.00  0.00    -0.334 N 
HETATM   10  C   UNL     1      23.865  43.468  50.430  1.00  0.00     0.256 C 
HETATM   11  O   UNL     1      23.763  42.513  51.205  1.00  0.00    -0.267 OA
HETATM   12  C   UNL     1      23.150  44.117  46.697  1.00  0.00     0.060 C 
HETATM   13  C   UNL     1      23.249  42.645  46.331  1.00  0.00     0.090 C 
HETATM   14  C   UNL     1      22.407  41.871  47.330  1.00  0.00     0.045 C 
HETATM   15  C   UNL     1      22.914  42.061  48.748  1.00  0.00     0.129 C 
HETATM   16  C   UNL     1      25.165  46.967  51.207  1.00  0.00     0.031 A 
HETATM   17  C   UNL     1      26.181  46.652  52.114  1.00  0.00     0.014 A 
HETATM   18  H   UNL     1      23.170  47.379  49.701  1.00  0.00     0.169 HD
ENDROOT
BRANCH   1  19
HETATM   19  C   UNL     1      27.537  44.971  53.416  1.00  0.00     0.009 A 
HETATM   20  C   UNL     1      28.509  43.971  53.160  1.00  0.00     0.079 A 
HETATM   21  C   UNL     1      29.491  43.681  54.120  1.00  0.00     0.039 A 
HETATM   22  C   UNL     1      29.535  44.379  55.328  1.00  0.00     0.026 A 
HETATM   23  C   UNL     1      28.596  45.367  55.585  1.00  0.00     0.035 A 
HETATM   24  C   UNL     1      27.606  45.659  54.648  1.00  0.00     0.039 A 
HETATM   25 CL   UNL     1      28.652  46.237  57.069  1.00  0.00    -0.084 Cl
BRANCH  20  26
HETATM   26  O   UNL     1      28.435  43.338  51.943  1.00  0.00    -0.355 OA
HETATM   27  C   UNL     1      28.542  41.921  51.916  1.00  0.00     0.210 C 
ENDBRANCH  20  26
ENDBRANCH   1  19
BRANCH  13  28
HETATM   28  N   UNL     1      24.626  42.173  46.266  1.00  0.00    -0.338 N 
HETATM   29  C   UNL     1      25.063  41.420  45.203  1.00  0.00     0.316 C 
HETATM   30  N   UNL     1      26.416  41.220  45.264  1.00  0.00    -0.340 N 
HETATM   31  O   UNL     1      24.340  41.011  44.306  1.00  0.00    -0.247 OA
HETATM   32  H   UNL     1      26.795  41.161  46.197  1.00  0.00     0.164 HD
HETATM   33  H   UNL     1      25.345  42.742  46.691  1.00  0.00     0.164 HD
BRANCH  30  34
HETATM   34  C   UNL     1      27.059  40.395  44.272  1.00  0.00     0.150 C 
BRANCH  34  35
HETATM   35  C   UNL     1      28.531  40.630  44.389  1.00  0.00    -0.018 C 
HETATM   36  C   UNL     1      29.355  40.857  43.357  1.00  0.00     0.008 C 
ENDBRANCH  34  35
ENDBRANCH  30  34
ENDBRANCH  13  28
TORSDOF 5
ENDMDL
MODEL 3
REMARK VINA RESULT:      -8.8      2.521      3.699
REMARK  5 active torsions:
REMARK  status: ('A' for Active; 'I' for Inactive)
REMARK    1  A    between atoms: O_2  and  C_3 
REMARK    2  A    between atoms: C_4  and  C_5 
REMARK    3  A    between atoms: C_17  and  N_18 
REMARK       I    between atoms: N_18  and  C_19 
REMARK       I    between atoms: C_19  and  N_20 
REMARK    4  A    between atoms: N_20  and  C_21 
REMARK    5  A    between atoms: C_21  and  C_22 
ROOT
HETATM    1  C   UNL     1      28.304  45.523  54.726  1.00  0.00    -0.022 A 
HETATM    2  C   UNL     1      27.278  44.770  54.126  1.00  0.00     0.031 A 
HETATM    3  C   UNL     1      26.305  45.345  53.274  1.00  0.00     0.059 A 
HETATM    4  C   UNL     1      26.349  46.717  53.033  1.00  0.00     0.050 A 
HETATM    5  N   UNL     1      25.461  47.425  52.222  1.00  0.00    -0.324 N 
HETATM    6  C   UNL     1      24.798  46.993  51.111  1.00  0.00     0.245 C 
HETATM    7  O   UNL     1      24.115  47.823  50.507  1.00  0.00    -0.271 OA
HETATM    8  C   UNL     1      25.065  45.566  50.592  1.00  0.00     0.181 C 
HETATM    9  N   UNL     1      24.586  44.586  51.581  1.00  0.00    -0.334 N 
HETATM   10  C   UNL     1      25.230  44.424  52.819  1.00  0.00     0.256 C 
HETATM   11  O   UNL     1      24.965  43.468  53.553  1.00  0.00    -0.267 OA
HETATM   12  C   UNL     1      24.439  45.457  49.190  1.00  0.00     0.060 C 
HETATM   13  C   UNL     1      24.179  44.026  48.746  1.00  0.00     0.090 C 
HETATM   14  C   UNL     1      23.249  43.396  49.769  1.00  0.00     0.045 C 
HETATM   15  C   UNL     1      23.877  43.376  51.150  1.00  0.00     0.129 C 
HETATM   16  C   UNL     1      27.336  47.489  53.662  1.00  0.00     0.031 A 
HETATM   17  C   UNL     1      28.312  46.898  54.471  1.00  0.00     0.014 A 
HETATM   18  H   UNL     1      25.394  48.431  52.337  1.00  0.00     0.169 HD
ENDROOT
BRANCH   1  19
HETATM   19  C   UNL     1      29.333  44.876  55.580  1.00  0.00     0.009 A 
HETATM   20  C   UNL     1      29.884  43.599  55.303  1.00  0.00     0.079 A 
HETATM   21  C   UNL     1      30.844  43.045  56.163  1.00  0.00     0.039 A 
HETATM   22  C   UNL     1      31.281  43.745  57.289  1.00  0.00     0.026 A 
HETATM   23  C   UNL     1      30.757  44.999  57.565  1.00  0.00     0.035 A 
HETATM   24  C   UNL     1      29.793  45.559  56.728  1.00  0.00     0.039 A 
HETATM   25 CL   UNL     1      31.299  45.870  58.947  1.00  0.00    -0.084 Cl
BRANCH  20  26
HETATM   26  O   UNL     1      29.439  42.970  54.165  1.00  0.00    -0.355 OA
HETATM   27  C   UNL     1      30.332  42.865  53.065  1.00  0.00     0.210 C 
ENDBRANCH  20  26
ENDBRANCH   1  19
BRANCH  13  28
HETATM   28  N   UNL     1      25.405  43.264  48.551  1.00  0.00    -0.338 N 
HETATM   29  C   UNL     1      25.382  42.040  47.929  1.00  0.00     0.316 C 
HETATM   30  N   UNL     1      26.651  41.575  47.710  1.00  0.00    -0.340 N 
HETATM   31  O   UNL     1      24.362  41.459  47.589  1.00  0.00    -0.247 OA
HETATM   32  H   UNL     1      27.330  41.847  48.405  1.00  0.00     0.164 HD
HETATM   33  H   UNL     1      26.267  43.776  48.423  1.00  0.00     0.164 HD
BRANCH  30  34
HETATM   34  C   UNL     1      26.841  40.270  47.126  1.00  0.00     0.150 C 
BRANCH  34  35
HETATM   35  C   UNL     1      28.203  39.801  47.525  1.00  0.00    -0.018 C 
HETATM   36  C   UNL     1      28.766  40.013  48.722  1.00  0.00     0.008 C 
ENDBRANCH  34  35
ENDBRANCH  30  34
ENDBRANCH  13  28
TORSDOF 5
ENDMDL
MODEL 4
REMARK VINA RESULT:      -8.7      4.538      6.992
REMARK  5 active torsions:
REMARK  status: ('A' for Active; 'I' for Inactive)
REMARK    1  A    between atoms: O_2  and  C_3 
REMARK    2  A    between atoms: C_4  and  C_5 
REMARK    3  A    between atoms: C_17  and  N_18 
REMARK       I    between atoms: N_18  and  C_19 
REMARK       I    between atoms: C_19  and  N_20 
REMARK    4  A    between atoms: N_20  and  C_21 
REMARK    5  A    between atoms: C_21  and  C_22 
ROOT
HETATM    1  C   UNL     1      26.978  43.233  50.489  1.00  0.00    -0.022 A 
HETATM    2  C   UNL     1      27.137  42.375  49.384  1.00  0.00     0.031 A 
HETATM    3  C   UNL     1      27.785  41.121  49.477  1.00  0.00     0.059 A 
HETATM    4  C   UNL     1      28.310  40.725  50.706  1.00  0.00     0.050 A 
HETATM    5  N   UNL     1      28.977  39.523  50.952  1.00  0.00    -0.324 N 
HETATM    6  C   UNL     1      28.792  38.313  50.352  1.00  0.00     0.245 C 
HETATM    7  O   UNL     1      29.451  37.364  50.786  1.00  0.00    -0.271 OA
HETATM    8  C   UNL     1      27.675  38.166  49.298  1.00  0.00     0.181 C 
HETATM    9  N   UNL     1      27.996  38.994  48.124  1.00  0.00    -0.334 N 
HETATM   10  C   UNL     1      27.963  40.397  48.190  1.00  0.00     0.256 C 
HETATM   11  O   UNL     1      28.021  41.083  47.166  1.00  0.00    -0.267 OA
HETATM   12  C   UNL     1      27.492  36.662  49.022  1.00  0.00     0.060 C 
HETATM   13  C   UNL     1      26.808  36.363  47.698  1.00  0.00     0.090 C 
HETATM   14  C   UNL     1      27.655  36.983  46.600  1.00  0.00     0.045 C 
HETATM   15  C   UNL     1      27.765  38.487  46.768  1.00  0.00     0.129 C 
HETATM   16  C   UNL     1      28.203  41.589  51.804  1.00  0.00     0.031 A 
HETATM   17  C   UNL     1      27.525  42.808  51.703  1.00  0.00     0.014 A 
HETATM   18  H   UNL     1      29.563  39.452  51.777  1.00  0.00     0.169 HD
ENDROOT
BRANCH   1  19
HETATM   19  C   UNL     1      26.253  44.523  50.362  1.00  0.00     0.009 A 
HETATM   20  C   UNL     1      24.877  44.675  50.668  1.00  0.00     0.079 A 
HETATM   21  C   UNL     1      24.254  45.923  50.512  1.00  0.00     0.039 A 
HETATM   22  C   UNL     1      24.980  47.031  50.071  1.00  0.00     0.026 A 
HETATM   23  C   UNL     1      26.329  46.897  49.778  1.00  0.00     0.035 A 
HETATM   24  C   UNL     1      26.959  45.662  49.915  1.00  0.00     0.039 A 
HETATM   25 CL   UNL     1      27.229  48.262  49.243  1.00  0.00    -0.084 Cl
BRANCH  20  26
HETATM   26  O   UNL     1      24.221  43.558  51.127  1.00  0.00    -0.355 OA
HETATM   27  C   UNL     1      23.281  42.931  50.266  1.00  0.00     0.210 C 
ENDBRANCH  20  26
ENDBRANCH   1  19
BRANCH  13  28
HETATM   28  N   UNL     1      25.422  36.812  47.665  1.00  0.00    -0.338 N 
HETATM   29  C   UNL     1      24.408  35.943  47.341  1.00  0.00     0.316 C 
HETATM   30  N   UNL     1      23.183  36.526  47.525  1.00  0.00    -0.340 N 
HETATM   31  O   UNL     1      24.580  34.792  46.967  1.00  0.00    -0.247 OA
HETATM   32  H   UNL     1      23.156  37.520  47.358  1.00  0.00     0.164 HD
HETATM   33  H   UNL     1      25.146  37.549  48.299  1.00  0.00     0.164 HD
BRANCH  30  34
HETATM   34  C   UNL     1      21.988  35.798  47.176  1.00  0.00     0.150 C 
BRANCH  34  35
HETATM   35  C   UNL     1      21.406  35.268  48.447  1.00  0.00    -0.018 C 
HETATM   36  C   UNL     1      21.566  34.018  48.900  1.00  0.00     0.008 C 
ENDBRANCH  34  35
ENDBRANCH  30  34
ENDBRANCH  13  28
TORSDOF 5
ENDMDL
MODEL 5
REMARK VINA RESULT:      -8.0      1.873      2.516
REMARK  5 active torsions:
REMARK  status: ('A' for Active; 'I' for Inactive)
REMARK    1  A    between atoms: O_2  and  C_3 
REMARK    2  A    between atoms: C_4  and  C_5 
REMARK    3  A    between atoms: C_17  and  N_18 
REMARK       I    between atoms: N_18  and  C_19 
REMARK       I    between atoms: C_19  and  N_20 
REMARK    4  A    between atoms: N_20  and  C_21 
REMARK    5  A    between atoms: C_21  and  C_22 
ROOT
HETATM    1  C   UNL     1      25.167  46.265  51.685  1.00  0.00    -0.022 A 
HETATM    2  C   UNL     1      24.599  45.062  51.226  1.00  0.00     0.031 A 
HETATM    3  C   UNL     1      23.819  44.984  50.048  1.00  0.00     0.059 A 
HETATM    4  C   UNL     1      23.582  46.150  49.321  1.00  0.00     0.050 A 
HETATM    5  N   UNL     1      22.832  46.232  48.146  1.00  0.00    -0.324 N 
HETATM    6  C   UNL     1      22.672  45.289  47.175  1.00  0.00     0.245 C 
HETATM    7  O   UNL     1      22.016  45.612  46.181  1.00  0.00    -0.271 OA
HETATM    8  C   UNL     1      23.439  43.956  47.295  1.00  0.00     0.181 C 
HETATM    9  N   UNL     1      22.948  43.212  48.468  1.00  0.00    -0.334 N 
HETATM   10  C   UNL     1      23.204  43.658  49.775  1.00  0.00     0.256 C 
HETATM   11  O   UNL     1      22.982  42.933  50.749  1.00  0.00    -0.267 OA
HETATM   12  C   UNL     1      23.318  43.227  45.945  1.00  0.00     0.060 C 
HETATM   13  C   UNL     1      23.579  41.731  46.033  1.00  0.00     0.090 C 
HETATM   14  C   UNL     1      22.576  41.153  47.016  1.00  0.00     0.045 C 
HETATM   15  C   UNL     1      22.737  41.762  48.396  1.00  0.00     0.129 C 
HETATM   16  C   UNL     1      24.100  47.364  49.791  1.00  0.00     0.031 A 
HETATM   17  C   UNL     1      24.901  47.416  50.936  1.00  0.00     0.014 A 
HETATM   18  H   UNL     1      22.479  47.138  47.857  1.00  0.00     0.169 HD
ENDROOT
BRANCH   1  19
HETATM   19  C   UNL     1      26.016  46.299  52.902  1.00  0.00     0.009 A 
HETATM   20  C   UNL     1      27.017  45.332  53.180  1.00  0.00     0.079 A 
HETATM   21  C   UNL     1      27.774  45.421  54.359  1.00  0.00     0.039 A 
HETATM   22  C   UNL     1      27.566  46.464  55.263  1.00  0.00     0.026 A 
HETATM   23  C   UNL     1      26.597  47.421  54.997  1.00  0.00     0.035 A 
HETATM   24  C   UNL     1      25.828  47.340  53.837  1.00  0.00     0.039 A 
HETATM   25 CL   UNL     1      26.343  48.714  56.104  1.00  0.00    -0.084 Cl
BRANCH  20  26
HETATM   26  O   UNL     1      27.199  44.346  52.241  1.00  0.00    -0.355 OA
HETATM   27  C   UNL     1      27.428  43.020  52.696  1.00  0.00     0.210 C 
ENDBRANCH  20  26
ENDBRANCH   1  19
BRANCH  13  28
HETATM   28  N   UNL     1      24.959  41.420  46.383  1.00  0.00    -0.338 N 
HETATM   29  C   UNL     1      25.632  40.402  45.752  1.00  0.00     0.316 C 
HETATM   30  N   UNL     1      26.952  40.385  46.117  1.00  0.00    -0.340 N 
HETATM   31  O   UNL     1      25.124  39.634  44.948  1.00  0.00    -0.247 OA
HETATM   32  H   UNL     1      27.136  40.690  47.061  1.00  0.00     0.164 HD
HETATM   33  H   UNL     1      25.552  42.175  46.695  1.00  0.00     0.164 HD
BRANCH  30  34
HETATM   34  C   UNL     1      27.816  39.347  45.613  1.00  0.00     0.150 C 
BRANCH  34  35
HETATM   35  C   UNL     1      28.259  38.533  46.786  1.00  0.00    -0.018 C 
HETATM   36  C   UNL     1      28.615  37.242  46.733  1.00  0.00     0.008 C 
ENDBRANCH  34  35
ENDBRANCH  30  34
ENDBRANCH  13  28
TORSDOF 5
ENDMDL
MODEL 6
REMARK VINA RESULT:      -8.0      2.526      3.203
REMARK  5 active torsions:
REMARK  status: ('A' for Active; 'I' for Inactive)
REMARK    1  A    between atoms: O_2  and  C_3 
REMARK    2  A    between atoms: C_4  and  C_5 
REMARK    3  A    between atoms: C_17  and  N_18 
REMARK       I    between atoms: N_18  and  C_19 
REMARK       I    between atoms: C_19  and  N_20 
REMARK    4  A    between atoms: N_20  and  C_21 
REMARK    5  A    between atoms: C_21  and  C_22 
ROOT
HETATM    1  C   UNL     1      26.701  44.909  52.052  1.00  0.00    -0.022 A 
HETATM    2  C   UNL     1      25.626  44.288  51.390  1.00  0.00     0.031 A 
HETATM    3  C   UNL     1      24.591  45.017  50.759  1.00  0.00     0.059 A 
HETATM    4  C   UNL     1      24.621  46.410  50.812  1.00  0.00     0.050 A 
HETATM    5  N   UNL     1      23.673  47.262  50.244  1.00  0.00    -0.324 N 
HETATM    6  C   UNL     1      22.921  47.066  49.123  1.00  0.00     0.245 C 
HETATM    7  O   UNL     1      22.195  47.997  48.764  1.00  0.00    -0.271 OA
HETATM    8  C   UNL     1      23.139  45.785  48.293  1.00  0.00     0.181 C 
HETATM    9  N   UNL     1      22.737  44.612  49.087  1.00  0.00    -0.334 N 
HETATM   10  C   UNL     1      23.478  44.200  50.207  1.00  0.00     0.256 C 
HETATM   11  O   UNL     1      23.269  43.107  50.740  1.00  0.00    -0.267 OA
HETATM   12  C   UNL     1      22.402  45.967  46.954  1.00  0.00     0.060 C 
HETATM   13  C   UNL     1      22.100  44.660  46.239  1.00  0.00     0.090 C 
HETATM   14  C   UNL     1      21.253  43.816  47.177  1.00  0.00     0.045 C 
HETATM   15  C   UNL     1      21.991  43.512  48.467  1.00  0.00     0.129 C 
HETATM   16  C   UNL     1      25.659  47.044  51.509  1.00  0.00     0.031 A 
HETATM   17  C   UNL     1      26.694  46.307  52.094  1.00  0.00     0.014 A 
HETATM   18  H   UNL     1      23.620  48.220  50.574  1.00  0.00     0.169 HD
ENDROOT
BRANCH   1  19
HETATM   19  C   UNL     1      27.792  44.110  52.665  1.00  0.00     0.009 A 
HETATM   20  C   UNL     1      28.274  42.897  52.111  1.00  0.00     0.079 A 
HETATM   21  C   UNL     1      29.301  42.188  52.753  1.00  0.00     0.039 A 
HETATM   22  C   UNL     1      29.872  42.672  53.931  1.00  0.00     0.026 A 
HETATM   23  C   UNL     1      29.417  43.863  54.477  1.00  0.00     0.035 A 
HETATM   24  C   UNL     1      28.389  44.573  53.859  1.00  0.00     0.039 A 
HETATM   25 CL   UNL     1      30.124  44.468  55.924  1.00  0.00    -0.084 Cl
BRANCH  20  26
HETATM   26  O   UNL     1      27.695  42.485  50.934  1.00  0.00    -0.355 OA
HETATM   27  C   UNL     1      27.677  41.093  50.648  1.00  0.00     0.210 C 
ENDBRANCH  20  26
ENDBRANCH   1  19
BRANCH  13  28
HETATM   28  N   UNL     1      23.304  43.972  45.790  1.00  0.00    -0.338 N 
HETATM   29  C   UNL     1      23.532  43.753  44.454  1.00  0.00     0.316 C 
HETATM   30  N   UNL     1      24.784  43.239  44.245  1.00  0.00    -0.340 N 
HETATM   31  O   UNL     1      22.732  44.012  43.566  1.00  0.00    -0.247 OA
HETATM   32  H   UNL     1      25.130  42.648  44.987  1.00  0.00     0.164 HD
HETATM   33  H   UNL     1      24.145  44.079  46.340  1.00  0.00     0.164 HD
BRANCH  30  34
HETATM   34  C   UNL     1      25.192  42.876  42.911  1.00  0.00     0.150 C 
BRANCH  34  35
HETATM   35  C   UNL     1      26.314  43.786  42.529  1.00  0.00    -0.018 C 
HETATM   36  C   UNL     1      26.167  45.054  42.122  1.00  0.00     0.008 C 
ENDBRANCH  34  35
ENDBRANCH  30  34
ENDBRANCH  13  28
TORSDOF 5
ENDMDL
MODEL 7
REMARK VINA RESULT:      -8.0      2.439      3.216
REMARK  5 active torsions:
REMARK  status: ('A' for Active; 'I' for Inactive)
REMARK    1  A    between atoms: O_2  and  C_3 
REMARK    2  A    between atoms: C_4  and  C_5 
REMARK    3  A    between atoms: C_17  and  N_18 
REMARK       I    between atoms: N_18  and  C_19 
REMARK       I    between atoms: C_19  and  N_20 
REMARK    4  A    between atoms: N_20  and  C_21 
REMARK    5  A    between atoms: C_21  and  C_22 
ROOT
HETATM    1  C   UNL     1      27.848  46.132  54.864  1.00  0.00    -0.022 A 
HETATM    2  C   UNL     1      27.033  45.150  54.270  1.00  0.00     0.031 A 
HETATM    3  C   UNL     1      26.134  45.438  53.216  1.00  0.00     0.059 A 
HETATM    4  C   UNL     1      26.032  46.751  52.759  1.00  0.00     0.050 A 
HETATM    5  N   UNL     1      25.191  47.189  51.735  1.00  0.00    -0.324 N 
HETATM    6  C   UNL     1      24.768  46.503  50.635  1.00  0.00     0.245 C 
HETATM    7  O   UNL     1      24.080  47.121  49.818  1.00  0.00    -0.271 OA
HETATM    8  C   UNL     1      25.297  45.074  50.398  1.00  0.00     0.181 C 
HETATM    9  N   UNL     1      24.807  44.186  51.465  1.00  0.00    -0.334 N 
HETATM   10  C   UNL     1      25.271  44.307  52.786  1.00  0.00     0.256 C 
HETATM   11  O   UNL     1      25.027  43.438  53.627  1.00  0.00    -0.267 OA
HETATM   12  C   UNL     1      24.911  44.667  48.964  1.00  0.00     0.060 C 
HETATM   13  C   UNL     1      24.912  43.164  48.733  1.00  0.00     0.090 C 
HETATM   14  C   UNL     1      23.930  42.554  49.718  1.00  0.00     0.045 C 
HETATM   15  C   UNL     1      24.338  42.832  51.153  1.00  0.00     0.129 C 
HETATM   16  C   UNL     1      26.802  47.749  53.373  1.00  0.00     0.031 A 
HETATM   17  C   UNL     1      27.713  47.440  54.388  1.00  0.00     0.014 A 
HETATM   18  H   UNL     1      24.975  48.178  51.672  1.00  0.00     0.169 HD
ENDROOT
BRANCH   1  19
HETATM   19  C   UNL     1      28.812  45.783  55.939  1.00  0.00     0.009 A 
HETATM   20  C   UNL     1      28.843  46.435  57.198  1.00  0.00     0.079 A 
HETATM   21  C   UNL     1      29.792  46.060  58.162  1.00  0.00     0.039 A 
HETATM   22  C   UNL     1      30.704  45.035  57.904  1.00  0.00     0.026 A 
HETATM   23  C   UNL     1      30.676  44.383  56.680  1.00  0.00     0.035 A 
HETATM   24  C   UNL     1      29.749  44.751  55.707  1.00  0.00     0.039 A 
HETATM   25 CL   UNL     1      31.792  43.112  56.361  1.00  0.00    -0.084 Cl
BRANCH  20  26
HETATM   26  O   UNL     1      27.903  47.415  57.408  1.00  0.00    -0.355 OA
HETATM   27  C   UNL     1      27.093  47.329  58.572  1.00  0.00     0.210 C 
ENDBRANCH  20  26
ENDBRANCH   1  19
BRANCH  13  28
HETATM   28  N   UNL     1      26.244  42.581  48.827  1.00  0.00    -0.338 N 
HETATM   29  C   UNL     1      26.523  41.368  48.247  1.00  0.00     0.316 C 
HETATM   30  N   UNL     1      27.861  41.084  48.318  1.00  0.00    -0.340 N 
HETATM   31  O   UNL     1      25.690  40.652  47.710  1.00  0.00    -0.247 OA
HETATM   32  H   UNL     1      28.329  41.446  49.135  1.00  0.00     0.164 HD
HETATM   33  H   UNL     1      27.035  43.208  48.874  1.00  0.00     0.164 HD
BRANCH  30  34
HETATM   34  C   UNL     1      28.349  39.822  47.822  1.00  0.00     0.150 C 
BRANCH  34  35
HETATM   35  C   UNL     1      28.730  38.998  49.010  1.00  0.00    -0.018 C 
HETATM   36  C   UNL     1      29.838  38.250  49.100  1.00  0.00     0.008 C 
ENDBRANCH  34  35
ENDBRANCH  30  34
ENDBRANCH  13  28
TORSDOF 5
ENDMDL
MODEL 8
REMARK VINA RESULT:      -8.0     12.692     15.647
REMARK  5 active torsions:
REMARK  status: ('A' for Active; 'I' for Inactive)
REMARK    1  A    between atoms: O_2  and  C_3 
REMARK    2  A    between atoms: C_4  and  C_5 
REMARK    3  A    between atoms: C_17  and  N_18 
REMARK       I    between atoms: N_18  and  C_19 
REMARK       I    between atoms: C_19  and  N_20 
REMARK    4  A    between atoms: N_20  and  C_21 
REMARK    5  A    between atoms: C_21  and  C_22 
ROOT
HETATM    1  C   UNL     1      30.752  49.874  41.238  1.00  0.00    -0.022 A 
HETATM    2  C   UNL     1      31.684  50.652  40.528  1.00  0.00     0.031 A 
HETATM    3  C   UNL     1      32.860  51.168  41.122  1.00  0.00     0.059 A 
HETATM    4  C   UNL     1      33.097  50.917  42.473  1.00  0.00     0.050 A 
HETATM    5  N   UNL     1      34.205  51.362  43.196  1.00  0.00    -0.324 N 
HETATM    6  C   UNL     1      35.475  51.581  42.752  1.00  0.00     0.245 C 
HETATM    7  O   UNL     1      36.317  51.905  43.594  1.00  0.00    -0.271 OA
HETATM    8  C   UNL     1      35.817  51.259  41.283  1.00  0.00     0.181 C 
HETATM    9  N   UNL     1      35.068  52.164  40.395  1.00  0.00    -0.334 N 
HETATM   10  C   UNL     1      33.674  52.062  40.256  1.00  0.00     0.256 C 
HETATM   11  O   UNL     1      33.078  52.670  39.363  1.00  0.00    -0.267 OA
HETATM   12  C   UNL     1      37.350  51.305  41.141  1.00  0.00     0.060 C 
HETATM   13  C   UNL     1      37.826  51.497  39.710  1.00  0.00     0.090 C 
HETATM   14  C   UNL     1      37.228  52.799  39.205  1.00  0.00     0.045 C 
HETATM   15  C   UNL     1      35.712  52.754  39.216  1.00  0.00     0.129 C 
HETATM   16  C   UNL     1      32.153  50.185  43.206  1.00  0.00     0.031 A 
HETATM   17  C   UNL     1      31.016  49.650  42.593  1.00  0.00     0.014 A 
HETATM   18  H   UNL     1      34.149  51.381  44.209  1.00  0.00     0.169 HD
ENDROOT
BRANCH   1  19
HETATM   19  C   UNL     1      29.551  49.312  40.569  1.00  0.00     0.009 A 
HETATM   20  C   UNL     1      28.232  49.763  40.830  1.00  0.00     0.079 A 
HETATM   21  C   UNL     1      27.143  49.175  40.168  1.00  0.00     0.039 A 
HETATM   22  C   UNL     1      27.341  48.155  39.237  1.00  0.00     0.026 A 
HETATM   23  C   UNL     1      28.627  47.713  38.966  1.00  0.00     0.035 A 
HETATM   24  C   UNL     1      29.719  48.276  39.623  1.00  0.00     0.039 A 
HETATM   25 CL   UNL     1      28.877  46.461  37.811  1.00  0.00    -0.084 Cl
BRANCH  20  26
HETATM   26  O   UNL     1      28.100  50.790  41.733  1.00  0.00    -0.355 OA
HETATM   27  C   UNL     1      27.739  52.074  41.240  1.00  0.00     0.210 C 
ENDBRANCH  20  26
ENDBRANCH   1  19
BRANCH  13  28
HETATM   28  N   UNL     1      37.512  50.360  38.855  1.00  0.00    -0.338 N 
HETATM   29  C   UNL     1      38.322  50.034  37.794  1.00  0.00     0.316 C 
HETATM   30  N   UNL     1      37.935  48.849  37.226  1.00  0.00    -0.340 N 
HETATM   31  O   UNL     1      39.280  50.699  37.427  1.00  0.00    -0.247 OA
HETATM   32  H   UNL     1      36.944  48.663  37.265  1.00  0.00     0.164 HD
HETATM   33  H   UNL     1      37.036  49.571  39.268  1.00  0.00     0.164 HD
BRANCH  30  34
HETATM   34  C   UNL     1      38.619  48.365  36.053  1.00  0.00     0.150 C 
BRANCH  34  35
HETATM   35  C   UNL     1      38.380  46.891  35.979  1.00  0.00    -0.018 C 
HETATM   36  C   UNL     1      37.200  46.319  35.705  1.00  0.00     0.008 C 
ENDBRANCH  34  35
ENDBRANCH  30  34
ENDBRANCH  13  28
TORSDOF 5
ENDMDL
MODEL 9
REMARK VINA RESULT:      -7.9      4.102      6.324
REMARK  5 active torsions:
REMARK  status: ('A' for Active; 'I' for Inactive)
REMARK    1  A    between atoms: O_2  and  C_3 
REMARK    2  A    between atoms: C_4  and  C_5 
REMARK    3  A    between atoms: C_17  and  N_18 
REMARK       I    between atoms: N_18  and  C_19 
REMARK       I    between atoms: C_19  and  N_20 
REMARK    4  A    between atoms: N_20  and  C_21 
REMARK    5  A    between atoms: C_21  and  C_22 
ROOT
HETATM    1  C   UNL     1      27.180  43.082  51.451  1.00  0.00    -0.022 A 
HETATM    2  C   UNL     1      27.246  42.460  50.190  1.00  0.00     0.031 A 
HETATM    3  C   UNL     1      27.830  41.187  49.994  1.00  0.00     0.059 A 
HETATM    4  C   UNL     1      28.385  40.526  51.089  1.00  0.00     0.050 A 
HETATM    5  N   UNL     1      28.998  39.272  51.053  1.00  0.00    -0.324 N 
HETATM    6  C   UNL     1      28.723  38.218  50.232  1.00  0.00     0.245 C 
HETATM    7  O   UNL     1      29.349  37.174  50.431  1.00  0.00    -0.271 OA
HETATM    8  C   UNL     1      27.556  38.337  49.231  1.00  0.00     0.181 C 
HETATM    9  N   UNL     1      27.869  39.372  48.232  1.00  0.00    -0.334 N 
HETATM   10  C   UNL     1      27.914  40.733  48.581  1.00  0.00     0.256 C 
HETATM   11  O   UNL     1      27.965  41.609  47.714  1.00  0.00    -0.267 OA
HETATM   12  C   UNL     1      27.282  36.930  48.668  1.00  0.00     0.060 C 
HETATM   13  C   UNL     1      26.527  36.936  47.349  1.00  0.00     0.090 C 
HETATM   14  C   UNL     1      27.357  37.730  46.355  1.00  0.00     0.045 C 
HETATM   15  C   UNL     1      27.554  39.162  46.815  1.00  0.00     0.129 C 
HETATM   16  C   UNL     1      28.371  41.153  52.343  1.00  0.00     0.031 A 
HETATM   17  C   UNL     1      27.755  42.395  52.525  1.00  0.00     0.014 A 
HETATM   18  H   UNL     1      29.614  39.009  51.815  1.00  0.00     0.169 HD
ENDROOT
BRANCH   1  19
HETATM   19  C   UNL     1      26.520  44.400  51.625  1.00  0.00     0.009 A 
HETATM   20  C   UNL     1      26.786  45.267  52.716  1.00  0.00     0.079 A 
HETATM   21  C   UNL     1      26.113  46.494  52.821  1.00  0.00     0.039 A 
HETATM   22  C   UNL     1      25.189  46.885  51.851  1.00  0.00     0.026 A 
HETATM   23  C   UNL     1      24.927  46.051  50.775  1.00  0.00     0.035 A 
HETATM   24  C   UNL     1      25.577  44.823  50.661  1.00  0.00     0.039 A 
HETATM   25 CL   UNL     1      23.794  46.533  49.572  1.00  0.00    -0.084 Cl
BRANCH  20  26
HETATM   26  O   UNL     1      27.728  44.843  53.622  1.00  0.00    -0.355 OA
HETATM   27  C   UNL     1      27.598  45.269  54.972  1.00  0.00     0.210 C 
ENDBRANCH  20  26
ENDBRANCH   1  19
BRANCH  13  28
HETATM   28  N   UNL     1      25.166  37.442  47.480  1.00  0.00    -0.338 N 
HETATM   29  C   UNL     1      24.141  36.900  46.745  1.00  0.00     0.316 C 
HETATM   30  N   UNL     1      22.931  37.411  47.136  1.00  0.00    -0.340 N 
HETATM   31  O   UNL     1      24.287  36.052  45.877  1.00  0.00    -0.247 OA
HETATM   32  H   UNL     1      22.958  38.366  47.460  1.00  0.00     0.164 HD
HETATM   33  H   UNL     1      24.881  37.811  48.376  1.00  0.00     0.164 HD
BRANCH  30  34
HETATM   34  C   UNL     1      21.733  37.017  46.438  1.00  0.00     0.150 C 
BRANCH  34  35
HETATM   35  C   UNL     1      20.907  38.249  46.249  1.00  0.00    -0.018 C 
HETATM   36  C   UNL     1      20.354  38.960  47.241  1.00  0.00     0.008 C 
ENDBRANCH  34  35
ENDBRANCH  30  34
ENDBRANCH  13  28
TORSDOF 5
ENDMDL
MODEL 10
REMARK VINA RESULT:      -7.9      8.579     11.683
REMARK  5 active torsions:
REMARK  status: ('A' for Active; 'I' for Inactive)
REMARK    1  A    between atoms: O_2  and  C_3 
REMARK    2  A    between atoms: C_4  and  C_5 
REMARK    3  A    between atoms: C_17  and  N_18 
REMARK       I    between atoms: N_18  and  C_19 
REMARK       I    between atoms: C_19  and  N_20 
REMARK    4  A    between atoms: N_20  and  C_21 
REMARK    5  A    between atoms: C_21  and  C_22 
ROOT
HETATM    1  C   UNL     1      15.699  51.906  47.543  1.00  0.00    -0.022 A 
HETATM    2  C   UNL     1      15.892  50.559  47.899  1.00  0.00     0.031 A 
HETATM    3  C   UNL     1      16.395  49.593  46.995  1.00  0.00     0.059 A 
HETATM    4  C   UNL     1      16.692  49.984  45.690  1.00  0.00     0.050 A 
HETATM    5  N   UNL     1      17.189  49.148  44.688  1.00  0.00    -0.324 N 
HETATM    6  C   UNL     1      17.998  48.058  44.817  1.00  0.00     0.245 C 
HETATM    7  O   UNL     1      18.373  47.511  43.777  1.00  0.00    -0.271 OA
HETATM    8  C   UNL     1      18.518  47.678  46.218  1.00  0.00     0.181 C 
HETATM    9  N   UNL     1      17.387  47.267  47.068  1.00  0.00    -0.334 N 
HETATM   10  C   UNL     1      16.429  48.197  47.505  1.00  0.00     0.256 C 
HETATM   11  O   UNL     1      15.611  47.902  48.380  1.00  0.00    -0.267 OA
HETATM   12  C   UNL     1      19.627  46.626  46.033  1.00  0.00     0.060 C 
HETATM   13  C   UNL     1      19.901  45.799  47.279  1.00  0.00     0.090 C 
HETATM   14  C   UNL     1      18.602  45.109  47.659  1.00  0.00     0.045 C 
HETATM   15  C   UNL     1      17.509  46.115  47.967  1.00  0.00     0.129 C 
HETATM   16  C   UNL     1      16.459  51.311  45.306  1.00  0.00     0.031 A 
HETATM   17  C   UNL     1      15.998  52.261  46.223  1.00  0.00     0.014 A 
HETATM   18  H   UNL     1      17.099  49.442  43.721  1.00  0.00     0.169 HD
ENDROOT
BRANCH   1  19
HETATM   19  C   UNL     1      15.211  52.900  48.532  1.00  0.00     0.009 A 
HETATM   20  C   UNL     1      15.703  52.983  49.859  1.00  0.00     0.079 A 
HETATM   21  C   UNL     1      15.184  53.942  50.744  1.00  0.00     0.039 A 
HETATM   22  C   UNL     1      14.193  54.833  50.329  1.00  0.00     0.026 A 
HETATM   23  C   UNL     1      13.711  54.767  49.030  1.00  0.00     0.035 A 
HETATM   24  C   UNL     1      14.206  53.814  48.142  1.00  0.00     0.039 A 
HETATM   25 CL   UNL     1      12.496  55.870  48.510  1.00  0.00    -0.084 Cl
BRANCH  20  26
HETATM   26  O   UNL     1      16.699  52.102  50.203  1.00  0.00    -0.355 OA
HETATM   27  C   UNL     1      18.044  52.469  49.928  1.00  0.00     0.210 C 
ENDBRANCH  20  26
ENDBRANCH   1  19
BRANCH  13  28
HETATM   28  N   UNL     1      20.462  46.589  48.367  1.00  0.00    -0.338 N 
HETATM   29  C   UNL     1      21.654  47.252  48.212  1.00  0.00     0.316 C 
HETATM   30  N   UNL     1      21.915  48.055  49.291  1.00  0.00    -0.340 N 
HETATM   31  O   UNL     1      22.372  47.160  47.227  1.00  0.00    -0.247 OA
HETATM   32  H   UNL     1      21.565  47.709  50.172  1.00  0.00     0.164 HD
HETATM   33  H   UNL     1      19.822  47.036  49.009  1.00  0.00     0.164 HD
BRANCH  30  34
HETATM   34  C   UNL     1      23.156  48.786  49.352  1.00  0.00     0.150 C 
BRANCH  34  35
HETATM   35  C   UNL     1      22.816  50.241  49.291  1.00  0.00    -0.018 C 
HETATM   36  C   UNL     1      21.579  50.743  49.405  1.00  0.00     0.008 C 
ENDBRANCH  34  35
ENDBRANCH  30  34
ENDBRANCH  13  28
TORSDOF 5
ENDMDL
