MODEL 1
REMARK VINA RESULT:      -8.6      0.000      0.000
REMARK  3 active torsions:
REMARK  status: ('A' for Active; 'I' for Inactive)
REMARK    1  A    between atoms: C_9  and  C_10 
REMARK    2  A    between atoms: C_16  and  C_17 
REMARK       I    between atoms: C_17  and  N_18 
REMARK    3  A    between atoms: N_18  and  C_19 
ROOT
HETATM    1  C   UNL     1      28.704  40.847  52.242  1.00  0.00     0.070 C 
HETATM    2  C   UNL     1      27.516  41.569  51.656  1.00  0.00     0.037 C 
HETATM    3  N   UNL     1      27.008  41.031  50.476  1.00  0.00    -0.191 N 
HETATM    4  C   UNL     1      25.813  41.394  49.966  1.00  0.00     0.735 A 
HETATM    5  N   UNL     1      25.134  42.440  50.526  1.00  0.00    -0.092 N 
HETATM    6  N   UNL     1      23.939  42.588  49.935  1.00  0.00     0.012 NA
HETATM    7  N   UNL     1      23.920  41.659  48.984  1.00  0.00     0.033 NA
HETATM    8  N   UNL     1      25.081  40.907  48.993  1.00  0.00     0.030 NA
HETATM    9  C   UNL     1      25.624  43.240  51.644  1.00  0.00     0.198 C 
HETATM   10  C   UNL     1      26.894  42.629  52.232  1.00  0.00     0.062 C 
HETATM   11  H   UNL     1      27.441  40.180  50.123  1.00  0.00     0.184 HD
ENDROOT
BRANCH  10  12
HETATM   12  C   UNL     1      27.298  43.215  53.536  1.00  0.00     0.256 C 
HETATM   13  N   UNL     1      28.549  43.787  53.521  1.00  0.00    -0.322 N 
HETATM   14  H   UNL     1      29.041  43.812  52.637  1.00  0.00     0.169 HD
HETATM   15  O   UNL     1      26.506  43.183  54.469  1.00  0.00    -0.267 OA
BRANCH  13  16
HETATM   16  C   UNL     1      29.231  44.335  54.629  1.00  0.00     0.052 A 
HETATM   17  C   UNL     1      28.913  45.539  55.253  1.00  0.00     0.145 A 
HETATM   18  N   UNL     1      29.567  46.032  56.338  1.00  0.00    -0.271 NA
HETATM   19  C   UNL     1      30.583  45.294  56.825  1.00  0.00     0.116 A 
HETATM   20  C   UNL     1      30.982  44.087  56.279  1.00  0.00     0.021 A 
HETATM   21  C   UNL     1      30.296  43.605  55.164  1.00  0.00     0.032 A 
ENDBRANCH  13  16
ENDBRANCH  10  12
BRANCH   9  22
HETATM   22  C   UNL     1      25.843  44.687  51.210  1.00  0.00    -0.029 A 
HETATM   23  C   UNL     1      26.685  44.965  50.122  1.00  0.00     0.009 A 
HETATM   24  C   UNL     1      26.898  46.280  49.702  1.00  0.00     0.001 A 
HETATM   25  C   UNL     1      26.267  47.333  50.360  1.00  0.00     0.000 A 
HETATM   26  C   UNL     1      25.416  47.074  51.433  1.00  0.00     0.001 A 
HETATM   27  C   UNL     1      25.200  45.762  51.853  1.00  0.00     0.009 A 
ENDBRANCH   9  22
TORSDOF 3
ENDMDL
MODEL 2
REMARK VINA RESULT:      -7.7      2.562      6.634
REMARK  3 active torsions:
REMARK  status: ('A' for Active; 'I' for Inactive)
REMARK    1  A    between atoms: C_9  and  C_10 
REMARK    2  A    between atoms: C_16  and  C_17 
REMARK       I    between atoms: C_17  and  N_18 
REMARK    3  A    between atoms: N_18  and  C_19 
ROOT
HETATM    1  C   UNL     1      24.547  45.677  49.383  1.00  0.00     0.070 C 
HETATM    2  C   UNL     1      25.089  45.575  50.787  1.00  0.00     0.037 C 
HETATM    3  N   UNL     1      25.319  46.788  51.431  1.00  0.00    -0.191 N 
HETATM    4  C   UNL     1      25.556  46.876  52.757  1.00  0.00     0.735 A 
HETATM    5  N   UNL     1      25.739  45.731  53.482  1.00  0.00    -0.092 N 
HETATM    6  N   UNL     1      25.875  46.023  54.784  1.00  0.00     0.012 NA
HETATM    7  N   UNL     1      25.824  47.351  54.835  1.00  0.00     0.033 NA
HETATM    8  N   UNL     1      25.623  47.894  53.580  1.00  0.00     0.030 NA
HETATM    9  C   UNL     1      25.728  44.384  52.919  1.00  0.00     0.198 C 
HETATM   10  C   UNL     1      25.287  44.412  51.457  1.00  0.00     0.062 C 
HETATM   11  H   UNL     1      25.069  47.640  50.933  1.00  0.00     0.184 HD
ENDROOT
BRANCH  10  12
HETATM   12  C   UNL     1      24.982  43.072  50.895  1.00  0.00     0.256 C 
HETATM   13  N   UNL     1      26.021  42.523  50.178  1.00  0.00    -0.322 N 
HETATM   14  H   UNL     1      26.892  43.036  50.152  1.00  0.00     0.169 HD
HETATM   15  O   UNL     1      23.894  42.563  51.135  1.00  0.00    -0.267 OA
BRANCH  13  16
HETATM   16  C   UNL     1      25.989  41.310  49.455  1.00  0.00     0.052 A 
HETATM   17  C   UNL     1      25.353  41.122  48.231  1.00  0.00     0.145 A 
HETATM   18  N   UNL     1      25.361  39.951  47.540  1.00  0.00    -0.271 NA
HETATM   19  C   UNL     1      26.033  38.922  48.091  1.00  0.00     0.116 A 
HETATM   20  C   UNL     1      26.697  39.003  49.303  1.00  0.00     0.021 A 
HETATM   21  C   UNL     1      26.669  40.215  49.993  1.00  0.00     0.032 A 
ENDBRANCH  13  16
ENDBRANCH  10  12
BRANCH   9  22
HETATM   22  C   UNL     1      27.096  43.726  53.084  1.00  0.00    -0.029 A 
HETATM   23  C   UNL     1      27.273  42.728  54.056  1.00  0.00     0.009 A 
HETATM   24  C   UNL     1      28.512  42.108  54.225  1.00  0.00     0.001 A 
HETATM   25  C   UNL     1      29.589  42.471  53.419  1.00  0.00     0.000 A 
HETATM   26  C   UNL     1      29.427  43.449  52.439  1.00  0.00     0.001 A 
HETATM   27  C   UNL     1      28.190  44.069  52.268  1.00  0.00     0.009 A 
ENDBRANCH   9  22
TORSDOF 3
ENDMDL
MODEL 3
REMARK VINA RESULT:      -7.6     12.935     15.561
REMARK  3 active torsions:
REMARK  status: ('A' for Active; 'I' for Inactive)
REMARK    1  A    between atoms: C_9  and  C_10 
REMARK    2  A    between atoms: C_16  and  C_17 
REMARK       I    between atoms: C_17  and  N_18 
REMARK    3  A    between atoms: N_18  and  C_19 
ROOT
HETATM    1  C   UNL     1      32.122  48.363  42.356  1.00  0.00     0.070 C 
HETATM    2  C   UNL     1      32.336  49.530  41.424  1.00  0.00     0.037 C 
HETATM    3  N   UNL     1      33.327  50.430  41.806  1.00  0.00    -0.191 N 
HETATM    4  C   UNL     1      33.815  51.374  40.974  1.00  0.00     0.735 A 
HETATM    5  N   UNL     1      33.216  51.573  39.762  1.00  0.00    -0.092 N 
HETATM    6  N   UNL     1      33.894  52.487  39.052  1.00  0.00     0.012 NA
HETATM    7  N   UNL     1      34.876  52.875  39.861  1.00  0.00     0.033 NA
HETATM    8  N   UNL     1      34.839  52.188  41.061  1.00  0.00     0.030 NA
HETATM    9  C   UNL     1      32.039  50.848  39.291  1.00  0.00     0.198 C 
HETATM   10  C   UNL     1      31.691  49.705  40.243  1.00  0.00     0.062 C 
HETATM   11  H   UNL     1      33.855  50.217  42.650  1.00  0.00     0.184 HD
ENDROOT
BRANCH  10  12
HETATM   12  C   UNL     1      30.689  48.753  39.700  1.00  0.00     0.256 C 
HETATM   13  N   UNL     1      29.425  48.926  40.216  1.00  0.00    -0.322 N 
HETATM   14  H   UNL     1      29.282  49.700  40.852  1.00  0.00     0.169 HD
HETATM   15  O   UNL     1      31.038  47.951  38.843  1.00  0.00    -0.267 OA
BRANCH  13  16
HETATM   16  C   UNL     1      28.298  48.115  39.959  1.00  0.00     0.052 A 
HETATM   17  C   UNL     1      27.430  48.265  38.880  1.00  0.00     0.145 A 
HETATM   18  N   UNL     1      26.368  47.452  38.638  1.00  0.00    -0.271 NA
HETATM   19  C   UNL     1      26.160  46.444  39.508  1.00  0.00     0.116 A 
HETATM   20  C   UNL     1      26.960  46.209  40.612  1.00  0.00     0.021 A 
HETATM   21  C   UNL     1      28.042  47.060  40.839  1.00  0.00     0.032 A 
ENDBRANCH  13  16
ENDBRANCH  10  12
BRANCH   9  22
HETATM   22  C   UNL     1      30.864  51.803  39.102  1.00  0.00    -0.029 A 
HETATM   23  C   UNL     1      30.502  52.672  40.145  1.00  0.00     0.009 A 
HETATM   24  C   UNL     1      29.434  53.558  39.996  1.00  0.00     0.001 A 
HETATM   25  C   UNL     1      28.717  53.594  38.801  1.00  0.00     0.000 A 
HETATM   26  C   UNL     1      29.072  52.748  37.752  1.00  0.00     0.001 A 
HETATM   27  C   UNL     1      30.140  51.863  37.897  1.00  0.00     0.009 A 
ENDBRANCH   9  22
TORSDOF 3
ENDMDL
MODEL 4
REMARK VINA RESULT:      -7.3     12.714     13.468
REMARK  3 active torsions:
REMARK  status: ('A' for Active; 'I' for Inactive)
REMARK    1  A    between atoms: C_9  and  C_10 
REMARK    2  A    between atoms: C_16  and  C_17 
REMARK       I    between atoms: C_17  and  N_18 
REMARK    3  A    between atoms: N_18  and  C_19 
ROOT
HETATM    1  C   UNL     1      31.283  46.900  39.895  1.00  0.00     0.070 C 
HETATM    2  C   UNL     1      30.033  47.745  39.879  1.00  0.00     0.037 C 
HETATM    3  N   UNL     1      29.069  47.372  38.946  1.00  0.00    -0.191 N 
HETATM    4  C   UNL     1      27.807  47.852  38.970  1.00  0.00     0.735 A 
HETATM    5  N   UNL     1      27.491  48.861  39.837  1.00  0.00    -0.092 N 
HETATM    6  N   UNL     1      26.180  49.137  39.770  1.00  0.00     0.012 NA
HETATM    7  N   UNL     1      25.717  48.325  38.824  1.00  0.00     0.033 NA
HETATM    8  N   UNL     1      26.720  47.518  38.319  1.00  0.00     0.030 NA
HETATM    9  C   UNL     1      28.439  49.501  40.743  1.00  0.00     0.198 C 
HETATM   10  C   UNL     1      29.776  48.762  40.739  1.00  0.00     0.062 C 
HETATM   11  H   UNL     1      29.255  46.546  38.381  1.00  0.00     0.184 HD
ENDROOT
BRANCH  10  12
HETATM   12  C   UNL     1      30.696  49.174  41.830  1.00  0.00     0.256 C 
HETATM   13  N   UNL     1      31.453  50.283  41.527  1.00  0.00    -0.322 N 
HETATM   14  H   UNL     1      31.276  50.740  40.641  1.00  0.00     0.169 HD
HETATM   15  O   UNL     1      30.681  48.550  42.883  1.00  0.00    -0.267 OA
BRANCH  13  16
HETATM   16  C   UNL     1      32.472  50.844  42.326  1.00  0.00     0.052 A 
HETATM   17  C   UNL     1      33.803  50.992  41.944  1.00  0.00     0.145 A 
HETATM   18  N   UNL     1      34.760  51.562  42.722  1.00  0.00    -0.271 NA
HETATM   19  C   UNL     1      34.377  52.006  43.935  1.00  0.00     0.116 A 
HETATM   20  C   UNL     1      33.082  51.905  44.412  1.00  0.00     0.021 A 
HETATM   21  C   UNL     1      32.119  51.313  43.594  1.00  0.00     0.032 A 
ENDBRANCH  13  16
ENDBRANCH  10  12
BRANCH   9  22
HETATM   22  C   UNL     1      28.608  50.975  40.384  1.00  0.00    -0.029 A 
HETATM   23  C   UNL     1      28.944  51.335  39.069  1.00  0.00     0.009 A 
HETATM   24  C   UNL     1      29.100  52.676  38.714  1.00  0.00     0.001 A 
HETATM   25  C   UNL     1      28.916  53.676  39.666  1.00  0.00     0.000 A 
HETATM   26  C   UNL     1      28.568  53.338  40.973  1.00  0.00     0.001 A 
HETATM   27  C   UNL     1      28.409  51.999  41.330  1.00  0.00     0.009 A 
ENDBRANCH   9  22
TORSDOF 3
ENDMDL
MODEL 5
REMARK VINA RESULT:      -7.3      5.482      8.663
REMARK  3 active torsions:
REMARK  status: ('A' for Active; 'I' for Inactive)
REMARK    1  A    between atoms: C_9  and  C_10 
REMARK    2  A    between atoms: C_16  and  C_17 
REMARK       I    between atoms: C_17  and  N_18 
REMARK    3  A    between atoms: N_18  and  C_19 
ROOT
HETATM    1  C   UNL     1      25.192  48.216  49.541  1.00  0.00     0.070 C 
HETATM    2  C   UNL     1      24.472  46.890  49.545  1.00  0.00     0.037 C 
HETATM    3  N   UNL     1      25.155  45.839  50.151  1.00  0.00    -0.191 N 
HETATM    4  C   UNL     1      24.561  44.668  50.464  1.00  0.00     0.735 A 
HETATM    5  N   UNL     1      23.285  44.428  50.034  1.00  0.00    -0.092 N 
HETATM    6  N   UNL     1      22.845  43.256  50.515  1.00  0.00     0.012 NA
HETATM    7  N   UNL     1      23.878  42.767  51.196  1.00  0.00     0.033 NA
HETATM    8  N   UNL     1      24.952  43.637  51.173  1.00  0.00     0.030 NA
HETATM    9  C   UNL     1      22.502  45.348  49.215  1.00  0.00     0.198 C 
HETATM   10  C   UNL     1      23.216  46.691  49.074  1.00  0.00     0.062 C 
HETATM   11  H   UNL     1      26.056  46.047  50.577  1.00  0.00     0.184 HD
ENDROOT
BRANCH  10  12
HETATM   12  C   UNL     1      22.368  47.766  48.498  1.00  0.00     0.256 C 
HETATM   13  N   UNL     1      21.599  48.424  49.430  1.00  0.00    -0.322 N 
HETATM   14  H   UNL     1      21.722  48.168  50.401  1.00  0.00     0.169 HD
HETATM   15  O   UNL     1      22.447  48.002  47.299  1.00  0.00    -0.267 OA
BRANCH  13  16
HETATM   16  C   UNL     1      20.635  49.421  49.166  1.00  0.00     0.052 A 
HETATM   17  C   UNL     1      19.256  49.229  49.182  1.00  0.00     0.145 A 
HETATM   18  N   UNL     1      18.347  50.213  48.952  1.00  0.00    -0.271 NA
HETATM   19  C   UNL     1      18.831  51.444  48.695  1.00  0.00     0.116 A 
HETATM   20  C   UNL     1      20.182  51.740  48.652  1.00  0.00     0.021 A 
HETATM   21  C   UNL     1      21.094  50.711  48.889  1.00  0.00     0.032 A 
ENDBRANCH  13  16
ENDBRANCH  10  12
BRANCH   9  22
HETATM   22  C   UNL     1      22.197  44.725  47.855  1.00  0.00    -0.029 A 
HETATM   23  C   UNL     1      20.862  44.578  47.443  1.00  0.00     0.009 A 
HETATM   24  C   UNL     1      20.557  44.015  46.203  1.00  0.00     0.001 A 
HETATM   25  C   UNL     1      21.580  43.599  45.354  1.00  0.00     0.000 A 
HETATM   26  C   UNL     1      22.910  43.752  45.740  1.00  0.00     0.001 A 
HETATM   27  C   UNL     1      23.218  44.315  46.979  1.00  0.00     0.009 A 
ENDBRANCH   9  22
TORSDOF 3
ENDMDL
MODEL 6
REMARK VINA RESULT:      -7.2      5.205      8.542
REMARK  3 active torsions:
REMARK  status: ('A' for Active; 'I' for Inactive)
REMARK    1  A    between atoms: C_9  and  C_10 
REMARK    2  A    between atoms: C_16  and  C_17 
REMARK       I    between atoms: C_17  and  N_18 
REMARK    3  A    between atoms: N_18  and  C_19 
ROOT
HETATM    1  C   UNL     1      25.709  48.961  49.070  1.00  0.00     0.070 C 
HETATM    2  C   UNL     1      25.145  47.619  49.466  1.00  0.00     0.037 C 
HETATM    3  N   UNL     1      26.030  46.765  50.120  1.00  0.00    -0.191 N 
HETATM    4  C   UNL     1      25.627  45.647  50.758  1.00  0.00     0.735 A 
HETATM    5  N   UNL     1      24.329  45.236  50.635  1.00  0.00    -0.092 N 
HETATM    6  N   UNL     1      24.106  44.162  51.407  1.00  0.00     0.012 NA
HETATM    7  N   UNL     1      25.287  43.897  51.958  1.00  0.00     0.033 NA
HETATM    8  N   UNL     1      26.243  44.816  51.563  1.00  0.00     0.030 NA
HETATM    9  C   UNL     1      23.321  45.910  49.821  1.00  0.00     0.198 C 
HETATM   10  C   UNL     1      23.854  47.240  49.292  1.00  0.00     0.062 C 
HETATM   11  H   UNL     1      26.964  47.119  50.317  1.00  0.00     0.184 HD
ENDROOT
BRANCH  10  12
HETATM   12  C   UNL     1      22.810  48.112  48.694  1.00  0.00     0.256 C 
HETATM   13  N   UNL     1      22.003  48.726  49.624  1.00  0.00    -0.322 N 
HETATM   14  H   UNL     1      22.225  48.584  50.601  1.00  0.00     0.169 HD
HETATM   15  O   UNL     1      22.776  48.244  47.477  1.00  0.00    -0.267 OA
BRANCH  13  16
HETATM   16  C   UNL     1      20.876  49.531  49.351  1.00  0.00     0.052 A 
HETATM   17  C   UNL     1      19.552  49.104  49.404  1.00  0.00     0.145 A 
HETATM   18  N   UNL     1      18.482  49.906  49.165  1.00  0.00    -0.271 NA
HETATM   19  C   UNL     1      18.740  51.193  48.861  1.00  0.00     0.116 A 
HETATM   20  C   UNL     1      20.018  51.719  48.780  1.00  0.00     0.021 A 
HETATM   21  C   UNL     1      21.098  50.872  49.027  1.00  0.00     0.032 A 
ENDBRANCH  13  16
ENDBRANCH  10  12
BRANCH   9  22
HETATM   22  C   UNL     1      22.852  44.999  48.690  1.00  0.00    -0.029 A 
HETATM   23  C   UNL     1      21.483  44.920  48.386  1.00  0.00     0.009 A 
HETATM   24  C   UNL     1      21.029  44.098  47.353  1.00  0.00     0.001 A 
HETATM   25  C   UNL     1      21.936  43.349  46.606  1.00  0.00     0.000 A 
HETATM   26  C   UNL     1      23.299  43.427  46.885  1.00  0.00     0.001 A 
HETATM   27  C   UNL     1      23.756  44.249  47.915  1.00  0.00     0.009 A 
ENDBRANCH   9  22
TORSDOF 3
ENDMDL
MODEL 7
REMARK VINA RESULT:      -7.2      6.806      9.226
REMARK  3 active torsions:
REMARK  status: ('A' for Active; 'I' for Inactive)
REMARK    1  A    between atoms: C_9  and  C_10 
REMARK    2  A    between atoms: C_16  and  C_17 
REMARK       I    between atoms: C_17  and  N_18 
REMARK    3  A    between atoms: N_18  and  C_19 
ROOT
HETATM    1  C   UNL     1      20.937  50.943  50.204  1.00  0.00     0.070 C 
HETATM    2  C   UNL     1      20.341  49.936  49.251  1.00  0.00     0.037 C 
HETATM    3  N   UNL     1      18.974  49.714  49.390  1.00  0.00    -0.191 N 
HETATM    4  C   UNL     1      18.246  49.049  48.467  1.00  0.00     0.735 A 
HETATM    5  N   UNL     1      18.885  48.426  47.432  1.00  0.00    -0.092 N 
HETATM    6  N   UNL     1      17.991  47.897  46.584  1.00  0.00     0.012 NA
HETATM    7  N   UNL     1      16.811  48.161  47.138  1.00  0.00     0.033 NA
HETATM    8  N   UNL     1      16.956  48.879  48.311  1.00  0.00     0.030 NA
HETATM    9  C   UNL     1      20.334  48.394  47.253  1.00  0.00     0.198 C 
HETATM   10  C   UNL     1      21.024  49.315  48.257  1.00  0.00     0.062 C 
HETATM   11  H   UNL     1      18.476  50.267  50.084  1.00  0.00     0.184 HD
ENDROOT
BRANCH  10  12
HETATM   12  C   UNL     1      22.461  49.555  47.965  1.00  0.00     0.256 C 
HETATM   13  N   UNL     1      23.317  48.889  48.811  1.00  0.00    -0.322 N 
HETATM   14  H   UNL     1      22.906  48.266  49.495  1.00  0.00     0.169 HD
HETATM   15  O   UNL     1      22.759  50.263  47.011  1.00  0.00    -0.267 OA
BRANCH  13  16
HETATM   16  C   UNL     1      24.724  48.999  48.834  1.00  0.00     0.052 A 
HETATM   17  C   UNL     1      25.466  49.955  48.144  1.00  0.00     0.145 A 
HETATM   18  N   UNL     1      26.820  50.058  48.205  1.00  0.00    -0.271 NA
HETATM   19  C   UNL     1      27.465  49.172  48.989  1.00  0.00     0.116 A 
HETATM   20  C   UNL     1      26.823  48.182  49.713  1.00  0.00     0.021 A 
HETATM   21  C   UNL     1      25.434  48.097  49.630  1.00  0.00     0.032 A 
ENDBRANCH  13  16
ENDBRANCH  10  12
BRANCH   9  22
HETATM   22  C   UNL     1      20.853  46.962  47.350  1.00  0.00    -0.029 A 
HETATM   23  C   UNL     1      20.697  46.247  48.549  1.00  0.00     0.009 A 
HETATM   24  C   UNL     1      21.158  44.935  48.663  1.00  0.00     0.001 A 
HETATM   25  C   UNL     1      21.776  44.316  47.578  1.00  0.00     0.000 A 
HETATM   26  C   UNL     1      21.925  45.005  46.376  1.00  0.00     0.001 A 
HETATM   27  C   UNL     1      21.463  46.316  46.259  1.00  0.00     0.009 A 
ENDBRANCH   9  22
TORSDOF 3
ENDMDL
MODEL 8
REMARK VINA RESULT:      -7.1      3.415      4.875
REMARK  3 active torsions:
REMARK  status: ('A' for Active; 'I' for Inactive)
REMARK    1  A    between atoms: C_9  and  C_10 
REMARK    2  A    between atoms: C_16  and  C_17 
REMARK       I    between atoms: C_17  and  N_18 
REMARK    3  A    between atoms: N_18  and  C_19 
ROOT
HETATM    1  C   UNL     1      24.435  43.446  49.152  1.00  0.00     0.070 C 
HETATM    2  C   UNL     1      24.063  44.908  49.132  1.00  0.00     0.037 C 
HETATM    3  N   UNL     1      22.987  45.242  48.313  1.00  0.00    -0.191 N 
HETATM    4  C   UNL     1      22.371  46.442  48.373  1.00  0.00     0.735 A 
HETATM    5  N   UNL     1      22.908  47.433  49.145  1.00  0.00    -0.092 N 
HETATM    6  N   UNL     1      22.110  48.511  49.139  1.00  0.00     0.012 NA
HETATM    7  N   UNL     1      21.114  48.184  48.320  1.00  0.00     0.033 NA
HETATM    8  N   UNL     1      21.263  46.896  47.837  1.00  0.00     0.030 NA
HETATM    9  C   UNL     1      24.146  47.309  49.908  1.00  0.00     0.198 C 
HETATM   10  C   UNL     1      24.649  45.867  49.892  1.00  0.00     0.062 C 
HETATM   11  H   UNL     1      22.511  44.483  47.830  1.00  0.00     0.184 HD
ENDROOT
BRANCH  10  12
HETATM   12  C   UNL     1      25.738  45.598  50.866  1.00  0.00     0.256 C 
HETATM   13  N   UNL     1      25.405  45.901  52.166  1.00  0.00    -0.322 N 
HETATM   14  H   UNL     1      24.458  46.211  52.346  1.00  0.00     0.169 HD
HETATM   15  O   UNL     1      26.786  45.110  50.461  1.00  0.00    -0.267 OA
BRANCH  13  16
HETATM   16  C   UNL     1      26.263  45.838  53.286  1.00  0.00     0.052 A 
HETATM   17  C   UNL     1      26.687  44.667  53.908  1.00  0.00     0.145 A 
HETATM   18  N   UNL     1      27.537  44.631  54.967  1.00  0.00    -0.271 NA
HETATM   19  C   UNL     1      27.987  45.814  55.429  1.00  0.00     0.116 A 
HETATM   20  C   UNL     1      27.626  47.034  54.886  1.00  0.00     0.021 A 
HETATM   21  C   UNL     1      26.749  47.043  53.801  1.00  0.00     0.032 A 
ENDBRANCH  13  16
ENDBRANCH  10  12
BRANCH   9  22
HETATM   22  C   UNL     1      25.199  48.280  49.381  1.00  0.00    -0.029 A 
HETATM   23  C   UNL     1      24.814  49.317  48.516  1.00  0.00     0.009 A 
HETATM   24  C   UNL     1      25.757  50.221  48.023  1.00  0.00     0.001 A 
HETATM   25  C   UNL     1      27.095  50.107  48.395  1.00  0.00     0.000 A 
HETATM   26  C   UNL     1      27.491  49.093  49.264  1.00  0.00     0.001 A 
HETATM   27  C   UNL     1      26.551  48.189  49.760  1.00  0.00     0.009 A 
ENDBRANCH   9  22
TORSDOF 3
ENDMDL
MODEL 9
REMARK VINA RESULT:      -7.1      8.305     11.752
REMARK  3 active torsions:
REMARK  status: ('A' for Active; 'I' for Inactive)
REMARK    1  A    between atoms: C_9  and  C_10 
REMARK    2  A    between atoms: C_16  and  C_17 
REMARK       I    between atoms: C_17  and  N_18 
REMARK    3  A    between atoms: N_18  and  C_19 
ROOT
HETATM    1  C   UNL     1      20.444  45.271  48.119  1.00  0.00     0.070 C 
HETATM    2  C   UNL     1      20.996  46.664  48.299  1.00  0.00     0.037 C 
HETATM    3  N   UNL     1      22.125  46.762  49.108  1.00  0.00    -0.191 N 
HETATM    4  C   UNL     1      22.885  47.876  49.168  1.00  0.00     0.735 A 
HETATM    5  N   UNL     1      22.457  49.013  48.540  1.00  0.00    -0.092 N 
HETATM    6  N   UNL     1      23.383  49.977  48.643  1.00  0.00     0.012 NA
HETATM    7  N   UNL     1      24.350  49.434  49.377  1.00  0.00     0.033 NA
HETATM    8  N   UNL     1      24.052  48.125  49.709  1.00  0.00     0.030 NA
HETATM    9  C   UNL     1      21.195  49.133  47.816  1.00  0.00     0.198 C 
HETATM   10  C   UNL     1      20.516  47.772  47.681  1.00  0.00     0.062 C 
HETATM   11  H   UNL     1      22.514  45.898  49.479  1.00  0.00     0.184 HD
ENDROOT
BRANCH  10  12
HETATM   12  C   UNL     1      19.379  47.758  46.725  1.00  0.00     0.256 C 
HETATM   13  N   UNL     1      18.161  48.023  47.310  1.00  0.00    -0.322 N 
HETATM   14  H   UNL     1      18.157  48.257  48.295  1.00  0.00     0.169 HD
HETATM   15  O   UNL     1      19.606  47.562  45.538  1.00  0.00    -0.267 OA
BRANCH  13  16
HETATM   16  C   UNL     1      16.902  47.985  46.673  1.00  0.00     0.052 A 
HETATM   17  C   UNL     1      16.562  47.145  45.616  1.00  0.00     0.145 A 
HETATM   18  N   UNL     1      15.332  47.107  45.038  1.00  0.00    -0.271 NA
HETATM   19  C   UNL     1      14.398  47.942  45.534  1.00  0.00     0.116 A 
HETATM   20  C   UNL     1      14.634  48.817  46.580  1.00  0.00     0.021 A 
HETATM   21  C   UNL     1      15.905  48.838  47.153  1.00  0.00     0.032 A 
ENDBRANCH  13  16
ENDBRANCH  10  12
BRANCH   9  22
HETATM   22  C   UNL     1      20.284  50.153  48.495  1.00  0.00    -0.029 A 
HETATM   23  C   UNL     1      20.006  51.371  47.853  1.00  0.00     0.009 A 
HETATM   24  C   UNL     1      19.173  52.318  48.451  1.00  0.00     0.001 A 
HETATM   25  C   UNL     1      18.602  52.060  49.695  1.00  0.00     0.000 A 
HETATM   26  C   UNL     1      18.856  50.851  50.340  1.00  0.00     0.001 A 
HETATM   27  C   UNL     1      19.686  49.901  49.744  1.00  0.00     0.009 A 
ENDBRANCH   9  22
TORSDOF 3
ENDMDL
MODEL 10
REMARK VINA RESULT:      -7.0     15.754     17.796
REMARK  3 active torsions:
REMARK  status: ('A' for Active; 'I' for Inactive)
REMARK    1  A    between atoms: C_9  and  C_10 
REMARK    2  A    between atoms: C_16  and  C_17 
REMARK       I    between atoms: C_17  and  N_18 
REMARK    3  A    between atoms: N_18  and  C_19 
ROOT
HETATM    1  C   UNL     1      38.518  41.872  62.777  1.00  0.00     0.070 C 
HETATM    2  C   UNL     1      37.921  42.738  63.858  1.00  0.00     0.037 C 
HETATM    3  N   UNL     1      36.646  42.373  64.284  1.00  0.00    -0.191 N 
HETATM    4  C   UNL     1      36.080  42.875  65.401  1.00  0.00     0.735 A 
HETATM    5  N   UNL     1      36.698  43.899  66.064  1.00  0.00    -0.092 N 
HETATM    6  N   UNL     1      36.027  44.198  67.187  1.00  0.00     0.012 NA
HETATM    7  N   UNL     1      34.976  43.384  67.173  1.00  0.00     0.033 NA
HETATM    8  N   UNL     1      34.997  42.553  66.067  1.00  0.00     0.030 NA
HETATM    9  C   UNL     1      37.940  44.533  65.633  1.00  0.00     0.198 C 
HETATM   10  C   UNL     1      38.561  43.770  64.464  1.00  0.00     0.062 C 
HETATM   11  H   UNL     1      36.235  41.537  63.873  1.00  0.00     0.184 HD
ENDROOT
BRANCH  10  12
HETATM   12  C   UNL     1      39.954  44.178  64.150  1.00  0.00     0.256 C 
HETATM   13  N   UNL     1      40.783  44.206  65.247  1.00  0.00    -0.322 N 
HETATM   14  H   UNL     1      40.399  43.895  66.131  1.00  0.00     0.169 HD
HETATM   15  O   UNL     1      40.253  44.407  62.985  1.00  0.00    -0.267 OA
BRANCH  13  16
HETATM   16  C   UNL     1      42.126  44.642  65.270  1.00  0.00     0.052 A 
HETATM   17  C   UNL     1      43.228  43.833  65.532  1.00  0.00     0.145 A 
HETATM   18  N   UNL     1      44.515  44.271  65.520  1.00  0.00    -0.271 NA
HETATM   19  C   UNL     1      44.714  45.572  65.232  1.00  0.00     0.116 A 
HETATM   20  C   UNL     1      43.689  46.460  64.960  1.00  0.00     0.021 A 
HETATM   21  C   UNL     1      42.377  45.985  64.982  1.00  0.00     0.032 A 
ENDBRANCH  13  16
ENDBRANCH  10  12
BRANCH   9  22
HETATM   22  C   UNL     1      37.699  45.999  65.286  1.00  0.00    -0.029 A 
HETATM   23  C   UNL     1      38.368  47.002  66.007  1.00  0.00     0.009 A 
HETATM   24  C   UNL     1      38.168  48.350  65.706  1.00  0.00     0.001 A 
HETATM   25  C   UNL     1      37.304  48.715  64.677  1.00  0.00     0.000 A 
HETATM   26  C   UNL     1      36.643  47.733  63.941  1.00  0.00     0.001 A 
HETATM   27  C   UNL     1      36.842  46.385  64.238  1.00  0.00     0.009 A 
ENDBRANCH   9  22
TORSDOF 3
ENDMDL
