MODEL 1
REMARK VINA RESULT:      -9.1      0.000      0.000
REMARK  4 active torsions:
REMARK  status: ('A' for Active; 'I' for Inactive)
REMARK    1  A    between atoms: C_4  and  N_5 
REMARK       I    between atoms: N_5  and  C_6 
REMARK    2  A    between atoms: C_6  and  C_7 
REMARK    3  A    between atoms: C_7  and  C_8 
REMARK    4  A    between atoms: C_11  and  O_12 
ROOT
HETATM    1  N   UNL     1      26.578  45.623  52.923  1.00  0.00    -0.325 N 
HETATM    2  C   UNL     1      25.734  46.691  52.702  1.00  0.00     0.226 C 
HETATM    3  O   UNL     1      25.644  47.705  53.389  1.00  0.00    -0.273 OA
HETATM    4  H   UNL     1      26.532  44.828  52.288  1.00  0.00     0.169 HD
ENDROOT
BRANCH   1   5
HETATM    5  C   UNL     1      27.512  45.428  53.968  1.00  0.00     0.065 A 
HETATM    6  C   UNL     1      27.493  46.155  55.163  1.00  0.00     0.038 A 
HETATM    7  C   UNL     1      28.444  45.911  56.159  1.00  0.00    -0.059 A 
HETATM    8  C   UNL     1      28.410  46.667  57.455  1.00  0.00     0.048 C 
HETATM    9  C   UNL     1      29.407  44.920  55.949  1.00  0.00     0.020 A 
HETATM   10  C   UNL     1      29.432  44.186  54.751  1.00  0.00    -0.005 A 
HETATM   11  C   UNL     1      28.479  44.436  53.741  1.00  0.00     0.093 A 
HETATM   12  C   UNL     1      30.394  43.193  54.524  1.00  0.00     0.015 A 
HETATM   13  N   UNL     1      28.480  43.745  52.573  1.00  0.00    -0.258 NA
HETATM   14  C   UNL     1      29.425  42.795  52.394  1.00  0.00     0.117 A 
HETATM   15  C   UNL     1      30.392  42.485  53.329  1.00  0.00     0.020 A 
ENDBRANCH   1   5
BRANCH   2  16
HETATM   16  C   UNL     1      24.867  46.506  51.466  1.00  0.00     0.141 C 
BRANCH  16  17
HETATM   17  C   UNL     1      25.150  47.538  50.402  1.00  0.00    -0.049 A 
HETATM   18  C   UNL     1      24.091  48.159  49.722  1.00  0.00     0.010 A 
HETATM   19  C   UNL     1      24.342  49.103  48.724  1.00  0.00     0.037 A 
HETATM   20  C   UNL     1      25.656  49.428  48.408  1.00  0.00     0.065 A 
HETATM   21  C   UNL     1      26.719  48.825  49.071  1.00  0.00     0.037 A 
HETATM   22  C   UNL     1      26.468  47.880  50.067  1.00  0.00     0.010 A 
BRANCH  20  23
HETATM   23  O   UNL     1      25.949  50.343  47.439  1.00  0.00    -0.361 OA
HETATM   24  H   UNL     1      25.286  50.262  46.733  1.00  0.00     0.217 HD
ENDBRANCH  20  23
ENDBRANCH  16  17
ENDBRANCH   2  16
TORSDOF 4
ENDMDL
MODEL 2
REMARK VINA RESULT:      -8.9      1.372      3.088
REMARK  4 active torsions:
REMARK  status: ('A' for Active; 'I' for Inactive)
REMARK    1  A    between atoms: C_4  and  N_5 
REMARK       I    between atoms: N_5  and  C_6 
REMARK    2  A    between atoms: C_6  and  C_7 
REMARK    3  A    between atoms: C_7  and  C_8 
REMARK    4  A    between atoms: C_11  and  O_12 
ROOT
HETATM    1  N   UNL     1      26.699  45.232  52.840  1.00  0.00    -0.325 N 
HETATM    2  C   UNL     1      26.067  45.392  51.624  1.00  0.00     0.226 C 
HETATM    3  O   UNL     1      26.241  44.713  50.616  1.00  0.00    -0.273 OA
HETATM    4  H   UNL     1      26.480  45.885  53.591  1.00  0.00     0.169 HD
ENDROOT
BRANCH   1   5
HETATM    5  C   UNL     1      27.682  44.285  53.214  1.00  0.00     0.065 A 
HETATM    6  C   UNL     1      27.811  43.029  52.612  1.00  0.00     0.038 A 
HETATM    7  C   UNL     1      28.807  42.140  53.027  1.00  0.00    -0.059 A 
HETATM    8  C   UNL     1      28.969  40.804  52.364  1.00  0.00     0.048 C 
HETATM    9  C   UNL     1      29.683  42.530  54.045  1.00  0.00     0.020 A 
HETATM   10  C   UNL     1      29.558  43.790  54.655  1.00  0.00    -0.005 A 
HETATM   11  C   UNL     1      28.549  44.685  54.244  1.00  0.00     0.093 A 
HETATM   12  C   UNL     1      30.425  44.192  55.680  1.00  0.00     0.015 A 
HETATM   13  N   UNL     1      28.404  45.907  54.816  1.00  0.00    -0.258 NA
HETATM   14  C   UNL     1      29.260  46.257  55.801  1.00  0.00     0.117 A 
HETATM   15  C   UNL     1      30.276  45.444  56.262  1.00  0.00     0.020 A 
ENDBRANCH   1   5
BRANCH   2  16
HETATM   16  C   UNL     1      25.077  46.547  51.626  1.00  0.00     0.141 C 
BRANCH  16  17
HETATM   17  C   UNL     1      25.324  47.522  50.502  1.00  0.00    -0.049 A 
HETATM   18  C   UNL     1      26.634  47.916  50.185  1.00  0.00     0.010 A 
HETATM   19  C   UNL     1      26.873  48.830  49.157  1.00  0.00     0.037 A 
HETATM   20  C   UNL     1      25.799  49.351  48.444  1.00  0.00     0.065 A 
HETATM   21  C   UNL     1      24.495  48.973  48.742  1.00  0.00     0.037 A 
HETATM   22  C   UNL     1      24.256  48.059  49.770  1.00  0.00     0.010 A 
BRANCH  20  23
HETATM   23  O   UNL     1      25.986  50.247  47.434  1.00  0.00    -0.361 OA
HETATM   24  H   UNL     1      26.900  50.164  47.116  1.00  0.00     0.217 HD
ENDBRANCH  20  23
ENDBRANCH  16  17
ENDBRANCH   2  16
TORSDOF 4
ENDMDL
MODEL 3
REMARK VINA RESULT:      -8.7      2.062      2.650
REMARK  4 active torsions:
REMARK  status: ('A' for Active; 'I' for Inactive)
REMARK    1  A    between atoms: C_4  and  N_5 
REMARK       I    between atoms: N_5  and  C_6 
REMARK    2  A    between atoms: C_6  and  C_7 
REMARK    3  A    between atoms: C_7  and  C_8 
REMARK    4  A    between atoms: C_11  and  O_12 
ROOT
HETATM    1  N   UNL     1      27.279  46.077  54.533  1.00  0.00    -0.325 N 
HETATM    2  C   UNL     1      26.914  47.399  54.400  1.00  0.00     0.226 C 
HETATM    3  O   UNL     1      27.535  48.374  54.814  1.00  0.00    -0.273 OA
HETATM    4  H   UNL     1      26.656  45.360  54.164  1.00  0.00     0.169 HD
ENDROOT
BRANCH   1   5
HETATM    5  C   UNL     1      28.418  45.528  55.171  1.00  0.00     0.065 A 
HETATM    6  C   UNL     1      28.907  45.984  56.399  1.00  0.00     0.038 A 
HETATM    7  C   UNL     1      30.036  45.395  56.978  1.00  0.00    -0.059 A 
HETATM    8  C   UNL     1      30.547  45.860  58.310  1.00  0.00     0.048 C 
HETATM    9  C   UNL     1      30.662  44.335  56.316  1.00  0.00     0.020 A 
HETATM   10  C   UNL     1      30.176  43.873  55.082  1.00  0.00    -0.005 A 
HETATM   11  C   UNL     1      29.043  44.469  54.492  1.00  0.00     0.093 A 
HETATM   12  C   UNL     1      30.797  42.814  54.405  1.00  0.00     0.015 A 
HETATM   13  N   UNL     1      28.553  44.045  53.300  1.00  0.00    -0.258 NA
HETATM   14  C   UNL     1      29.180  43.021  52.679  1.00  0.00     0.117 A 
HETATM   15  C   UNL     1      30.292  42.379  53.186  1.00  0.00     0.020 A 
ENDBRANCH   1   5
BRANCH   2  16
HETATM   16  C   UNL     1      25.598  47.571  53.654  1.00  0.00     0.141 C 
BRANCH  16  17
HETATM   17  C   UNL     1      25.554  46.779  52.371  1.00  0.00    -0.049 A 
HETATM   18  C   UNL     1      26.121  47.302  51.198  1.00  0.00     0.010 A 
HETATM   19  C   UNL     1      26.071  46.584  50.002  1.00  0.00     0.037 A 
HETATM   20  C   UNL     1      25.454  45.338  49.979  1.00  0.00     0.065 A 
HETATM   21  C   UNL     1      24.888  44.802  51.130  1.00  0.00     0.037 A 
HETATM   22  C   UNL     1      24.936  45.520  52.326  1.00  0.00     0.010 A 
BRANCH  20  23
HETATM   23  O   UNL     1      25.380  44.603  48.833  1.00  0.00    -0.361 OA
HETATM   24  H   UNL     1      26.243  44.643  48.389  1.00  0.00     0.217 HD
ENDBRANCH  20  23
ENDBRANCH  16  17
ENDBRANCH   2  16
TORSDOF 4
ENDMDL
MODEL 4
REMARK VINA RESULT:      -8.6      3.672      7.165
REMARK  4 active torsions:
REMARK  status: ('A' for Active; 'I' for Inactive)
REMARK    1  A    between atoms: C_4  and  N_5 
REMARK       I    between atoms: N_5  and  C_6 
REMARK    2  A    between atoms: C_6  and  C_7 
REMARK    3  A    between atoms: C_7  and  C_8 
REMARK    4  A    between atoms: C_11  and  O_12 
ROOT
HETATM    1  N   UNL     1      26.985  44.592  52.661  1.00  0.00    -0.325 N 
HETATM    2  C   UNL     1      26.994  44.693  54.036  1.00  0.00     0.226 C 
HETATM    3  O   UNL     1      26.277  44.075  54.818  1.00  0.00    -0.273 OA
HETATM    4  H   UNL     1      27.617  45.186  52.126  1.00  0.00     0.169 HD
ENDROOT
BRANCH   1   5
HETATM    5  C   UNL     1      26.166  43.788  51.833  1.00  0.00     0.065 A 
HETATM    6  C   UNL     1      24.884  44.165  51.419  1.00  0.00     0.038 A 
HETATM    7  C   UNL     1      24.126  43.325  50.596  1.00  0.00    -0.059 A 
HETATM    8  C   UNL     1      22.763  43.738  50.124  1.00  0.00     0.048 C 
HETATM    9  C   UNL     1      24.674  42.107  50.183  1.00  0.00     0.020 A 
HETATM   10  C   UNL     1      25.960  41.722  50.596  1.00  0.00    -0.005 A 
HETATM   11  C   UNL     1      26.724  42.564  51.432  1.00  0.00     0.093 A 
HETATM   12  C   UNL     1      26.520  40.502  50.194  1.00  0.00     0.015 A 
HETATM   13  N   UNL     1      27.968  42.217  51.848  1.00  0.00    -0.258 NA
HETATM   14  C   UNL     1      28.472  41.032  51.437  1.00  0.00     0.117 A 
HETATM   15  C   UNL     1      27.795  40.150  50.619  1.00  0.00     0.020 A 
ENDBRANCH   1   5
BRANCH   2  16
HETATM   16  C   UNL     1      28.024  45.691  54.544  1.00  0.00     0.141 C 
BRANCH  16  17
HETATM   17  C   UNL     1      29.125  45.033  55.337  1.00  0.00    -0.049 A 
HETATM   18  C   UNL     1      29.578  45.613  56.532  1.00  0.00     0.010 A 
HETATM   19  C   UNL     1      30.607  45.021  57.265  1.00  0.00     0.037 A 
HETATM   20  C   UNL     1      31.184  43.844  56.803  1.00  0.00     0.065 A 
HETATM   21  C   UNL     1      30.749  43.252  55.623  1.00  0.00     0.037 A 
HETATM   22  C   UNL     1      29.720  43.845  54.889  1.00  0.00     0.010 A 
BRANCH  20  23
HETATM   23  O   UNL     1      32.193  43.231  57.486  1.00  0.00    -0.361 OA
HETATM   24  H   UNL     1      32.970  43.182  56.904  1.00  0.00     0.217 HD
ENDBRANCH  20  23
ENDBRANCH  16  17
ENDBRANCH   2  16
TORSDOF 4
ENDMDL
MODEL 5
REMARK VINA RESULT:      -8.6      3.243      7.470
REMARK  4 active torsions:
REMARK  status: ('A' for Active; 'I' for Inactive)
REMARK    1  A    between atoms: C_4  and  N_5 
REMARK       I    between atoms: N_5  and  C_6 
REMARK    2  A    between atoms: C_6  and  C_7 
REMARK    3  A    between atoms: C_7  and  C_8 
REMARK    4  A    between atoms: C_11  and  O_12 
ROOT
HETATM    1  N   UNL     1      28.434  43.725  52.402  1.00  0.00    -0.325 N 
HETATM    2  C   UNL     1      28.598  43.145  53.643  1.00  0.00     0.226 C 
HETATM    3  O   UNL     1      27.707  42.738  54.382  1.00  0.00    -0.273 OA
HETATM    4  H   UNL     1      29.262  44.045  51.902  1.00  0.00     0.169 HD
ENDROOT
BRANCH   1   5
HETATM    5  C   UNL     1      27.237  43.998  51.699  1.00  0.00     0.065 A 
HETATM    6  C   UNL     1      26.623  45.255  51.683  1.00  0.00     0.038 A 
HETATM    7  C   UNL     1      25.440  45.460  50.965  1.00  0.00    -0.059 A 
HETATM    8  C   UNL     1      24.795  46.814  50.919  1.00  0.00     0.048 C 
HETATM    9  C   UNL     1      24.887  44.393  50.251  1.00  0.00     0.020 A 
HETATM   10  C   UNL     1      25.498  43.128  50.264  1.00  0.00    -0.005 A 
HETATM   11  C   UNL     1      26.686  42.916  50.994  1.00  0.00     0.093 A 
HETATM   12  C   UNL     1      24.952  42.048  49.557  1.00  0.00     0.015 A 
HETATM   13  N   UNL     1      27.297  41.705  51.026  1.00  0.00    -0.258 NA
HETATM   14  C   UNL     1      26.738  40.689  50.331  1.00  0.00     0.117 A 
HETATM   15  C   UNL     1      25.580  40.810  49.589  1.00  0.00     0.020 A 
ENDBRANCH   1   5
BRANCH   2  16
HETATM   16  C   UNL     1      30.060  43.044  54.053  1.00  0.00     0.141 C 
BRANCH  16  17
HETATM   17  C   UNL     1      30.346  43.750  55.355  1.00  0.00    -0.049 A 
HETATM   18  C   UNL     1      31.208  43.170  56.298  1.00  0.00     0.010 A 
HETATM   19  C   UNL     1      31.467  43.808  57.513  1.00  0.00     0.037 A 
HETATM   20  C   UNL     1      30.861  45.029  57.784  1.00  0.00     0.065 A 
HETATM   21  C   UNL     1      30.005  45.621  56.863  1.00  0.00     0.037 A 
HETATM   22  C   UNL     1      29.745  44.983  55.649  1.00  0.00     0.010 A 
BRANCH  20  23
HETATM   23  O   UNL     1      31.083  45.687  58.958  1.00  0.00    -0.361 OA
HETATM   24  H   UNL     1      30.223  45.898  59.358  1.00  0.00     0.217 HD
ENDBRANCH  20  23
ENDBRANCH  16  17
ENDBRANCH   2  16
TORSDOF 4
ENDMDL
MODEL 6
REMARK VINA RESULT:      -8.5      3.428      4.970
REMARK  4 active torsions:
REMARK  status: ('A' for Active; 'I' for Inactive)
REMARK    1  A    between atoms: C_4  and  N_5 
REMARK       I    between atoms: N_5  and  C_6 
REMARK    2  A    between atoms: C_6  and  C_7 
REMARK    3  A    between atoms: C_7  and  C_8 
REMARK    4  A    between atoms: C_11  and  O_12 
ROOT
HETATM    1  N   UNL     1      29.147  42.866  52.943  1.00  0.00    -0.325 N 
HETATM    2  C   UNL     1      28.370  41.738  52.786  1.00  0.00     0.226 C 
HETATM    3  O   UNL     1      27.816  41.103  53.679  1.00  0.00    -0.273 OA
HETATM    4  H   UNL     1      29.573  43.283  52.116  1.00  0.00     0.169 HD
ENDROOT
BRANCH   1   5
HETATM    5  C   UNL     1      29.501  43.545  54.134  1.00  0.00     0.065 A 
HETATM    6  C   UNL     1      30.541  43.135  54.974  1.00  0.00     0.038 A 
HETATM    7  C   UNL     1      30.842  43.852  56.136  1.00  0.00    -0.059 A 
HETATM    8  C   UNL     1      31.977  43.435  57.025  1.00  0.00     0.048 C 
HETATM    9  C   UNL     1      30.095  44.995  56.440  1.00  0.00     0.020 A 
HETATM   10  C   UNL     1      29.048  45.411  55.601  1.00  0.00    -0.005 A 
HETATM   11  C   UNL     1      28.737  44.685  54.433  1.00  0.00     0.093 A 
HETATM   12  C   UNL     1      28.288  46.551  55.895  1.00  0.00     0.015 A 
HETATM   13  N   UNL     1      27.731  45.063  53.605  1.00  0.00    -0.258 NA
HETATM   14  C   UNL     1      27.022  46.168  53.924  1.00  0.00     0.117 A 
HETATM   15  C   UNL     1      27.260  46.937  55.046  1.00  0.00     0.020 A 
ENDBRANCH   1   5
BRANCH   2  16
HETATM   16  C   UNL     1      28.243  41.312  51.331  1.00  0.00     0.141 C 
BRANCH  16  17
HETATM   17  C   UNL     1      27.081  41.976  50.634  1.00  0.00    -0.049 A 
HETATM   18  C   UNL     1      25.904  41.254  50.382  1.00  0.00     0.010 A 
HETATM   19  C   UNL     1      24.829  41.854  49.723  1.00  0.00     0.037 A 
HETATM   20  C   UNL     1      24.932  43.179  49.316  1.00  0.00     0.065 A 
HETATM   21  C   UNL     1      26.088  43.911  49.557  1.00  0.00     0.037 A 
HETATM   22  C   UNL     1      27.164  43.312  50.215  1.00  0.00     0.010 A 
BRANCH  20  23
HETATM   23  O   UNL     1      23.907  43.804  48.668  1.00  0.00    -0.361 OA
HETATM   24  H   UNL     1      23.113  43.745  49.224  1.00  0.00     0.217 HD
ENDBRANCH  20  23
ENDBRANCH  16  17
ENDBRANCH   2  16
TORSDOF 4
ENDMDL
MODEL 7
REMARK VINA RESULT:      -8.5      3.331      7.773
REMARK  4 active torsions:
REMARK  status: ('A' for Active; 'I' for Inactive)
REMARK    1  A    between atoms: C_4  and  N_5 
REMARK       I    between atoms: N_5  and  C_6 
REMARK    2  A    between atoms: C_6  and  C_7 
REMARK    3  A    between atoms: C_7  and  C_8 
REMARK    4  A    between atoms: C_11  and  O_12 
ROOT
HETATM    1  N   UNL     1      28.577  43.167  52.254  1.00  0.00    -0.325 N 
HETATM    2  C   UNL     1      28.804  42.814  53.567  1.00  0.00     0.226 C 
HETATM    3  O   UNL     1      27.966  42.416  54.371  1.00  0.00    -0.273 OA
HETATM    4  H   UNL     1      29.361  43.509  51.699  1.00  0.00     0.169 HD
ENDROOT
BRANCH   1   5
HETATM    5  C   UNL     1      27.360  43.170  51.530  1.00  0.00     0.065 A 
HETATM    6  C   UNL     1      26.918  42.087  50.763  1.00  0.00     0.038 A 
HETATM    7  C   UNL     1      25.703  42.153  50.073  1.00  0.00    -0.059 A 
HETATM    8  C   UNL     1      25.210  40.983  49.274  1.00  0.00     0.048 C 
HETATM    9  C   UNL     1      24.929  43.313  50.172  1.00  0.00     0.020 A 
HETATM   10  C   UNL     1      25.368  44.404  50.941  1.00  0.00    -0.005 A 
HETATM   11  C   UNL     1      26.597  44.344  51.631  1.00  0.00     0.093 A 
HETATM   12  C   UNL     1      24.606  45.575  51.045  1.00  0.00     0.015 A 
HETATM   13  N   UNL     1      27.047  45.383  52.378  1.00  0.00    -0.258 NA
HETATM   14  C   UNL     1      26.281  46.494  52.453  1.00  0.00     0.117 A 
HETATM   15  C   UNL     1      25.067  46.637  51.813  1.00  0.00     0.020 A 
ENDBRANCH   1   5
BRANCH   2  16
HETATM   16  C   UNL     1      30.263  42.967  53.971  1.00  0.00     0.141 C 
BRANCH  16  17
HETATM   17  C   UNL     1      30.427  43.714  55.272  1.00  0.00    -0.049 A 
HETATM   18  C   UNL     1      31.233  43.185  56.292  1.00  0.00     0.010 A 
HETATM   19  C   UNL     1      31.379  43.859  57.505  1.00  0.00     0.037 A 
HETATM   20  C   UNL     1      30.718  45.067  57.698  1.00  0.00     0.065 A 
HETATM   21  C   UNL     1      29.916  45.608  56.700  1.00  0.00     0.037 A 
HETATM   22  C   UNL     1      29.770  44.933  55.487  1.00  0.00     0.010 A 
BRANCH  20  23
HETATM   23  O   UNL     1      30.830  45.759  58.868  1.00  0.00    -0.361 OA
HETATM   24  H   UNL     1      30.104  45.489  59.454  1.00  0.00     0.217 HD
ENDBRANCH  20  23
ENDBRANCH  16  17
ENDBRANCH   2  16
TORSDOF 4
ENDMDL
MODEL 8
REMARK VINA RESULT:      -8.3      3.704      4.752
REMARK  4 active torsions:
REMARK  status: ('A' for Active; 'I' for Inactive)
REMARK    1  A    between atoms: C_4  and  N_5 
REMARK       I    between atoms: N_5  and  C_6 
REMARK    2  A    between atoms: C_6  and  C_7 
REMARK    3  A    between atoms: C_7  and  C_8 
REMARK    4  A    between atoms: C_11  and  O_12 
ROOT
HETATM    1  N   UNL     1      27.236  43.393  53.056  1.00  0.00    -0.325 N 
HETATM    2  C   UNL     1      27.285  43.254  51.685  1.00  0.00     0.226 C 
HETATM    3  O   UNL     1      27.630  44.110  50.876  1.00  0.00    -0.273 OA
HETATM    4  H   UNL     1      26.903  42.608  53.614  1.00  0.00     0.169 HD
ENDROOT
BRANCH   1   5
HETATM    5  C   UNL     1      27.550  44.524  53.848  1.00  0.00     0.065 A 
HETATM    6  C   UNL     1      26.758  45.676  53.893  1.00  0.00     0.038 A 
HETATM    7  C   UNL     1      27.123  46.760  54.699  1.00  0.00    -0.059 A 
HETATM    8  C   UNL     1      26.260  47.985  54.774  1.00  0.00     0.048 C 
HETATM    9  C   UNL     1      28.285  46.669  55.470  1.00  0.00     0.020 A 
HETATM   10  C   UNL     1      29.086  45.515  55.429  1.00  0.00    -0.005 A 
HETATM   11  C   UNL     1      28.724  44.425  54.611  1.00  0.00     0.093 A 
HETATM   12  C   UNL     1      30.256  45.413  56.192  1.00  0.00     0.015 A 
HETATM   13  N   UNL     1      29.479  43.299  54.549  1.00  0.00    -0.258 NA
HETATM   14  C   UNL     1      30.601  43.240  55.302  1.00  0.00     0.117 A 
HETATM   15  C   UNL     1      31.026  44.259  56.130  1.00  0.00     0.020 A 
ENDBRANCH   1   5
BRANCH   2  16
HETATM   16  C   UNL     1      26.849  41.872  51.222  1.00  0.00     0.141 C 
BRANCH  16  17
HETATM   17  C   UNL     1      25.595  41.913  50.384  1.00  0.00    -0.049 A 
HETATM   18  C   UNL     1      24.520  42.732  50.762  1.00  0.00     0.010 A 
HETATM   19  C   UNL     1      23.349  42.765  50.003  1.00  0.00     0.037 A 
HETATM   20  C   UNL     1      23.253  41.977  48.862  1.00  0.00     0.065 A 
HETATM   21  C   UNL     1      24.306  41.160  48.470  1.00  0.00     0.037 A 
HETATM   22  C   UNL     1      25.477  41.126  49.229  1.00  0.00     0.010 A 
BRANCH  20  23
HETATM   23  O   UNL     1      22.128  41.976  48.091  1.00  0.00    -0.361 OA
HETATM   24  H   UNL     1      22.382  42.189  47.178  1.00  0.00     0.217 HD
ENDBRANCH  20  23
ENDBRANCH  16  17
ENDBRANCH   2  16
TORSDOF 4
ENDMDL
MODEL 9
REMARK VINA RESULT:      -8.2      4.132      5.560
REMARK  4 active torsions:
REMARK  status: ('A' for Active; 'I' for Inactive)
REMARK    1  A    between atoms: C_4  and  N_5 
REMARK       I    between atoms: N_5  and  C_6 
REMARK    2  A    between atoms: C_6  and  C_7 
REMARK    3  A    between atoms: C_7  and  C_8 
REMARK    4  A    between atoms: C_11  and  O_12 
ROOT
HETATM    1  N   UNL     1      29.157  43.072  53.608  1.00  0.00    -0.325 N 
HETATM    2  C   UNL     1      28.328  41.976  53.495  1.00  0.00     0.226 C 
HETATM    3  O   UNL     1      27.279  41.788  54.105  1.00  0.00    -0.273 OA
HETATM    4  H   UNL     1      30.017  43.090  53.062  1.00  0.00     0.169 HD
ENDROOT
BRANCH   1   5
HETATM    5  C   UNL     1      29.018  44.212  54.436  1.00  0.00     0.065 A 
HETATM    6  C   UNL     1      28.118  45.249  54.172  1.00  0.00     0.038 A 
HETATM    7  C   UNL     1      28.027  46.348  55.033  1.00  0.00    -0.059 A 
HETATM    8  C   UNL     1      27.042  47.449  54.771  1.00  0.00     0.048 C 
HETATM    9  C   UNL     1      28.841  46.389  56.169  1.00  0.00     0.020 A 
HETATM   10  C   UNL     1      29.748  45.350  56.439  1.00  0.00    -0.005 A 
HETATM   11  C   UNL     1      29.847  44.244  55.569  1.00  0.00     0.093 A 
HETATM   12  C   UNL     1      30.573  45.379  57.572  1.00  0.00     0.015 A 
HETATM   13  N   UNL     1      30.715  43.228  55.804  1.00  0.00    -0.258 NA
HETATM   14  C   UNL     1      31.493  43.294  56.907  1.00  0.00     0.117 A 
HETATM   15  C   UNL     1      31.458  44.337  57.811  1.00  0.00     0.020 A 
ENDBRANCH   1   5
BRANCH   2  16
HETATM   16  C   UNL     1      28.846  40.951  52.497  1.00  0.00     0.141 C 
BRANCH  16  17
HETATM   17  C   UNL     1      28.235  41.119  51.128  1.00  0.00    -0.049 A 
HETATM   18  C   UNL     1      28.410  40.127  50.150  1.00  0.00     0.010 A 
HETATM   19  C   UNL     1      27.862  40.280  48.875  1.00  0.00     0.037 A 
HETATM   20  C   UNL     1      27.137  41.428  48.577  1.00  0.00     0.065 A 
HETATM   21  C   UNL     1      26.951  42.421  49.532  1.00  0.00     0.037 A 
HETATM   22  C   UNL     1      27.499  42.269  50.806  1.00  0.00     0.010 A 
BRANCH  20  23
HETATM   23  O   UNL     1      26.586  41.620  47.345  1.00  0.00    -0.361 OA
HETATM   24  H   UNL     1      26.005  40.867  47.149  1.00  0.00     0.217 HD
ENDBRANCH  20  23
ENDBRANCH  16  17
ENDBRANCH   2  16
TORSDOF 4
ENDMDL
MODEL 10
REMARK VINA RESULT:      -8.2      3.396      5.328
REMARK  4 active torsions:
REMARK  status: ('A' for Active; 'I' for Inactive)
REMARK    1  A    between atoms: C_4  and  N_5 
REMARK       I    between atoms: N_5  and  C_6 
REMARK    2  A    between atoms: C_6  and  C_7 
REMARK    3  A    between atoms: C_7  and  C_8 
REMARK    4  A    between atoms: C_11  and  O_12 
ROOT
HETATM    1  N   UNL     1      26.556  44.085  53.056  1.00  0.00    -0.325 N 
HETATM    2  C   UNL     1      26.468  44.135  51.681  1.00  0.00     0.226 C 
HETATM    3  O   UNL     1      26.879  45.036  50.956  1.00  0.00    -0.273 OA
HETATM    4  H   UNL     1      26.147  43.287  53.541  1.00  0.00     0.169 HD
ENDROOT
BRANCH   1   5
HETATM    5  C   UNL     1      27.114  45.032  53.948  1.00  0.00     0.065 A 
HETATM    6  C   UNL     1      26.510  46.258  54.245  1.00  0.00     0.038 A 
HETATM    7  C   UNL     1      27.112  47.150  55.138  1.00  0.00    -0.059 A 
HETATM    8  C   UNL     1      26.453  48.452  55.485  1.00  0.00     0.048 C 
HETATM    9  C   UNL     1      28.322  46.793  55.741  1.00  0.00     0.020 A 
HETATM   10  C   UNL     1      28.935  45.563  55.445  1.00  0.00    -0.005 A 
HETATM   11  C   UNL     1      28.334  44.666  54.538  1.00  0.00     0.093 A 
HETATM   12  C   UNL     1      30.151  45.194  56.037  1.00  0.00     0.015 A 
HETATM   13  N   UNL     1      28.904  43.473  54.233  1.00  0.00    -0.258 NA
HETATM   14  C   UNL     1      30.076  43.154  54.825  1.00  0.00     0.117 A 
HETATM   15  C   UNL     1      30.731  43.972  55.724  1.00  0.00     0.020 A 
ENDBRANCH   1   5
BRANCH   2  16
HETATM   16  C   UNL     1      25.776  42.914  51.094  1.00  0.00     0.141 C 
BRANCH  16  17
HETATM   17  C   UNL     1      26.752  41.919  50.515  1.00  0.00    -0.049 A 
HETATM   18  C   UNL     1      27.476  41.066  51.362  1.00  0.00     0.010 A 
HETATM   19  C   UNL     1      28.393  40.154  50.838  1.00  0.00     0.037 A 
HETATM   20  C   UNL     1      28.586  40.094  49.463  1.00  0.00     0.065 A 
HETATM   21  C   UNL     1      27.878  40.929  48.607  1.00  0.00     0.037 A 
HETATM   22  C   UNL     1      26.961  41.842  49.131  1.00  0.00     0.010 A 
BRANCH  20  23
HETATM   23  O   UNL     1      29.473  39.219  48.908  1.00  0.00    -0.361 OA
HETATM   24  H   UNL     1      29.043  38.786  48.153  1.00  0.00     0.217 HD
ENDBRANCH  20  23
ENDBRANCH  16  17
ENDBRANCH   2  16
TORSDOF 4
ENDMDL
