MODEL 1
REMARK VINA RESULT:     -10.5      0.000      0.000
REMARK  3 active torsions:
REMARK  status: ('A' for Active; 'I' for Inactive)
REMARK    1  A    between atoms: C_6  and  C_7 
REMARK    2  A    between atoms: C_11  and  C_12 
REMARK       I    between atoms: C_12  and  N_13 
REMARK    3  A    between atoms: N_13  and  N_14 
ROOT
HETATM    1  C   UNL     1      24.893  45.067  51.396  1.00  0.00     0.289 C 
HETATM    2  N   UNL     1      24.946  46.133  50.513  1.00  0.00    -0.241 N 
HETATM    3  O   UNL     1      23.863  44.456  51.673  1.00  0.00    -0.264 OA
HETATM    4  H   UNL     1      25.828  46.604  50.316  1.00  0.00     0.192 HD
ENDROOT
BRANCH   1   5
HETATM    5  C   UNL     1      26.154  44.703  51.989  1.00  0.00     0.121 A 
HETATM    6  N   UNL     1      27.134  44.114  51.243  1.00  0.00    -0.272 N 
HETATM    7  N   UNL     1      28.252  43.833  51.922  1.00  0.00    -0.174 NA
HETATM    8  H   UNL     1      27.084  43.883  50.255  1.00  0.00     0.189 HD
HETATM    9  C   UNL     1      28.008  44.251  53.176  1.00  0.00     0.089 A 
HETATM   10  C   UNL     1      26.695  44.805  53.257  1.00  0.00     0.071 A 
BRANCH   9  11
HETATM   11  C   UNL     1      29.017  44.114  54.237  1.00  0.00    -0.005 A 
HETATM   12  C   UNL     1      29.100  45.027  55.298  1.00  0.00     0.021 A 
HETATM   13  C   UNL     1      30.069  44.896  56.313  1.00  0.00    -0.055 A 
HETATM   14  C   UNL     1      30.996  43.837  56.252  1.00  0.00    -0.056 A 
HETATM   15  C   UNL     1      30.102  45.910  57.424  1.00  0.00     0.049 C 
HETATM   16  C   UNL     1      32.056  43.614  57.294  1.00  0.00     0.049 C 
HETATM   17  C   UNL     1      30.901  42.914  55.201  1.00  0.00     0.008 A 
HETATM   18  C   UNL     1      29.930  43.052  54.208  1.00  0.00     0.014 A 
ENDBRANCH   9  11
ENDBRANCH   1   5
BRANCH   2  19
HETATM   19  N   UNL     1      23.808  46.569  49.889  1.00  0.00    -0.165 NA
HETATM   20  C   UNL     1      23.848  47.751  49.364  1.00  0.00     0.157 A 
HETATM   21  C   UNL     1      25.012  48.746  49.342  1.00  0.00     0.277 A 
HETATM   22  C   UNL     1      22.751  48.403  48.659  1.00  0.00     0.027 A 
HETATM   23  O   UNL     1      26.100  48.547  49.839  1.00  0.00    -0.266 OA
HETATM   24  N   UNL     1      24.542  49.850  48.664  1.00  0.00    -0.321 N 
HETATM   25  C   UNL     1      23.221  49.654  48.262  1.00  0.00     0.048 A 
HETATM   26  H   UNL     1      25.095  50.676  48.492  1.00  0.00     0.169 HD
HETATM   27  C   UNL     1      22.418  50.530  47.565  1.00  0.00     0.030 A 
HETATM   28  C   UNL     1      21.114  50.111  47.272  1.00  0.00     0.002 A 
HETATM   29  C   UNL     1      20.645  48.842  47.676  1.00  0.00     0.001 A 
HETATM   30  C   UNL     1      21.473  47.966  48.383  1.00  0.00     0.016 A 
ENDBRANCH   2  19
TORSDOF 3
ENDMDL
MODEL 2
REMARK VINA RESULT:     -10.4      1.820      9.835
REMARK  3 active torsions:
REMARK  status: ('A' for Active; 'I' for Inactive)
REMARK    1  A    between atoms: C_6  and  C_7 
REMARK    2  A    between atoms: C_11  and  C_12 
REMARK       I    between atoms: C_12  and  N_13 
REMARK    3  A    between atoms: N_13  and  N_14 
ROOT
HETATM    1  C   UNL     1      26.304  45.448  50.533  1.00  0.00     0.289 C 
HETATM    2  N   UNL     1      26.260  45.188  51.893  1.00  0.00    -0.241 N 
HETATM    3  O   UNL     1      27.237  45.125  49.802  1.00  0.00    -0.264 OA
HETATM    4  H   UNL     1      25.458  45.476  52.453  1.00  0.00     0.192 HD
ENDROOT
BRANCH   1   5
HETATM    5  C   UNL     1      25.154  46.139  50.006  1.00  0.00     0.121 A 
HETATM    6  N   UNL     1      24.262  45.495  49.198  1.00  0.00    -0.272 N 
HETATM    7  N   UNL     1      23.242  46.258  48.784  1.00  0.00    -0.174 NA
HETATM    8  H   UNL     1      24.307  44.526  48.898  1.00  0.00     0.189 HD
HETATM    9  C   UNL     1      23.465  47.462  49.340  1.00  0.00     0.089 A 
HETATM   10  C   UNL     1      24.661  47.425  50.117  1.00  0.00     0.071 A 
BRANCH   9  11
HETATM   11  C   UNL     1      22.544  48.587  49.119  1.00  0.00    -0.005 A 
HETATM   12  C   UNL     1      21.162  48.392  48.976  1.00  0.00     0.021 A 
HETATM   13  C   UNL     1      20.282  49.473  48.761  1.00  0.00    -0.055 A 
HETATM   14  C   UNL     1      20.800  50.778  48.662  1.00  0.00    -0.056 A 
HETATM   15  C   UNL     1      18.810  49.194  48.617  1.00  0.00     0.049 C 
HETATM   16  C   UNL     1      19.935  51.989  48.445  1.00  0.00     0.049 C 
HETATM   17  C   UNL     1      22.179  50.974  48.823  1.00  0.00     0.008 A 
HETATM   18  C   UNL     1      23.037  49.896  49.045  1.00  0.00     0.014 A 
ENDBRANCH   9  11
ENDBRANCH   1   5
BRANCH   2  19
HETATM   19  N   UNL     1      27.297  44.539  52.505  1.00  0.00    -0.165 NA
HETATM   20  C   UNL     1      27.764  45.074  53.586  1.00  0.00     0.157 A 
HETATM   21  C   UNL     1      27.309  46.356  54.289  1.00  0.00     0.277 A 
HETATM   22  C   UNL     1      28.862  44.547  54.387  1.00  0.00     0.027 A 
HETATM   23  O   UNL     1      26.408  47.072  53.904  1.00  0.00    -0.266 OA
HETATM   24  N   UNL     1      28.125  46.484  55.391  1.00  0.00    -0.321 N 
HETATM   25  C   UNL     1      29.035  45.429  55.454  1.00  0.00     0.048 A 
HETATM   26  H   UNL     1      28.058  47.245  56.051  1.00  0.00     0.169 HD
HETATM   27  C   UNL     1      30.007  45.215  56.407  1.00  0.00     0.030 A 
HETATM   28  C   UNL     1      30.810  44.076  56.260  1.00  0.00     0.002 A 
HETATM   29  C   UNL     1      30.628  43.187  55.178  1.00  0.00     0.001 A 
HETATM   30  C   UNL     1      29.638  43.420  54.221  1.00  0.00     0.016 A 
ENDBRANCH   2  19
TORSDOF 3
ENDMDL
MODEL 3
REMARK VINA RESULT:     -10.0      1.469      2.129
REMARK  3 active torsions:
REMARK  status: ('A' for Active; 'I' for Inactive)
REMARK    1  A    between atoms: C_6  and  C_7 
REMARK    2  A    between atoms: C_11  and  C_12 
REMARK       I    between atoms: C_12  and  N_13 
REMARK    3  A    between atoms: N_13  and  N_14 
ROOT
HETATM    1  C   UNL     1      26.240  43.795  50.655  1.00  0.00     0.289 C 
HETATM    2  N   UNL     1      25.446  44.927  50.581  1.00  0.00    -0.241 N 
HETATM    3  O   UNL     1      26.134  42.832  49.899  1.00  0.00    -0.264 OA
HETATM    4  H   UNL     1      25.578  45.700  51.233  1.00  0.00     0.192 HD
ENDROOT
BRANCH   1   5
HETATM    5  C   UNL     1      27.231  43.811  51.701  1.00  0.00     0.121 A 
HETATM    6  N   UNL     1      28.365  43.059  51.601  1.00  0.00    -0.272 N 
HETATM    7  N   UNL     1      29.198  43.173  52.643  1.00  0.00    -0.174 NA
HETATM    8  H   UNL     1      28.619  42.446  50.832  1.00  0.00     0.189 HD
HETATM    9  C   UNL     1      28.591  44.039  53.474  1.00  0.00     0.089 A 
HETATM   10  C   UNL     1      27.349  44.462  52.914  1.00  0.00     0.071 A 
BRANCH   9  11
HETATM   11  C   UNL     1      29.206  44.429  54.752  1.00  0.00    -0.005 A 
HETATM   12  C   UNL     1      30.271  43.706  55.310  1.00  0.00     0.021 A 
HETATM   13  C   UNL     1      30.857  44.080  56.536  1.00  0.00    -0.055 A 
HETATM   14  C   UNL     1      30.350  45.193  57.234  1.00  0.00    -0.056 A 
HETATM   15  C   UNL     1      31.997  43.261  57.077  1.00  0.00     0.049 C 
HETATM   16  C   UNL     1      30.920  45.671  58.541  1.00  0.00     0.049 C 
HETATM   17  C   UNL     1      29.299  45.927  56.667  1.00  0.00     0.008 A 
HETATM   18  C   UNL     1      28.734  45.549  55.447  1.00  0.00     0.014 A 
ENDBRANCH   9  11
ENDBRANCH   1   5
BRANCH   2  19
HETATM   19  N   UNL     1      24.469  45.024  49.628  1.00  0.00    -0.165 NA
HETATM   20  C   UNL     1      23.911  46.182  49.478  1.00  0.00     0.157 A 
HETATM   21  C   UNL     1      24.200  47.483  50.233  1.00  0.00     0.277 A 
HETATM   22  C   UNL     1      22.855  46.498  48.526  1.00  0.00     0.027 A 
HETATM   23  O   UNL     1      25.027  47.602  51.112  1.00  0.00    -0.266 OA
HETATM   24  N   UNL     1      23.340  48.418  49.700  1.00  0.00    -0.321 N 
HETATM   25  C   UNL     1      22.552  47.848  48.701  1.00  0.00     0.048 A 
HETATM   26  H   UNL     1      23.303  49.380  50.004  1.00  0.00     0.169 HD
HETATM   27  C   UNL     1      21.581  48.466  47.943  1.00  0.00     0.030 A 
HETATM   28  C   UNL     1      20.914  47.683  46.992  1.00  0.00     0.002 A 
HETATM   29  C   UNL     1      21.227  46.317  46.820  1.00  0.00     0.001 A 
HETATM   30  C   UNL     1      22.214  45.706  47.596  1.00  0.00     0.016 A 
ENDBRANCH   2  19
TORSDOF 3
ENDMDL
MODEL 4
REMARK VINA RESULT:      -9.9      1.919     10.159
REMARK  3 active torsions:
REMARK  status: ('A' for Active; 'I' for Inactive)
REMARK    1  A    between atoms: C_6  and  C_7 
REMARK    2  A    between atoms: C_11  and  C_12 
REMARK       I    between atoms: C_12  and  N_13 
REMARK    3  A    between atoms: N_13  and  N_14 
ROOT
HETATM    1  C   UNL     1      25.804  47.257  49.747  1.00  0.00     0.289 C 
HETATM    2  N   UNL     1      25.404  46.342  50.706  1.00  0.00    -0.241 N 
HETATM    3  O   UNL     1      26.904  47.240  49.199  1.00  0.00    -0.264 OA
HETATM    4  H   UNL     1      24.478  46.399  51.128  1.00  0.00     0.192 HD
ENDROOT
BRANCH   1   5
HETATM    5  C   UNL     1      24.825  48.261  49.415  1.00  0.00     0.121 A 
HETATM    6  N   UNL     1      25.197  49.426  48.809  1.00  0.00    -0.272 N 
HETATM    7  N   UNL     1      24.184  50.265  48.559  1.00  0.00    -0.174 NA
HETATM    8  H   UNL     1      26.139  49.696  48.544  1.00  0.00     0.189 HD
HETATM    9  C   UNL     1      23.091  49.632  49.018  1.00  0.00     0.089 A 
HETATM   10  C   UNL     1      23.456  48.366  49.566  1.00  0.00     0.071 A 
BRANCH   9  11
HETATM   11  C   UNL     1      21.757  50.243  48.919  1.00  0.00    -0.005 A 
HETATM   12  C   UNL     1      21.014  50.205  47.730  1.00  0.00     0.021 A 
HETATM   13  C   UNL     1      19.736  50.794  47.636  1.00  0.00    -0.055 A 
HETATM   14  C   UNL     1      19.198  51.459  48.754  1.00  0.00    -0.056 A 
HETATM   15  C   UNL     1      18.993  50.716  46.330  1.00  0.00     0.049 C 
HETATM   16  C   UNL     1      17.840  52.105  48.749  1.00  0.00     0.049 C 
HETATM   17  C   UNL     1      19.932  51.481  49.949  1.00  0.00     0.008 A 
HETATM   18  C   UNL     1      21.192  50.885  50.029  1.00  0.00     0.014 A 
ENDBRANCH   9  11
ENDBRANCH   1   5
BRANCH   2  19
HETATM   19  N   UNL     1      26.251  45.343  51.103  1.00  0.00    -0.165 NA
HETATM   20  C   UNL     1      26.756  45.442  52.290  1.00  0.00     0.157 A 
HETATM   21  C   UNL     1      26.532  46.542  53.332  1.00  0.00     0.277 A 
HETATM   22  C   UNL     1      27.676  44.493  52.903  1.00  0.00     0.027 A 
HETATM   23  O   UNL     1      25.819  47.510  53.171  1.00  0.00    -0.266 OA
HETATM   24  N   UNL     1      27.294  46.181  54.421  1.00  0.00    -0.321 N 
HETATM   25  C   UNL     1      27.965  44.983  54.176  1.00  0.00     0.048 A 
HETATM   26  H   UNL     1      27.345  46.722  55.271  1.00  0.00     0.169 HD
HETATM   27  C   UNL     1      28.817  44.310  55.024  1.00  0.00     0.030 A 
HETATM   28  C   UNL     1      29.379  43.116  54.554  1.00  0.00     0.002 A 
HETATM   29  C   UNL     1      29.082  42.625  53.264  1.00  0.00     0.001 A 
HETATM   30  C   UNL     1      28.215  43.320  52.417  1.00  0.00     0.016 A 
ENDBRANCH   2  19
TORSDOF 3
ENDMDL
MODEL 5
REMARK VINA RESULT:      -9.9      1.510      2.210
REMARK  3 active torsions:
REMARK  status: ('A' for Active; 'I' for Inactive)
REMARK    1  A    between atoms: C_6  and  C_7 
REMARK    2  A    between atoms: C_11  and  C_12 
REMARK       I    between atoms: C_12  and  N_13 
REMARK    3  A    between atoms: N_13  and  N_14 
ROOT
HETATM    1  C   UNL     1      23.760  45.070  49.356  1.00  0.00     0.289 C 
HETATM    2  N   UNL     1      23.528  46.432  49.256  1.00  0.00    -0.241 N 
HETATM    3  O   UNL     1      22.977  44.209  48.962  1.00  0.00    -0.264 OA
HETATM    4  H   UNL     1      24.213  47.104  49.598  1.00  0.00     0.192 HD
ENDROOT
BRANCH   1   5
HETATM    5  C   UNL     1      25.014  44.708  49.968  1.00  0.00     0.121 A 
HETATM    6  N   UNL     1      26.069  44.295  49.207  1.00  0.00    -0.272 N 
HETATM    7  N   UNL     1      27.170  43.994  49.907  1.00  0.00    -0.174 NA
HETATM    8  H   UNL     1      26.086  44.203  48.196  1.00  0.00     0.189 HD
HETATM    9  C   UNL     1      26.833  44.215  51.189  1.00  0.00     0.089 A 
HETATM   10  C   UNL     1      25.482  44.665  51.267  1.00  0.00     0.071 A 
BRANCH   9  11
HETATM   11  C   UNL     1      27.795  43.995  52.280  1.00  0.00    -0.005 A 
HETATM   12  C   UNL     1      27.764  44.758  53.456  1.00  0.00     0.021 A 
HETATM   13  C   UNL     1      28.689  44.548  54.499  1.00  0.00    -0.055 A 
HETATM   14  C   UNL     1      29.687  43.566  54.351  1.00  0.00    -0.056 A 
HETATM   15  C   UNL     1      28.598  45.401  55.735  1.00  0.00     0.049 C 
HETATM   16  C   UNL     1      30.707  43.266  55.414  1.00  0.00     0.049 C 
HETATM   17  C   UNL     1      29.707  42.791  53.183  1.00  0.00     0.008 A 
HETATM   18  C   UNL     1      28.778  43.004  52.163  1.00  0.00     0.014 A 
ENDBRANCH   9  11
ENDBRANCH   1   5
BRANCH   2  19
HETATM   19  N   UNL     1      22.369  46.894  48.694  1.00  0.00    -0.165 NA
HETATM   20  C   UNL     1      22.169  48.172  48.736  1.00  0.00     0.157 A 
HETATM   21  C   UNL     1      23.066  49.257  49.338  1.00  0.00     0.277 A 
HETATM   22  C   UNL     1      21.006  48.867  48.201  1.00  0.00     0.027 A 
HETATM   23  O   UNL     1      24.131  49.050  49.881  1.00  0.00    -0.266 OA
HETATM   24  N   UNL     1      22.403  50.446  49.125  1.00  0.00    -0.321 N 
HETATM   25  C   UNL     1      21.197  50.223  48.460  1.00  0.00     0.048 A 
HETATM   26  H   UNL     1      22.758  51.344  49.418  1.00  0.00     0.169 HD
HETATM   27  C   UNL     1      20.265  51.162  48.076  1.00  0.00     0.030 A 
HETATM   28  C   UNL     1      19.120  50.698  47.415  1.00  0.00     0.002 A 
HETATM   29  C   UNL     1      18.933  49.323  47.155  1.00  0.00     0.001 A 
HETATM   30  C   UNL     1      19.889  48.384  47.552  1.00  0.00     0.016 A 
ENDBRANCH   2  19
TORSDOF 3
ENDMDL
MODEL 6
REMARK VINA RESULT:      -9.7      3.247      4.098
REMARK  3 active torsions:
REMARK  status: ('A' for Active; 'I' for Inactive)
REMARK    1  A    between atoms: C_6  and  C_7 
REMARK    2  A    between atoms: C_11  and  C_12 
REMARK       I    between atoms: C_12  and  N_13 
REMARK    3  A    between atoms: N_13  and  N_14 
ROOT
HETATM    1  C   UNL     1      27.047  42.434  50.102  1.00  0.00     0.289 C 
HETATM    2  N   UNL     1      25.678  42.583  50.249  1.00  0.00    -0.241 N 
HETATM    3  O   UNL     1      27.599  42.176  49.035  1.00  0.00    -0.264 OA
HETATM    4  H   UNL     1      25.272  42.800  51.159  1.00  0.00     0.192 HD
ENDROOT
BRANCH   1   5
HETATM    5  C   UNL     1      27.813  42.606  51.310  1.00  0.00     0.121 A 
HETATM    6  N   UNL     1      28.679  41.639  51.732  1.00  0.00    -0.272 N 
HETATM    7  N   UNL     1      29.324  41.933  52.868  1.00  0.00    -0.174 NA
HETATM    8  H   UNL     1      28.866  40.753  51.274  1.00  0.00     0.189 HD
HETATM    9  C   UNL     1      28.868  43.148  53.218  1.00  0.00     0.089 A 
HETATM   10  C   UNL     1      27.913  43.604  52.261  1.00  0.00     0.071 A 
BRANCH   9  11
HETATM   11  C   UNL     1      29.350  43.824  54.432  1.00  0.00    -0.005 A 
HETATM   12  C   UNL     1      30.400  43.300  55.201  1.00  0.00     0.021 A 
HETATM   13  C   UNL     1      30.859  43.949  56.365  1.00  0.00    -0.055 A 
HETATM   14  C   UNL     1      30.236  45.140  56.785  1.00  0.00    -0.056 A 
HETATM   15  C   UNL     1      31.990  43.333  57.143  1.00  0.00     0.049 C 
HETATM   16  C   UNL     1      30.666  45.904  58.007  1.00  0.00     0.049 C 
HETATM   17  C   UNL     1      29.199  45.673  56.007  1.00  0.00     0.008 A 
HETATM   18  C   UNL     1      28.762  45.024  54.851  1.00  0.00     0.014 A 
ENDBRANCH   9  11
ENDBRANCH   1   5
BRANCH   2  19
HETATM   19  N   UNL     1      24.849  42.440  49.170  1.00  0.00    -0.165 NA
HETATM   20  C   UNL     1      23.819  43.222  49.118  1.00  0.00     0.157 A 
HETATM   21  C   UNL     1      23.393  44.305  50.114  1.00  0.00     0.277 A 
HETATM   22  C   UNL     1      22.815  43.233  48.062  1.00  0.00     0.027 A 
HETATM   23  O   UNL     1      23.994  44.582  51.130  1.00  0.00    -0.266 OA
HETATM   24  N   UNL     1      22.234  44.845  49.600  1.00  0.00    -0.321 N 
HETATM   25  C   UNL     1      21.892  44.221  48.400  1.00  0.00     0.048 A 
HETATM   26  H   UNL     1      21.719  45.588  50.047  1.00  0.00     0.169 HD
HETATM   27  C   UNL     1      20.804  44.488  47.597  1.00  0.00     0.030 A 
HETATM   28  C   UNL     1      20.666  43.726  46.430  1.00  0.00     0.002 A 
HETATM   29  C   UNL     1      21.605  42.727  46.093  1.00  0.00     0.001 A 
HETATM   30  C   UNL     1      22.703  42.470  46.919  1.00  0.00     0.016 A 
ENDBRANCH   2  19
TORSDOF 3
ENDMDL
MODEL 7
REMARK VINA RESULT:      -9.6      1.689     10.361
REMARK  3 active torsions:
REMARK  status: ('A' for Active; 'I' for Inactive)
REMARK    1  A    between atoms: C_6  and  C_7 
REMARK    2  A    between atoms: C_11  and  C_12 
REMARK       I    between atoms: C_12  and  N_13 
REMARK    3  A    between atoms: N_13  and  N_14 
ROOT
HETATM    1  C   UNL     1      25.195  47.284  50.686  1.00  0.00     0.289 C 
HETATM    2  N   UNL     1      25.040  46.501  51.817  1.00  0.00    -0.241 N 
HETATM    3  O   UNL     1      26.266  47.767  50.327  1.00  0.00    -0.264 OA
HETATM    4  H   UNL     1      24.127  46.122  52.068  1.00  0.00     0.192 HD
ENDROOT
BRANCH   1   5
HETATM    5  C   UNL     1      23.990  47.507  49.928  1.00  0.00     0.121 A 
HETATM    6  N   UNL     1      23.298  46.460  49.391  1.00  0.00    -0.272 N 
HETATM    7  N   UNL     1      22.198  46.813  48.715  1.00  0.00    -0.174 NA
HETATM    8  H   UNL     1      23.540  45.476  49.462  1.00  0.00     0.189 HD
HETATM    9  C   UNL     1      22.155  48.154  48.804  1.00  0.00     0.089 A 
HETATM   10  C   UNL     1      23.268  48.627  49.560  1.00  0.00     0.071 A 
BRANCH   9  11
HETATM   11  C   UNL     1      21.071  48.926  48.177  1.00  0.00    -0.005 A 
HETATM   12  C   UNL     1      20.765  50.232  48.586  1.00  0.00     0.021 A 
HETATM   13  C   UNL     1      19.724  50.970  47.986  1.00  0.00    -0.055 A 
HETATM   14  C   UNL     1      18.954  50.377  46.968  1.00  0.00    -0.056 A 
HETATM   15  C   UNL     1      19.449  52.367  48.472  1.00  0.00     0.049 C 
HETATM   16  C   UNL     1      17.833  51.091  46.266  1.00  0.00     0.049 C 
HETATM   17  C   UNL     1      19.272  49.078  46.547  1.00  0.00     0.008 A 
HETATM   18  C   UNL     1      20.312  48.363  47.144  1.00  0.00     0.014 A 
ENDBRANCH   9  11
ENDBRANCH   1   5
BRANCH   2  19
HETATM   19  N   UNL     1      26.115  46.223  52.617  1.00  0.00    -0.165 NA
HETATM   20  C   UNL     1      26.484  44.984  52.688  1.00  0.00     0.157 A 
HETATM   21  C   UNL     1      25.875  43.766  51.989  1.00  0.00     0.277 A 
HETATM   22  C   UNL     1      27.598  44.476  53.479  1.00  0.00     0.027 A 
HETATM   23  O   UNL     1      24.920  43.805  51.243  1.00  0.00    -0.266 OA
HETATM   24  N   UNL     1      26.631  42.689  52.397  1.00  0.00    -0.321 N 
HETATM   25  C   UNL     1      27.641  43.099  53.268  1.00  0.00     0.048 A 
HETATM   26  H   UNL     1      26.462  41.741  52.094  1.00  0.00     0.169 HD
HETATM   27  C   UNL     1      28.591  42.311  53.881  1.00  0.00     0.030 A 
HETATM   28  C   UNL     1      29.510  42.952  54.722  1.00  0.00     0.002 A 
HETATM   29  C   UNL     1      29.461  44.347  54.931  1.00  0.00     0.001 A 
HETATM   30  C   UNL     1      28.491  45.131  54.301  1.00  0.00     0.016 A 
ENDBRANCH   2  19
TORSDOF 3
ENDMDL
MODEL 8
REMARK VINA RESULT:      -9.2      2.503      4.397
REMARK  3 active torsions:
REMARK  status: ('A' for Active; 'I' for Inactive)
REMARK    1  A    between atoms: C_6  and  C_7 
REMARK    2  A    between atoms: C_11  and  C_12 
REMARK       I    between atoms: C_12  and  N_13 
REMARK    3  A    between atoms: N_13  and  N_14 
ROOT
HETATM    1  C   UNL     1      23.580  48.595  49.634  1.00  0.00     0.289 C 
HETATM    2  N   UNL     1      22.200  48.488  49.589  1.00  0.00    -0.241 N 
HETATM    3  O   UNL     1      24.203  49.590  49.273  1.00  0.00    -0.264 OA
HETATM    4  H   UNL     1      21.731  47.639  49.904  1.00  0.00     0.192 HD
ENDROOT
BRANCH   1   5
HETATM    5  C   UNL     1      24.265  47.436  50.148  1.00  0.00     0.121 A 
HETATM    6  N   UNL     1      23.783  46.180  49.918  1.00  0.00    -0.272 N 
HETATM    7  N   UNL     1      24.521  45.199  50.452  1.00  0.00    -0.174 NA
HETATM    8  H   UNL     1      22.946  45.940  49.395  1.00  0.00     0.189 HD
HETATM    9  C   UNL     1      25.538  45.828  51.066  1.00  0.00     0.089 A 
HETATM   10  C   UNL     1      25.410  47.239  50.897  1.00  0.00     0.071 A 
BRANCH   9  11
HETATM   11  C   UNL     1      26.582  45.077  51.780  1.00  0.00    -0.005 A 
HETATM   12  C   UNL     1      26.951  45.395  53.095  1.00  0.00     0.021 A 
HETATM   13  C   UNL     1      27.954  44.675  53.776  1.00  0.00    -0.055 A 
HETATM   14  C   UNL     1      28.621  43.626  53.116  1.00  0.00    -0.056 A 
HETATM   15  C   UNL     1      28.300  45.067  55.186  1.00  0.00     0.049 C 
HETATM   16  C   UNL     1      29.695  42.798  53.767  1.00  0.00     0.049 C 
HETATM   17  C   UNL     1      28.240  43.296  51.807  1.00  0.00     0.008 A 
HETATM   18  C   UNL     1      27.238  44.012  51.149  1.00  0.00     0.014 A 
ENDBRANCH   9  11
ENDBRANCH   1   5
BRANCH   2  19
HETATM   19  N   UNL     1      21.442  49.526  49.117  1.00  0.00    -0.165 NA
HETATM   20  C   UNL     1      20.228  49.250  48.767  1.00  0.00     0.157 A 
HETATM   21  C   UNL     1      19.507  47.900  48.809  1.00  0.00     0.277 A 
HETATM   22  C   UNL     1      19.260  50.204  48.241  1.00  0.00     0.027 A 
HETATM   23  O   UNL     1      20.006  46.863  49.193  1.00  0.00    -0.266 OA
HETATM   24  N   UNL     1      18.238  48.143  48.331  1.00  0.00    -0.321 N 
HETATM   25  C   UNL     1      18.088  49.489  47.997  1.00  0.00     0.048 A 
HETATM   26  H   UNL     1      17.529  47.430  48.242  1.00  0.00     0.169 HD
HETATM   27  C   UNL     1      16.966  50.107  47.489  1.00  0.00     0.030 A 
HETATM   28  C   UNL     1      17.053  51.481  47.229  1.00  0.00     0.002 A 
HETATM   29  C   UNL     1      18.242  52.199  47.479  1.00  0.00     0.001 A 
HETATM   30  C   UNL     1      19.371  51.556  47.994  1.00  0.00     0.016 A 
ENDBRANCH   2  19
TORSDOF 3
ENDMDL
MODEL 9
REMARK VINA RESULT:      -9.2      6.135      8.200
REMARK  3 active torsions:
REMARK  status: ('A' for Active; 'I' for Inactive)
REMARK    1  A    between atoms: C_6  and  C_7 
REMARK    2  A    between atoms: C_11  and  C_12 
REMARK       I    between atoms: C_12  and  N_13 
REMARK    3  A    between atoms: N_13  and  N_14 
ROOT
HETATM    1  C   UNL     1      26.823  41.065  50.671  1.00  0.00     0.289 C 
HETATM    2  N   UNL     1      27.430  40.312  49.679  1.00  0.00    -0.241 N 
HETATM    3  O   UNL     1      25.614  41.278  50.727  1.00  0.00    -0.264 OA
HETATM    4  H   UNL     1      28.439  40.164  49.681  1.00  0.00     0.192 HD
ENDROOT
BRANCH   1   5
HETATM    5  C   UNL     1      27.718  41.600  51.665  1.00  0.00     0.121 A 
HETATM    6  N   UNL     1      29.000  41.143  51.770  1.00  0.00    -0.272 N 
HETATM    7  N   UNL     1      29.718  41.730  52.735  1.00  0.00    -0.174 NA
HETATM    8  H   UNL     1      29.434  40.425  51.198  1.00  0.00     0.189 HD
HETATM    9  C   UNL     1      28.879  42.616  53.299  1.00  0.00     0.089 A 
HETATM   10  C   UNL     1      27.609  42.562  52.651  1.00  0.00     0.071 A 
BRANCH   9  11
HETATM   11  C   UNL     1      29.309  43.471  54.415  1.00  0.00    -0.005 A 
HETATM   12  C   UNL     1      30.394  43.126  55.234  1.00  0.00     0.021 A 
HETATM   13  C   UNL     1      30.802  43.947  56.305  1.00  0.00    -0.055 A 
HETATM   14  C   UNL     1      30.092  45.131  56.579  1.00  0.00    -0.056 A 
HETATM   15  C   UNL     1      31.976  43.518  57.143  1.00  0.00     0.049 C 
HETATM   16  C   UNL     1      30.462  46.071  57.693  1.00  0.00     0.049 C 
HETATM   17  C   UNL     1      29.019  45.486  55.749  1.00  0.00     0.008 A 
HETATM   18  C   UNL     1      28.632  44.667  54.686  1.00  0.00     0.014 A 
ENDBRANCH   9  11
ENDBRANCH   1   5
BRANCH   2  19
HETATM   19  N   UNL     1      26.680  39.754  48.680  1.00  0.00    -0.165 NA
HETATM   20  C   UNL     1      26.764  38.472  48.533  1.00  0.00     0.157 A 
HETATM   21  C   UNL     1      27.601  37.473  49.338  1.00  0.00     0.277 A 
HETATM   22  C   UNL     1      26.054  37.684  47.534  1.00  0.00     0.027 A 
HETATM   23  O   UNL     1      28.329  37.770  50.261  1.00  0.00    -0.266 OA
HETATM   24  N   UNL     1      27.338  36.239  48.785  1.00  0.00    -0.321 N 
HETATM   25  C   UNL     1      26.434  36.357  47.730  1.00  0.00     0.048 A 
HETATM   26  H   UNL     1      27.752  35.380  49.114  1.00  0.00     0.169 HD
HETATM   27  C   UNL     1      25.934  35.346  46.937  1.00  0.00     0.030 A 
HETATM   28  C   UNL     1      25.030  35.709  45.929  1.00  0.00     0.002 A 
HETATM   29  C   UNL     1      24.650  37.055  45.737  1.00  0.00     0.001 A 
HETATM   30  C   UNL     1      25.167  38.067  46.550  1.00  0.00     0.016 A 
ENDBRANCH   2  19
TORSDOF 3
ENDMDL
MODEL 10
REMARK VINA RESULT:      -9.2      2.631     10.230
REMARK  3 active torsions:
REMARK  status: ('A' for Active; 'I' for Inactive)
REMARK    1  A    between atoms: C_6  and  C_7 
REMARK    2  A    between atoms: C_11  and  C_12 
REMARK       I    between atoms: C_12  and  N_13 
REMARK    3  A    between atoms: N_13  and  N_14 
ROOT
HETATM    1  C   UNL     1      25.943  47.810  49.581  1.00  0.00     0.289 C 
HETATM    2  N   UNL     1      25.621  46.985  50.645  1.00  0.00    -0.241 N 
HETATM    3  O   UNL     1      27.045  47.829  49.038  1.00  0.00    -0.264 OA
HETATM    4  H   UNL     1      24.689  47.006  51.059  1.00  0.00     0.192 HD
ENDROOT
BRANCH   1   5
HETATM    5  C   UNL     1      24.878  48.669  49.131  1.00  0.00     0.121 A 
HETATM    6  N   UNL     1      25.107  49.632  48.191  1.00  0.00    -0.272 N 
HETATM    7  N   UNL     1      24.028  50.355  47.866  1.00  0.00    -0.174 NA
HETATM    8  H   UNL     1      25.992  49.835  47.736  1.00  0.00     0.189 HD
HETATM    9  C   UNL     1      23.037  49.853  48.623  1.00  0.00     0.089 A 
HETATM   10  C   UNL     1      23.536  48.790  49.434  1.00  0.00     0.071 A 
BRANCH   9  11
HETATM   11  C   UNL     1      21.671  50.392  48.549  1.00  0.00    -0.005 A 
HETATM   12  C   UNL     1      20.891  50.268  47.390  1.00  0.00     0.021 A 
HETATM   13  C   UNL     1      19.583  50.788  47.319  1.00  0.00    -0.055 A 
HETATM   14  C   UNL     1      19.049  51.471  48.429  1.00  0.00    -0.056 A 
HETATM   15  C   UNL     1      18.800  50.619  46.045  1.00  0.00     0.049 C 
HETATM   16  C   UNL     1      17.661  52.049  48.447  1.00  0.00     0.049 C 
HETATM   17  C   UNL     1      19.822  51.579  49.594  1.00  0.00     0.008 A 
HETATM   18  C   UNL     1      21.113  51.051  49.652  1.00  0.00     0.014 A 
ENDBRANCH   9  11
ENDBRANCH   1   5
BRANCH   2  19
HETATM   19  N   UNL     1      26.553  46.125  51.160  1.00  0.00    -0.165 NA
HETATM   20  C   UNL     1      26.315  44.860  51.030  1.00  0.00     0.157 A 
HETATM   21  C   UNL     1      25.114  44.179  50.369  1.00  0.00     0.277 A 
HETATM   22  C   UNL     1      27.174  43.783  51.506  1.00  0.00     0.027 A 
HETATM   23  O   UNL     1      24.184  44.765  49.857  1.00  0.00    -0.266 OA
HETATM   24  N   UNL     1      25.339  42.825  50.496  1.00  0.00    -0.321 N 
HETATM   25  C   UNL     1      26.543  42.588  51.160  1.00  0.00     0.048 A 
HETATM   26  H   UNL     1      24.708  42.119  50.148  1.00  0.00     0.169 HD
HETATM   27  C   UNL     1      27.102  41.368  51.472  1.00  0.00     0.030 A 
HETATM   28  C   UNL     1      28.329  41.379  52.148  1.00  0.00     0.002 A 
HETATM   29  C   UNL     1      28.962  42.592  52.495  1.00  0.00     0.001 A 
HETATM   30  C   UNL     1      28.381  43.820  52.171  1.00  0.00     0.016 A 
ENDBRANCH   2  19
TORSDOF 3
ENDMDL
