MODEL 1
REMARK VINA RESULT:      -8.8      0.000      0.000
REMARK  6 active torsions:
REMARK  status: ('A' for Active; 'I' for Inactive)
REMARK    1  A    between atoms: C_2  and  O_3 
REMARK    2  A    between atoms: C_2  and  C_4 
REMARK    3  A    between atoms: C_7  and  N_8 
REMARK       I    between atoms: N_8  and  C_9 
REMARK    4  A    between atoms: C_9  and  C_10 
REMARK    5  A    between atoms: C_15  and  C_16 
REMARK    6  A    between atoms: C_22  and  C_23 
ROOT
HETATM    1  C   UNL     1      23.495  47.128  49.110  1.00  0.00     0.148 A 
HETATM    2  N   UNL     1      23.606  45.811  48.819  1.00  0.00    -0.165 NA
HETATM    3  N   UNL     1      24.695  45.429  49.516  1.00  0.00    -0.240 N 
HETATM    4  C   UNL     1      25.344  46.460  50.138  1.00  0.00     0.123 A 
HETATM    5  N   UNL     1      26.515  46.280  50.783  1.00  0.00    -0.364 N 
HETATM    6  C   UNL     1      27.081  44.952  51.017  1.00  0.00     0.143 C 
HETATM    7  C   UNL     1      26.637  43.977  49.911  1.00  0.00     0.068 C 
HETATM    8  C   UNL     1      25.140  44.049  49.558  1.00  0.00     0.221 C 
HETATM    9  C   UNL     1      24.571  47.569  49.930  1.00  0.00     0.089 A 
HETATM   10  H   UNL     1      26.915  47.025  51.351  1.00  0.00     0.162 HD
ENDROOT
BRANCH   1  11
HETATM   11  C   UNL     1      22.395  47.965  48.596  1.00  0.00     0.276 C 
HETATM   12  N   UNL     1      21.864  48.787  49.571  1.00  0.00    -0.322 N 
HETATM   13  H   UNL     1      22.294  48.667  50.484  1.00  0.00     0.169 HD
HETATM   14  O   UNL     1      22.023  47.875  47.430  1.00  0.00    -0.266 OA
BRANCH  12  15
HETATM   15  C   UNL     1      20.793  49.690  49.451  1.00  0.00     0.035 A 
HETATM   16  C   UNL     1      19.534  49.480  50.017  1.00  0.00     0.030 A 
HETATM   17  C   UNL     1      18.520  50.434  49.873  1.00  0.00     0.012 A 
HETATM   18  C   UNL     1      18.742  51.619  49.162  1.00  0.00    -0.030 A 
HETATM   19  C   UNL     1      20.007  51.826  48.596  1.00  0.00     0.012 A 
HETATM   20  C   UNL     1      21.017  50.866  48.729  1.00  0.00     0.030 A 
BRANCH  18  21
HETATM   21  C   UNL     1      17.646  52.659  49.066  1.00  0.00     0.147 C 
HETATM   22  C   UNL     1      16.439  52.375  49.949  1.00  0.00     0.044 C 
BRANCH  21  23
HETATM   23  O   UNL     1      17.208  52.761  47.713  1.00  0.00    -0.391 OA
HETATM   24  H   UNL     1      16.429  52.186  47.617  1.00  0.00     0.210 HD
ENDBRANCH  21  23
ENDBRANCH  18  21
ENDBRANCH  12  15
ENDBRANCH   1  11
BRANCH   8  25
HETATM   25  C   UNL     1      24.250  43.253  50.487  1.00  0.00     0.409 C 
HETATM   26  F   UNL     1      24.879  42.236  51.104  1.00  0.00    -0.169 F 
HETATM   27  F   UNL     1      23.706  44.034  51.450  1.00  0.00    -0.169 F 
HETATM   28  F   UNL     1      23.206  42.724  49.799  1.00  0.00    -0.169 F 
ENDBRANCH   8  25
BRANCH   6  29
HETATM   29  C   UNL     1      26.872  44.422  52.399  1.00  0.00     0.075 A 
HETATM   30  O   UNL     1      27.567  43.293  52.727  1.00  0.00    -0.325 OA
HETATM   31  C   UNL     1      27.272  43.007  54.021  1.00  0.00     0.142 A 
HETATM   32  C   UNL     1      26.399  43.936  54.534  1.00  0.00     0.027 A 
HETATM   33  C   UNL     1      26.144  44.856  53.489  1.00  0.00     0.037 A 
ENDBRANCH   6  29
TORSDOF 6
ENDMDL
MODEL 2
REMARK VINA RESULT:      -8.7      3.285      9.325
REMARK  6 active torsions:
REMARK  status: ('A' for Active; 'I' for Inactive)
REMARK    1  A    between atoms: C_2  and  O_3 
REMARK    2  A    between atoms: C_2  and  C_4 
REMARK    3  A    between atoms: C_7  and  N_8 
REMARK       I    between atoms: N_8  and  C_9 
REMARK    4  A    between atoms: C_9  and  C_10 
REMARK    5  A    between atoms: C_15  and  C_16 
REMARK    6  A    between atoms: C_22  and  C_23 
ROOT
HETATM    1  C   UNL     1      23.693  48.171  49.530  1.00  0.00     0.148 A 
HETATM    2  N   UNL     1      23.173  49.420  49.566  1.00  0.00    -0.165 NA
HETATM    3  N   UNL     1      22.062  49.317  48.810  1.00  0.00    -0.240 N 
HETATM    4  C   UNL     1      21.915  48.099  48.205  1.00  0.00     0.123 A 
HETATM    5  N   UNL     1      20.924  47.857  47.323  1.00  0.00    -0.364 N 
HETATM    6  C   UNL     1      19.839  48.809  47.086  1.00  0.00     0.143 C 
HETATM    7  C   UNL     1      20.322  50.248  47.347  1.00  0.00     0.068 C 
HETATM    8  C   UNL     1      21.140  50.424  48.640  1.00  0.00     0.221 C 
HETATM    9  C   UNL     1      22.931  47.319  48.683  1.00  0.00     0.089 A 
HETATM   10  H   UNL     1      20.748  46.912  46.986  1.00  0.00     0.162 HD
ENDROOT
BRANCH   1  11
HETATM   11  C   UNL     1      24.910  47.794  50.272  1.00  0.00     0.276 C 
HETATM   12  N   UNL     1      24.644  46.913  51.302  1.00  0.00    -0.322 N 
HETATM   13  H   UNL     1      23.659  46.686  51.399  1.00  0.00     0.169 HD
HETATM   14  O   UNL     1      26.003  48.268  49.976  1.00  0.00    -0.266 OA
BRANCH  12  15
HETATM   15  C   UNL     1      25.550  46.367  52.229  1.00  0.00     0.035 A 
HETATM   16  C   UNL     1      26.153  45.117  52.080  1.00  0.00     0.030 A 
HETATM   17  C   UNL     1      27.061  44.646  53.036  1.00  0.00     0.012 A 
HETATM   18  C   UNL     1      27.388  45.415  54.159  1.00  0.00    -0.030 A 
HETATM   19  C   UNL     1      26.781  46.669  54.304  1.00  0.00     0.012 A 
HETATM   20  C   UNL     1      25.862  47.135  53.354  1.00  0.00     0.030 A 
BRANCH  18  21
HETATM   21  C   UNL     1      28.414  44.908  55.149  1.00  0.00     0.147 C 
HETATM   22  C   UNL     1      29.154  46.008  55.897  1.00  0.00     0.044 C 
BRANCH  21  23
HETATM   23  O   UNL     1      29.369  44.097  54.467  1.00  0.00    -0.391 OA
HETATM   24  H   UNL     1      30.236  44.527  54.566  1.00  0.00     0.210 HD
ENDBRANCH  21  23
ENDBRANCH  18  21
ENDBRANCH  12  15
ENDBRANCH   1  11
BRANCH   8  25
HETATM   25  C   UNL     1      20.295  50.581  49.885  1.00  0.00     0.409 C 
HETATM   26  F   UNL     1      19.889  49.414  50.419  1.00  0.00    -0.169 F 
HETATM   27  F   UNL     1      20.953  51.260  50.854  1.00  0.00    -0.169 F 
HETATM   28  F   UNL     1      19.181  51.307  49.609  1.00  0.00    -0.169 F 
ENDBRANCH   8  25
BRANCH   6  29
HETATM   29  C   UNL     1      18.556  48.475  47.777  1.00  0.00     0.075 A 
HETATM   30  O   UNL     1      17.576  49.423  47.726  1.00  0.00    -0.325 OA
HETATM   31  C   UNL     1      16.494  48.912  48.368  1.00  0.00     0.142 A 
HETATM   32  C   UNL     1      16.762  47.646  48.832  1.00  0.00     0.027 A 
HETATM   33  C   UNL     1      18.093  47.359  48.445  1.00  0.00     0.037 A 
ENDBRANCH   6  29
TORSDOF 6
ENDMDL
MODEL 3
REMARK VINA RESULT:      -8.3      8.121     10.419
REMARK  6 active torsions:
REMARK  status: ('A' for Active; 'I' for Inactive)
REMARK    1  A    between atoms: C_2  and  O_3 
REMARK    2  A    between atoms: C_2  and  C_4 
REMARK    3  A    between atoms: C_7  and  N_8 
REMARK       I    between atoms: N_8  and  C_9 
REMARK    4  A    between atoms: C_9  and  C_10 
REMARK    5  A    between atoms: C_15  and  C_16 
REMARK    6  A    between atoms: C_22  and  C_23 
ROOT
HETATM    1  C   UNL     1      27.264  41.573  50.966  1.00  0.00     0.148 A 
HETATM    2  N   UNL     1      27.979  40.427  51.064  1.00  0.00    -0.165 NA
HETATM    3  N   UNL     1      27.503  39.676  50.051  1.00  0.00    -0.240 N 
HETATM    4  C   UNL     1      26.446  40.241  49.392  1.00  0.00     0.123 A 
HETATM    5  N   UNL     1      25.772  39.581  48.428  1.00  0.00    -0.364 N 
HETATM    6  C   UNL     1      26.227  38.296  47.897  1.00  0.00     0.143 C 
HETATM    7  C   UNL     1      27.022  37.525  48.966  1.00  0.00     0.068 C 
HETATM    8  C   UNL     1      28.054  38.373  49.732  1.00  0.00     0.221 C 
HETATM    9  C   UNL     1      26.292  41.488  49.932  1.00  0.00     0.089 A 
HETATM   10  H   UNL     1      25.078  40.061  47.857  1.00  0.00     0.162 HD
ENDROOT
BRANCH   1  11
HETATM   11  C   UNL     1      27.485  42.726  51.859  1.00  0.00     0.276 C 
HETATM   12  N   UNL     1      28.412  42.454  52.846  1.00  0.00    -0.322 N 
HETATM   13  H   UNL     1      28.773  41.504  52.815  1.00  0.00     0.169 HD
HETATM   14  O   UNL     1      26.863  43.772  51.706  1.00  0.00    -0.266 OA
BRANCH  12  15
HETATM   15  C   UNL     1      28.846  43.300  53.882  1.00  0.00     0.035 A 
HETATM   16  C   UNL     1      28.123  44.405  54.333  1.00  0.00     0.030 A 
HETATM   17  C   UNL     1      28.608  45.193  55.384  1.00  0.00     0.012 A 
HETATM   18  C   UNL     1      29.825  44.891  56.008  1.00  0.00    -0.030 A 
HETATM   19  C   UNL     1      30.546  43.779  55.552  1.00  0.00     0.012 A 
HETATM   20  C   UNL     1      30.067  43.000  54.492  1.00  0.00     0.030 A 
BRANCH  18  21
HETATM   21  C   UNL     1      30.301  45.724  57.178  1.00  0.00     0.147 C 
HETATM   22  C   UNL     1      31.146  44.957  58.186  1.00  0.00     0.044 C 
BRANCH  21  23
HETATM   23  O   UNL     1      29.174  46.277  57.854  1.00  0.00    -0.391 OA
HETATM   24  H   UNL     1      28.725  46.873  57.229  1.00  0.00     0.210 HD
ENDBRANCH  21  23
ENDBRANCH  18  21
ENDBRANCH  12  15
ENDBRANCH   1  11
BRANCH   8  25
HETATM   25  C   UNL     1      29.372  38.539  49.007  1.00  0.00     0.409 C 
HETATM   26  F   UNL     1      29.522  39.740  48.418  1.00  0.00    -0.169 F 
HETATM   27  F   UNL     1      30.426  38.364  49.839  1.00  0.00    -0.169 F 
HETATM   28  F   UNL     1      29.498  37.596  48.039  1.00  0.00    -0.169 F 
ENDBRANCH   8  25
BRANCH   6  29
HETATM   29  C   UNL     1      26.927  38.381  46.579  1.00  0.00     0.075 A 
HETATM   30  O   UNL     1      27.364  39.619  46.203  1.00  0.00    -0.325 OA
HETATM   31  C   UNL     1      28.001  39.471  45.013  1.00  0.00     0.142 A 
HETATM   32  C   UNL     1      27.983  38.155  44.616  1.00  0.00     0.027 A 
HETATM   33  C   UNL     1      27.295  37.448  45.630  1.00  0.00     0.037 A 
ENDBRANCH   6  29
TORSDOF 6
ENDMDL
MODEL 4
REMARK VINA RESULT:      -8.1     14.096     17.000
REMARK  6 active torsions:
REMARK  status: ('A' for Active; 'I' for Inactive)
REMARK    1  A    between atoms: C_2  and  O_3 
REMARK    2  A    between atoms: C_2  and  C_4 
REMARK    3  A    between atoms: C_7  and  N_8 
REMARK       I    between atoms: N_8  and  C_9 
REMARK    4  A    between atoms: C_9  and  C_10 
REMARK    5  A    between atoms: C_15  and  C_16 
REMARK    6  A    between atoms: C_22  and  C_23 
ROOT
HETATM    1  C   UNL     1      35.396  52.054  43.364  1.00  0.00     0.148 A 
HETATM    2  N   UNL     1      35.283  51.369  42.202  1.00  0.00    -0.165 NA
HETATM    3  N   UNL     1      33.994  50.975  42.196  1.00  0.00    -0.240 N 
HETATM    4  C   UNL     1      33.318  51.277  43.346  1.00  0.00     0.123 A 
HETATM    5  N   UNL     1      32.054  50.858  43.561  1.00  0.00    -0.364 N 
HETATM    6  C   UNL     1      31.259  50.211  42.519  1.00  0.00     0.143 C 
HETATM    7  C   UNL     1      32.174  49.466  41.530  1.00  0.00     0.068 C 
HETATM    8  C   UNL     1      33.409  50.265  41.075  1.00  0.00     0.221 C 
HETATM    9  C   UNL     1      34.184  52.013  44.107  1.00  0.00     0.089 A 
HETATM   10  H   UNL     1      31.521  51.202  44.358  1.00  0.00     0.162 HD
ENDROOT
BRANCH   1  11
HETATM   11  C   UNL     1      36.645  52.721  43.775  1.00  0.00     0.276 C 
HETATM   12  N   UNL     1      37.084  52.292  45.013  1.00  0.00    -0.322 N 
HETATM   13  H   UNL     1      36.469  51.611  45.449  1.00  0.00     0.169 HD
HETATM   14  O   UNL     1      37.172  53.572  43.065  1.00  0.00    -0.266 OA
BRANCH  12  15
HETATM   15  C   UNL     1      38.214  52.727  45.728  1.00  0.00     0.035 A 
HETATM   16  C   UNL     1      39.501  52.228  45.522  1.00  0.00     0.030 A 
HETATM   17  C   UNL     1      40.584  52.723  46.259  1.00  0.00     0.012 A 
HETATM   18  C   UNL     1      40.403  53.729  47.216  1.00  0.00    -0.030 A 
HETATM   19  C   UNL     1      39.109  54.227  47.419  1.00  0.00     0.012 A 
HETATM   20  C   UNL     1      38.025  53.722  46.691  1.00  0.00     0.030 A 
BRANCH  18  21
HETATM   21  C   UNL     1      41.597  54.286  47.961  1.00  0.00     0.147 C 
HETATM   22  C   UNL     1      42.935  53.722  47.504  1.00  0.00     0.044 C 
BRANCH  21  23
HETATM   23  O   UNL     1      41.446  54.029  49.356  1.00  0.00    -0.391 OA
HETATM   24  H   UNL     1      42.092  54.585  49.825  1.00  0.00     0.210 HD
ENDBRANCH  21  23
ENDBRANCH  18  21
ENDBRANCH  12  15
ENDBRANCH   1  11
BRANCH   8  25
HETATM   25  C   UNL     1      33.133  51.233  39.945  1.00  0.00     0.409 C 
HETATM   26  F   UNL     1      32.095  50.877  39.165  1.00  0.00    -0.169 F 
HETATM   27  F   UNL     1      32.881  52.481  40.405  1.00  0.00    -0.169 F 
HETATM   28  F   UNL     1      34.222  51.342  39.142  1.00  0.00    -0.169 F 
ENDBRANCH   8  25
BRANCH   6  29
HETATM   29  C   UNL     1      30.262  51.104  41.853  1.00  0.00     0.075 A 
HETATM   30  O   UNL     1      29.466  50.525  40.907  1.00  0.00    -0.325 OA
HETATM   31  C   UNL     1      28.614  51.484  40.462  1.00  0.00     0.142 A 
HETATM   32  C   UNL     1      28.848  52.675  41.109  1.00  0.00     0.027 A 
HETATM   33  C   UNL     1      29.908  52.429  42.013  1.00  0.00     0.037 A 
ENDBRANCH   6  29
TORSDOF 6
ENDMDL
MODEL 5
REMARK VINA RESULT:      -8.1      3.261     10.003
REMARK  6 active torsions:
REMARK  status: ('A' for Active; 'I' for Inactive)
REMARK    1  A    between atoms: C_2  and  O_3 
REMARK    2  A    between atoms: C_2  and  C_4 
REMARK    3  A    between atoms: C_7  and  N_8 
REMARK       I    between atoms: N_8  and  C_9 
REMARK    4  A    between atoms: C_9  and  C_10 
REMARK    5  A    between atoms: C_15  and  C_16 
REMARK    6  A    between atoms: C_22  and  C_23 
ROOT
HETATM    1  C   UNL     1      21.647  49.714  48.782  1.00  0.00     0.148 A 
HETATM    2  N   UNL     1      20.561  49.192  49.398  1.00  0.00    -0.165 NA
HETATM    3  N   UNL     1      19.623  50.147  49.239  1.00  0.00    -0.240 N 
HETATM    4  C   UNL     1      20.093  51.292  48.657  1.00  0.00     0.123 A 
HETATM    5  N   UNL     1      19.323  52.392  48.525  1.00  0.00    -0.364 N 
HETATM    6  C   UNL     1      17.893  52.385  48.827  1.00  0.00     0.143 C 
HETATM    7  C   UNL     1      17.577  51.333  49.906  1.00  0.00     0.068 C 
HETATM    8  C   UNL     1      18.255  49.967  49.685  1.00  0.00     0.221 C 
HETATM    9  C   UNL     1      21.390  51.031  48.310  1.00  0.00     0.089 A 
HETATM   10  H   UNL     1      19.643  53.186  47.972  1.00  0.00     0.162 HD
ENDROOT
BRANCH   1  11
HETATM   11  C   UNL     1      22.922  48.983  48.663  1.00  0.00     0.276 C 
HETATM   12  N   UNL     1      23.034  47.972  49.598  1.00  0.00    -0.322 N 
HETATM   13  H   UNL     1      22.240  47.910  50.229  1.00  0.00     0.169 HD
HETATM   14  O   UNL     1      23.759  49.302  47.825  1.00  0.00    -0.266 OA
BRANCH  12  15
HETATM   15  C   UNL     1      24.115  47.096  49.798  1.00  0.00     0.035 A 
HETATM   16  C   UNL     1      25.278  47.445  50.487  1.00  0.00     0.030 A 
HETATM   17  C   UNL     1      26.308  46.512  50.665  1.00  0.00     0.012 A 
HETATM   18  C   UNL     1      26.196  45.212  50.161  1.00  0.00    -0.030 A 
HETATM   19  C   UNL     1      25.027  44.866  49.471  1.00  0.00     0.012 A 
HETATM   20  C   UNL     1      24.003  45.802  49.282  1.00  0.00     0.030 A 
BRANCH  18  21
HETATM   21  C   UNL     1      27.299  44.206  50.414  1.00  0.00     0.147 C 
HETATM   22  C   UNL     1      26.934  42.775  50.041  1.00  0.00     0.044 C 
BRANCH  21  23
HETATM   23  O   UNL     1      27.662  44.240  51.792  1.00  0.00    -0.391 OA
HETATM   24  H   UNL     1      28.477  44.767  51.864  1.00  0.00     0.210 HD
ENDBRANCH  21  23
ENDBRANCH  18  21
ENDBRANCH  12  15
ENDBRANCH   1  11
BRANCH   8  25
HETATM   25  C   UNL     1      17.517  49.064  48.722  1.00  0.00     0.409 C 
HETATM   26  F   UNL     1      16.198  49.317  48.640  1.00  0.00    -0.169 F 
HETATM   27  F   UNL     1      18.023  49.149  47.469  1.00  0.00    -0.169 F 
HETATM   28  F   UNL     1      17.656  47.766  49.095  1.00  0.00    -0.169 F 
ENDBRANCH   8  25
BRANCH   6  29
HETATM   29  C   UNL     1      17.004  52.295  47.628  1.00  0.00     0.075 A 
HETATM   30  O   UNL     1      17.626  52.144  46.423  1.00  0.00    -0.325 OA
HETATM   31  C   UNL     1      16.651  52.041  45.482  1.00  0.00     0.142 A 
HETATM   32  C   UNL     1      15.409  52.122  46.065  1.00  0.00     0.027 A 
HETATM   33  C   UNL     1      15.634  52.279  47.453  1.00  0.00     0.037 A 
ENDBRANCH   6  29
TORSDOF 6
ENDMDL
MODEL 6
REMARK VINA RESULT:      -8.0      2.025      3.129
REMARK  6 active torsions:
REMARK  status: ('A' for Active; 'I' for Inactive)
REMARK    1  A    between atoms: C_2  and  O_3 
REMARK    2  A    between atoms: C_2  and  C_4 
REMARK    3  A    between atoms: C_7  and  N_8 
REMARK       I    between atoms: N_8  and  C_9 
REMARK    4  A    between atoms: C_9  and  C_10 
REMARK    5  A    between atoms: C_15  and  C_16 
REMARK    6  A    between atoms: C_22  and  C_23 
ROOT
HETATM    1  C   UNL     1      23.045  46.247  49.122  1.00  0.00     0.148 A 
HETATM    2  N   UNL     1      24.037  46.391  50.032  1.00  0.00    -0.165 NA
HETATM    3  N   UNL     1      24.433  45.123  50.264  1.00  0.00    -0.240 N 
HETATM    4  C   UNL     1      23.667  44.180  49.636  1.00  0.00     0.123 A 
HETATM    5  N   UNL     1      23.847  42.860  49.846  1.00  0.00    -0.364 N 
HETATM    6  C   UNL     1      24.978  42.339  50.613  1.00  0.00     0.143 C 
HETATM    7  C   UNL     1      25.436  43.369  51.661  1.00  0.00     0.068 C 
HETATM    8  C   UNL     1      25.551  44.811  51.134  1.00  0.00     0.221 C 
HETATM    9  C   UNL     1      22.785  44.875  48.855  1.00  0.00     0.089 A 
HETATM   10  H   UNL     1      23.362  42.172  49.272  1.00  0.00     0.162 HD
ENDROOT
BRANCH   1  11
HETATM   11  C   UNL     1      22.337  47.397  48.531  1.00  0.00     0.276 C 
HETATM   12  N   UNL     1      21.695  48.164  49.485  1.00  0.00    -0.322 N 
HETATM   13  H   UNL     1      21.792  47.802  50.430  1.00  0.00     0.169 HD
HETATM   14  O   UNL     1      22.332  47.582  47.318  1.00  0.00    -0.266 OA
BRANCH  12  15
HETATM   15  C   UNL     1      20.905  49.309  49.285  1.00  0.00     0.035 A 
HETATM   16  C   UNL     1      21.372  50.477  48.679  1.00  0.00     0.030 A 
HETATM   17  C   UNL     1      20.521  51.574  48.496  1.00  0.00     0.012 A 
HETATM   18  C   UNL     1      19.185  51.526  48.912  1.00  0.00    -0.030 A 
HETATM   19  C   UNL     1      18.721  50.352  49.519  1.00  0.00     0.012 A 
HETATM   20  C   UNL     1      19.576  49.260  49.714  1.00  0.00     0.030 A 
BRANCH  18  21
HETATM   21  C   UNL     1      18.270  52.704  48.654  1.00  0.00     0.147 C 
HETATM   22  C   UNL     1      17.110  52.818  49.633  1.00  0.00     0.044 C 
BRANCH  21  23
HETATM   23  O   UNL     1      17.744  52.612  47.331  1.00  0.00    -0.391 OA
HETATM   24  H   UNL     1      16.953  53.178  47.294  1.00  0.00     0.210 HD
ENDBRANCH  21  23
ENDBRANCH  18  21
ENDBRANCH  12  15
ENDBRANCH   1  11
BRANCH   8  25
HETATM   25  C   UNL     1      26.852  45.101  50.418  1.00  0.00     0.409 C 
HETATM   26  F   UNL     1      27.891  44.369  50.859  1.00  0.00    -0.169 F 
HETATM   27  F   UNL     1      26.748  44.890  49.084  1.00  0.00    -0.169 F 
HETATM   28  F   UNL     1      27.189  46.408  50.566  1.00  0.00    -0.169 F 
ENDBRANCH   8  25
BRANCH   6  29
HETATM   29  C   UNL     1      26.096  41.796  49.781  1.00  0.00     0.075 A 
HETATM   30  O   UNL     1      27.127  41.212  50.458  1.00  0.00    -0.325 OA
HETATM   31  C   UNL     1      28.004  40.754  49.529  1.00  0.00     0.142 A 
HETATM   32  C   UNL     1      27.553  41.033  48.261  1.00  0.00     0.027 A 
HETATM   33  C   UNL     1      26.316  41.700  48.422  1.00  0.00     0.037 A 
ENDBRANCH   6  29
TORSDOF 6
ENDMDL
MODEL 7
REMARK VINA RESULT:      -8.0     13.638     16.537
REMARK  6 active torsions:
REMARK  status: ('A' for Active; 'I' for Inactive)
REMARK    1  A    between atoms: C_2  and  O_3 
REMARK    2  A    between atoms: C_2  and  C_4 
REMARK    3  A    between atoms: C_7  and  N_8 
REMARK       I    between atoms: N_8  and  C_9 
REMARK    4  A    between atoms: C_9  and  C_10 
REMARK    5  A    between atoms: C_15  and  C_16 
REMARK    6  A    between atoms: C_22  and  C_23 
ROOT
HETATM    1  C   UNL     1      33.430  52.075  40.009  1.00  0.00     0.148 A 
HETATM    2  N   UNL     1      32.462  52.756  40.667  1.00  0.00    -0.165 NA
HETATM    3  N   UNL     1      31.355  52.508  39.937  1.00  0.00    -0.240 N 
HETATM    4  C   UNL     1      31.596  51.802  38.791  1.00  0.00     0.123 A 
HETATM    5  N   UNL     1      30.626  51.563  37.884  1.00  0.00    -0.364 N 
HETATM    6  C   UNL     1      29.222  51.882  38.141  1.00  0.00     0.143 C 
HETATM    7  C   UNL     1      29.111  53.070  39.114  1.00  0.00     0.068 C 
HETATM    8  C   UNL     1      30.046  52.988  40.334  1.00  0.00     0.221 C 
HETATM    9  C   UNL     1      32.922  51.469  38.827  1.00  0.00     0.089 A 
HETATM   10  H   UNL     1      30.788  50.925  37.107  1.00  0.00     0.162 HD
ENDROOT
BRANCH   1  11
HETATM   11  C   UNL     1      34.824  52.020  40.484  1.00  0.00     0.276 C 
HETATM   12  N   UNL     1      34.905  51.811  41.847  1.00  0.00    -0.322 N 
HETATM   13  H   UNL     1      34.000  51.756  42.305  1.00  0.00     0.169 HD
HETATM   14  O   UNL     1      35.763  52.176  39.709  1.00  0.00    -0.266 OA
BRANCH  12  15
HETATM   15  C   UNL     1      36.062  51.733  42.643  1.00  0.00     0.035 A 
HETATM   16  C   UNL     1      37.056  50.768  42.472  1.00  0.00     0.030 A 
HETATM   17  C   UNL     1      38.192  50.763  43.291  1.00  0.00     0.012 A 
HETATM   18  C   UNL     1      38.359  51.723  44.296  1.00  0.00    -0.030 A 
HETATM   19  C   UNL     1      37.359  52.690  44.463  1.00  0.00     0.012 A 
HETATM   20  C   UNL     1      36.217  52.687  43.653  1.00  0.00     0.030 A 
BRANCH  18  21
HETATM   21  C   UNL     1      39.621  51.730  45.132  1.00  0.00     0.147 C 
HETATM   22  C   UNL     1      40.376  50.407  45.131  1.00  0.00     0.044 C 
BRANCH  21  23
HETATM   23  O   UNL     1      39.294  52.069  46.478  1.00  0.00    -0.391 OA
HETATM   24  H   UNL     1      40.123  52.059  46.988  1.00  0.00     0.210 HD
ENDBRANCH  21  23
ENDBRANCH  18  21
ENDBRANCH  12  15
ENDBRANCH   1  11
BRANCH   8  25
HETATM   25  C   UNL     1      29.510  52.135  41.463  1.00  0.00     0.409 C 
HETATM   26  F   UNL     1      29.888  50.845  41.398  1.00  0.00    -0.169 F 
HETATM   27  F   UNL     1      29.894  52.607  42.673  1.00  0.00    -0.169 F 
HETATM   28  F   UNL     1      28.152  52.157  41.465  1.00  0.00    -0.169 F 
ENDBRANCH   8  25
BRANCH   6  29
HETATM   29  C   UNL     1      28.380  50.710  38.532  1.00  0.00     0.075 A 
HETATM   30  O   UNL     1      29.037  49.530  38.731  1.00  0.00    -0.325 OA
HETATM   31  C   UNL     1      28.108  48.617  39.115  1.00  0.00     0.142 A 
HETATM   32  C   UNL     1      26.860  49.192  39.168  1.00  0.00     0.027 A 
HETATM   33  C   UNL     1      27.035  50.546  38.798  1.00  0.00     0.037 A 
ENDBRANCH   6  29
TORSDOF 6
ENDMDL
MODEL 8
REMARK VINA RESULT:      -7.9     21.078     22.290
REMARK  6 active torsions:
REMARK  status: ('A' for Active; 'I' for Inactive)
REMARK    1  A    between atoms: C_2  and  O_3 
REMARK    2  A    between atoms: C_2  and  C_4 
REMARK    3  A    between atoms: C_7  and  N_8 
REMARK       I    between atoms: N_8  and  C_9 
REMARK    4  A    between atoms: C_9  and  C_10 
REMARK    5  A    between atoms: C_15  and  C_16 
REMARK    6  A    between atoms: C_22  and  C_23 
ROOT
HETATM    1  C   UNL     1      39.529  46.041  64.563  1.00  0.00     0.148 A 
HETATM    2  N   UNL     1      38.306  45.461  64.571  1.00  0.00    -0.165 NA
HETATM    3  N   UNL     1      38.543  44.226  64.086  1.00  0.00    -0.240 N 
HETATM    4  C   UNL     1      39.830  44.035  63.664  1.00  0.00     0.123 A 
HETATM    5  N   UNL     1      40.217  42.900  63.046  1.00  0.00    -0.364 N 
HETATM    6  C   UNL     1      39.344  41.731  62.943  1.00  0.00     0.143 C 
HETATM    7  C   UNL     1      37.867  42.164  62.935  1.00  0.00     0.068 C 
HETATM    8  C   UNL     1      37.503  43.220  63.996  1.00  0.00     0.221 C 
HETATM    9  C   UNL     1      40.507  45.176  63.997  1.00  0.00     0.089 A 
HETATM   10  H   UNL     1      41.202  42.719  62.861  1.00  0.00     0.162 HD
ENDROOT
BRANCH   1  11
HETATM   11  C   UNL     1      39.765  47.408  65.064  1.00  0.00     0.276 C 
HETATM   12  N   UNL     1      38.684  47.900  65.770  1.00  0.00    -0.322 N 
HETATM   13  H   UNL     1      37.897  47.258  65.809  1.00  0.00     0.169 HD
HETATM   14  O   UNL     1      40.813  47.998  64.824  1.00  0.00    -0.266 OA
BRANCH  12  15
HETATM   15  C   UNL     1      38.542  49.167  66.362  1.00  0.00     0.035 A 
HETATM   16  C   UNL     1      39.033  49.490  67.628  1.00  0.00     0.030 A 
HETATM   17  C   UNL     1      38.872  50.781  68.147  1.00  0.00     0.012 A 
HETATM   18  C   UNL     1      38.218  51.776  67.411  1.00  0.00    -0.030 A 
HETATM   19  C   UNL     1      37.727  51.447  66.141  1.00  0.00     0.012 A 
HETATM   20  C   UNL     1      37.877  50.152  65.627  1.00  0.00     0.030 A 
BRANCH  18  21
HETATM   21  C   UNL     1      38.104  53.178  67.970  1.00  0.00     0.147 C 
HETATM   22  C   UNL     1      37.706  54.228  66.942  1.00  0.00     0.044 C 
BRANCH  21  23
HETATM   23  O   UNL     1      39.350  53.557  68.552  1.00  0.00    -0.391 OA
HETATM   24  H   UNL     1      39.179  54.320  69.131  1.00  0.00     0.210 HD
ENDBRANCH  21  23
ENDBRANCH  18  21
ENDBRANCH  12  15
ENDBRANCH   1  11
BRANCH   8  25
HETATM   25  C   UNL     1      37.229  42.643  65.368  1.00  0.00     0.409 C 
HETATM   26  F   UNL     1      36.376  43.378  66.106  1.00  0.00    -0.169 F 
HETATM   27  F   UNL     1      36.720  41.391  65.291  1.00  0.00    -0.169 F 
HETATM   28  F   UNL     1      38.384  42.537  66.072  1.00  0.00    -0.169 F 
ENDBRANCH   8  25
BRANCH   6  29
HETATM   29  C   UNL     1      39.642  40.644  63.925  1.00  0.00     0.075 A 
HETATM   30  O   UNL     1      40.739  40.825  64.716  1.00  0.00    -0.325 OA
HETATM   31  C   UNL     1      40.806  39.758  65.554  1.00  0.00     0.142 A 
HETATM   32  C   UNL     1      39.765  38.892  65.316  1.00  0.00     0.027 A 
HETATM   33  C   UNL     1      39.008  39.466  64.268  1.00  0.00     0.037 A 
ENDBRANCH   6  29
TORSDOF 6
ENDMDL
MODEL 9
REMARK VINA RESULT:      -7.8      1.532      1.770
REMARK  6 active torsions:
REMARK  status: ('A' for Active; 'I' for Inactive)
REMARK    1  A    between atoms: C_2  and  O_3 
REMARK    2  A    between atoms: C_2  and  C_4 
REMARK    3  A    between atoms: C_7  and  N_8 
REMARK       I    between atoms: N_8  and  C_9 
REMARK    4  A    between atoms: C_9  and  C_10 
REMARK    5  A    between atoms: C_15  and  C_16 
REMARK    6  A    between atoms: C_22  and  C_23 
ROOT
HETATM    1  C   UNL     1      23.811  47.170  49.434  1.00  0.00     0.148 A 
HETATM    2  N   UNL     1      23.607  45.852  49.205  1.00  0.00    -0.165 NA
HETATM    3  N   UNL     1      24.782  45.290  49.554  1.00  0.00    -0.240 N 
HETATM    4  C   UNL     1      25.753  46.196  49.880  1.00  0.00     0.123 A 
HETATM    5  N   UNL     1      27.021  45.818  50.143  1.00  0.00    -0.364 N 
HETATM    6  C   UNL     1      27.406  44.413  50.272  1.00  0.00     0.143 C 
HETATM    7  C   UNL     1      26.483  43.523  49.420  1.00  0.00     0.068 C 
HETATM    8  C   UNL     1      24.984  43.854  49.542  1.00  0.00     0.221 C 
HETATM    9  C   UNL     1      25.147  47.421  49.853  1.00  0.00     0.089 A 
HETATM   10  H   UNL     1      27.696  46.485  50.513  1.00  0.00     0.162 HD
ENDROOT
BRANCH   1  11
HETATM   11  C   UNL     1      22.759  48.183  49.234  1.00  0.00     0.276 C 
HETATM   12  N   UNL     1      21.511  47.616  49.064  1.00  0.00    -0.322 N 
HETATM   13  H   UNL     1      21.521  46.599  49.079  1.00  0.00     0.169 HD
HETATM   14  O   UNL     1      23.030  49.380  49.204  1.00  0.00    -0.266 OA
BRANCH  12  15
HETATM   15  C   UNL     1      20.289  48.268  48.823  1.00  0.00     0.035 A 
HETATM   16  C   UNL     1      19.296  48.436  49.789  1.00  0.00     0.030 A 
HETATM   17  C   UNL     1      18.110  49.115  49.481  1.00  0.00     0.012 A 
HETATM   18  C   UNL     1      17.893  49.642  48.203  1.00  0.00    -0.030 A 
HETATM   19  C   UNL     1      18.893  49.471  47.236  1.00  0.00     0.012 A 
HETATM   20  C   UNL     1      20.074  48.781  47.540  1.00  0.00     0.030 A 
BRANCH  18  21
HETATM   21  C   UNL     1      16.628  50.419  47.910  1.00  0.00     0.147 C 
HETATM   22  C   UNL     1      15.419  49.547  47.599  1.00  0.00     0.044 C 
BRANCH  21  23
HETATM   23  O   UNL     1      16.855  51.294  46.808  1.00  0.00    -0.391 OA
HETATM   24  H   UNL     1      17.767  51.144  46.502  1.00  0.00     0.210 HD
ENDBRANCH  21  23
ENDBRANCH  18  21
ENDBRANCH  12  15
ENDBRANCH   1  11
BRANCH   8  25
HETATM   25  C   UNL     1      24.314  43.233  50.747  1.00  0.00     0.409 C 
HETATM   26  F   UNL     1      24.336  44.012  51.845  1.00  0.00    -0.169 F 
HETATM   27  F   UNL     1      23.018  42.926  50.497  1.00  0.00    -0.169 F 
HETATM   28  F   UNL     1      24.920  42.062  51.072  1.00  0.00    -0.169 F 
ENDBRANCH   8  25
BRANCH   6  29
HETATM   29  C   UNL     1      27.559  43.937  51.682  1.00  0.00     0.075 A 
HETATM   30  O   UNL     1      27.195  44.816  52.661  1.00  0.00    -0.325 OA
HETATM   31  C   UNL     1      27.368  44.182  53.849  1.00  0.00     0.142 A 
HETATM   32  C   UNL     1      27.838  42.905  53.650  1.00  0.00     0.027 A 
HETATM   33  C   UNL     1      27.955  42.743  52.250  1.00  0.00     0.037 A 
ENDBRANCH   6  29
TORSDOF 6
ENDMDL
MODEL 10
REMARK VINA RESULT:      -7.2     14.692     16.162
REMARK  6 active torsions:
REMARK  status: ('A' for Active; 'I' for Inactive)
REMARK    1  A    between atoms: C_2  and  O_3 
REMARK    2  A    between atoms: C_2  and  C_4 
REMARK    3  A    between atoms: C_7  and  N_8 
REMARK       I    between atoms: N_8  and  C_9 
REMARK    4  A    between atoms: C_9  and  C_10 
REMARK    5  A    between atoms: C_15  and  C_16 
REMARK    6  A    between atoms: C_22  and  C_23 
ROOT
HETATM    1  C   UNL     1      36.374  52.112  43.269  1.00  0.00     0.148 A 
HETATM    2  N   UNL     1      37.677  51.931  42.952  1.00  0.00    -0.165 NA
HETATM    3  N   UNL     1      38.313  52.847  43.709  1.00  0.00    -0.240 N 
HETATM    4  C   UNL     1      37.470  53.674  44.400  1.00  0.00     0.123 A 
HETATM    5  N   UNL     1      37.929  54.721  45.116  1.00  0.00    -0.364 N 
HETATM    6  C   UNL     1      39.356  54.941  45.351  1.00  0.00     0.143 C 
HETATM    7  C   UNL     1      40.186  54.360  44.193  1.00  0.00     0.068 C 
HETATM    8  C   UNL     1      39.759  52.951  43.742  1.00  0.00     0.221 C 
HETATM    9  C   UNL     1      36.208  53.200  44.171  1.00  0.00     0.089 A 
HETATM   10  H   UNL     1      37.306  55.243  45.730  1.00  0.00     0.162 HD
ENDROOT
BRANCH   1  11
HETATM   11  C   UNL     1      35.295  51.279  42.707  1.00  0.00     0.276 C 
HETATM   12  N   UNL     1      34.042  51.805  42.958  1.00  0.00    -0.322 N 
HETATM   13  H   UNL     1      34.062  52.660  43.506  1.00  0.00     0.169 HD
HETATM   14  O   UNL     1      35.546  50.233  42.116  1.00  0.00    -0.266 OA
BRANCH  12  15
HETATM   15  C   UNL     1      32.792  51.269  42.600  1.00  0.00     0.035 A 
HETATM   16  C   UNL     1      32.337  50.018  43.019  1.00  0.00     0.030 A 
HETATM   17  C   UNL     1      31.070  49.557  42.639  1.00  0.00     0.012 A 
HETATM   18  C   UNL     1      30.232  50.337  41.835  1.00  0.00    -0.030 A 
HETATM   19  C   UNL     1      30.693  51.593  41.417  1.00  0.00     0.012 A 
HETATM   20  C   UNL     1      31.965  52.048  41.787  1.00  0.00     0.030 A 
BRANCH  18  21
HETATM   21  C   UNL     1      28.846  49.841  41.483  1.00  0.00     0.147 C 
HETATM   22  C   UNL     1      27.822  50.948  41.274  1.00  0.00     0.044 C 
BRANCH  21  23
HETATM   23  O   UNL     1      28.378  48.975  42.515  1.00  0.00    -0.391 OA
HETATM   24  H   UNL     1      28.258  49.517  43.315  1.00  0.00     0.210 HD
ENDBRANCH  21  23
ENDBRANCH  18  21
ENDBRANCH  12  15
ENDBRANCH   1  11
BRANCH   8  25
HETATM   25  C   UNL     1      40.332  51.835  44.588  1.00  0.00     0.409 C 
HETATM   26  F   UNL     1      41.526  52.127  45.137  1.00  0.00    -0.169 F 
HETATM   27  F   UNL     1      39.497  51.493  45.598  1.00  0.00    -0.169 F 
HETATM   28  F   UNL     1      40.495  50.714  43.840  1.00  0.00    -0.169 F 
ENDBRANCH   8  25
BRANCH   6  29
HETATM   29  C   UNL     1      39.836  54.516  46.702  1.00  0.00     0.075 A 
HETATM   30  O   UNL     1      41.166  54.693  46.956  1.00  0.00    -0.325 OA
HETATM   31  C   UNL     1      41.384  54.288  48.233  1.00  0.00     0.142 A 
HETATM   32  C   UNL     1      40.213  53.854  48.809  1.00  0.00     0.027 A 
HETATM   33  C   UNL     1      39.210  54.007  47.823  1.00  0.00     0.037 A 
ENDBRANCH   6  29
TORSDOF 6
ENDMDL
