MODEL 1
REMARK VINA RESULT:      -8.8      0.000      0.000
REMARK  4 active torsions:
REMARK  status: ('A' for Active; 'I' for Inactive)
REMARK    1  A    between atoms: C_2  and  C_3 
REMARK    2  A    between atoms: C_4  and  C_5 
REMARK       I    between atoms: C_5  and  N_6 
REMARK    3  A    between atoms: N_6  and  C_7 
REMARK    4  A    between atoms: C_14  and  C_15 
REMARK       I    between atoms: C_15  and  N_16 
ROOT
HETATM    1  C   UNL     1      27.754  43.317  52.887  1.00  0.00     0.035 A 
HETATM    2  C   UNL     1      27.533  42.938  51.551  1.00  0.00     0.046 A 
HETATM    3  C   UNL     1      27.920  41.653  51.116  1.00  0.00     0.030 A 
HETATM    4  C   UNL     1      28.528  40.794  52.023  1.00  0.00     0.063 A 
HETATM    5  N   UNL     1      28.783  39.648  51.322  1.00  0.00    -0.277 N 
HETATM    6  H   UNL     1      29.224  38.804  51.669  1.00  0.00     0.189 HD
HETATM    7  N   UNL     1      28.386  39.682  50.038  1.00  0.00    -0.168 NA
HETATM    8  C   UNL     1      27.852  40.916  49.897  1.00  0.00     0.156 A 
HETATM    9  C   UNL     1      28.774  41.143  53.351  1.00  0.00     0.034 A 
HETATM   10  C   UNL     1      28.372  42.422  53.763  1.00  0.00     0.032 A 
ENDROOT
BRANCH   1  11
HETATM   11  N   UNL     1      27.333  44.610  53.259  1.00  0.00    -0.327 N 
HETATM   12  C   UNL     1      26.258  44.942  54.055  1.00  0.00     0.227 C 
HETATM   13  O   UNL     1      25.420  44.184  54.523  1.00  0.00    -0.273 OA
HETATM   14  H   UNL     1      27.852  45.381  52.858  1.00  0.00     0.169 HD
BRANCH  12  15
HETATM   15  C   UNL     1      26.075  46.406  54.259  1.00  0.00     0.087 A 
HETATM   16  C   UNL     1      26.899  47.191  55.267  1.00  0.00     0.032 A 
HETATM   17  C   UNL     1      27.050  47.448  53.784  1.00  0.00     0.025 A 
BRANCH  16  18
HETATM   18  C   UNL     1      28.084  46.630  56.022  1.00  0.00    -0.053 A 
HETATM   19  C   UNL     1      28.041  46.484  57.422  1.00  0.00     0.009 A 
HETATM   20  C   UNL     1      29.114  45.944  58.137  1.00  0.00     0.024 A 
HETATM   21  C   UNL     1      30.257  45.533  57.460  1.00  0.00     0.034 A 
HETATM   22  C   UNL     1      30.325  45.647  56.076  1.00  0.00     0.024 A 
HETATM   23 CL   UNL     1      31.582  44.874  58.335  1.00  0.00    -0.084 Cl
HETATM   24  C   UNL     1      29.242  46.177  55.368  1.00  0.00     0.009 A 
ENDBRANCH  16  18
ENDBRANCH  12  15
ENDBRANCH   1  11
BRANCH   8  25
HETATM   25  C   UNL     1      27.284  41.363  48.618  1.00  0.00     0.270 C 
HETATM   26  N   UNL     1      25.919  41.470  48.621  1.00  0.00    -0.365 N 
HETATM   27  H   UNL     1      25.418  41.247  49.473  1.00  0.00     0.159 HD
HETATM   28  H   UNL     1      25.438  41.779  47.792  1.00  0.00     0.159 HD
HETATM   29  O   UNL     1      27.946  41.629  47.621  1.00  0.00    -0.266 OA
ENDBRANCH   8  25
TORSDOF 4
ENDMDL
MODEL 2
REMARK VINA RESULT:      -8.5      3.512      7.660
REMARK  4 active torsions:
REMARK  status: ('A' for Active; 'I' for Inactive)
REMARK    1  A    between atoms: C_2  and  C_3 
REMARK    2  A    between atoms: C_4  and  C_5 
REMARK       I    between atoms: C_5  and  N_6 
REMARK    3  A    between atoms: N_6  and  C_7 
REMARK    4  A    between atoms: C_14  and  C_15 
REMARK       I    between atoms: C_15  and  N_16 
ROOT
HETATM    1  C   UNL     1      28.090  43.345  52.714  1.00  0.00     0.035 A 
HETATM    2  C   UNL     1      28.014  44.259  53.779  1.00  0.00     0.046 A 
HETATM    3  C   UNL     1      29.095  44.378  54.677  1.00  0.00     0.030 A 
HETATM    4  C   UNL     1      30.210  43.571  54.493  1.00  0.00     0.063 A 
HETATM    5  N   UNL     1      31.072  43.907  55.500  1.00  0.00    -0.277 N 
HETATM    6  H   UNL     1      31.990  43.515  55.676  1.00  0.00     0.189 HD
HETATM    7  N   UNL     1      30.619  44.871  56.320  1.00  0.00    -0.168 NA
HETATM    8  C   UNL     1      29.398  45.170  55.824  1.00  0.00     0.156 A 
HETATM    9  C   UNL     1      30.313  42.644  53.455  1.00  0.00     0.034 A 
HETATM   10  C   UNL     1      29.230  42.551  52.569  1.00  0.00     0.032 A 
ENDROOT
BRANCH   1  11
HETATM   11  N   UNL     1      26.980  43.285  51.846  1.00  0.00    -0.327 N 
HETATM   12  C   UNL     1      26.840  43.908  50.624  1.00  0.00     0.227 C 
HETATM   13  O   UNL     1      27.617  44.692  50.099  1.00  0.00    -0.273 OA
HETATM   14  H   UNL     1      26.180  42.764  52.181  1.00  0.00     0.169 HD
BRANCH  12  15
HETATM   15  C   UNL     1      25.538  43.648  49.950  1.00  0.00     0.087 A 
HETATM   16  C   UNL     1      25.311  42.425  49.076  1.00  0.00     0.032 A 
HETATM   17  C   UNL     1      24.566  42.584  50.383  1.00  0.00     0.025 A 
BRANCH  16  18
HETATM   18  C   UNL     1      26.288  41.278  48.942  1.00  0.00    -0.053 A 
HETATM   19  C   UNL     1      27.326  41.324  47.991  1.00  0.00     0.009 A 
HETATM   20  C   UNL     1      28.256  40.287  47.868  1.00  0.00     0.024 A 
HETATM   21  C   UNL     1      28.167  39.179  48.702  1.00  0.00     0.034 A 
HETATM   22  C   UNL     1      27.165  39.109  49.664  1.00  0.00     0.024 A 
HETATM   23 CL   UNL     1      29.304  37.898  48.551  1.00  0.00    -0.084 Cl
HETATM   24  C   UNL     1      26.246  40.156  49.787  1.00  0.00     0.009 A 
ENDBRANCH  16  18
ENDBRANCH  12  15
ENDBRANCH   1  11
BRANCH   8  25
HETATM   25  C   UNL     1      28.552  46.202  56.440  1.00  0.00     0.270 C 
HETATM   26  N   UNL     1      28.602  46.223  57.807  1.00  0.00    -0.365 N 
HETATM   27  H   UNL     1      29.201  45.555  58.280  1.00  0.00     0.159 HD
HETATM   28  H   UNL     1      28.063  46.902  58.320  1.00  0.00     0.159 HD
HETATM   29  O   UNL     1      27.854  46.992  55.812  1.00  0.00    -0.266 OA
ENDBRANCH   8  25
TORSDOF 4
ENDMDL
MODEL 3
REMARK VINA RESULT:      -8.4      3.649      5.136
REMARK  4 active torsions:
REMARK  status: ('A' for Active; 'I' for Inactive)
REMARK    1  A    between atoms: C_2  and  C_3 
REMARK    2  A    between atoms: C_4  and  C_5 
REMARK       I    between atoms: C_5  and  N_6 
REMARK    3  A    between atoms: N_6  and  C_7 
REMARK    4  A    between atoms: C_14  and  C_15 
REMARK       I    between atoms: C_15  and  N_16 
ROOT
HETATM    1  C   UNL     1      27.493  41.654  51.075  1.00  0.00     0.035 A 
HETATM    2  C   UNL     1      28.093  40.384  51.132  1.00  0.00     0.046 A 
HETATM    3  C   UNL     1      28.324  39.666  49.940  1.00  0.00     0.030 A 
HETATM    4  C   UNL     1      27.935  40.230  48.732  1.00  0.00     0.063 A 
HETATM    5  N   UNL     1      28.281  39.317  47.777  1.00  0.00    -0.277 N 
HETATM    6  H   UNL     1      28.144  39.397  46.775  1.00  0.00     0.189 HD
HETATM    7  N   UNL     1      28.871  38.208  48.256  1.00  0.00    -0.168 NA
HETATM    8  C   UNL     1      28.902  38.410  49.592  1.00  0.00     0.156 A 
HETATM    9  C   UNL     1      27.325  41.483  48.641  1.00  0.00     0.034 A 
HETATM   10  C   UNL     1      27.115  42.182  49.838  1.00  0.00     0.032 A 
ENDROOT
BRANCH   1  11
HETATM   11  N   UNL     1      27.302  42.323  52.302  1.00  0.00    -0.327 N 
HETATM   12  C   UNL     1      28.186  43.167  52.940  1.00  0.00     0.227 C 
HETATM   13  O   UNL     1      29.331  43.432  52.604  1.00  0.00    -0.273 OA
HETATM   14  H   UNL     1      26.438  42.123  52.789  1.00  0.00     0.169 HD
BRANCH  12  15
HETATM   15  C   UNL     1      27.686  43.716  54.231  1.00  0.00     0.087 A 
HETATM   16  C   UNL     1      26.740  44.904  54.292  1.00  0.00     0.032 A 
HETATM   17  C   UNL     1      26.280  43.532  54.733  1.00  0.00     0.025 A 
BRANCH  16  18
HETATM   18  C   UNL     1      26.077  45.530  53.084  1.00  0.00    -0.053 A 
HETATM   19  C   UNL     1      25.070  44.842  52.380  1.00  0.00     0.009 A 
HETATM   20  C   UNL     1      24.426  45.411  51.277  1.00  0.00     0.024 A 
HETATM   21  C   UNL     1      24.776  46.690  50.858  1.00  0.00     0.034 A 
HETATM   22  C   UNL     1      25.753  47.404  51.543  1.00  0.00     0.024 A 
HETATM   23 CL   UNL     1      23.991  47.393  49.499  1.00  0.00    -0.084 Cl
HETATM   24  C   UNL     1      26.384  46.830  52.652  1.00  0.00     0.009 A 
ENDBRANCH  16  18
ENDBRANCH  12  15
ENDBRANCH   1  11
BRANCH   8  25
HETATM   25  C   UNL     1      29.485  37.416  50.504  1.00  0.00     0.270 C 
HETATM   26  N   UNL     1      28.639  36.391  50.828  1.00  0.00    -0.365 N 
HETATM   27  H   UNL     1      27.708  36.387  50.427  1.00  0.00     0.159 HD
HETATM   28  H   UNL     1      28.951  35.655  51.441  1.00  0.00     0.159 HD
HETATM   29  O   UNL     1      30.626  37.470  50.950  1.00  0.00    -0.266 OA
ENDBRANCH   8  25
TORSDOF 4
ENDMDL
MODEL 4
REMARK VINA RESULT:      -8.2      9.289     11.600
REMARK  4 active torsions:
REMARK  status: ('A' for Active; 'I' for Inactive)
REMARK    1  A    between atoms: C_2  and  C_3 
REMARK    2  A    between atoms: C_4  and  C_5 
REMARK       I    between atoms: C_5  and  N_6 
REMARK    3  A    between atoms: N_6  and  C_7 
REMARK    4  A    between atoms: C_14  and  C_15 
REMARK       I    between atoms: C_15  and  N_16 
ROOT
HETATM    1  C   UNL     1      22.516  49.398  48.999  1.00  0.00     0.035 A 
HETATM    2  C   UNL     1      23.505  48.547  49.521  1.00  0.00     0.046 A 
HETATM    3  C   UNL     1      24.852  48.723  49.139  1.00  0.00     0.030 A 
HETATM    4  C   UNL     1      25.165  49.731  48.237  1.00  0.00     0.063 A 
HETATM    5  N   UNL     1      26.519  49.654  48.064  1.00  0.00    -0.277 N 
HETATM    6  H   UNL     1      27.094  50.240  47.469  1.00  0.00     0.189 HD
HETATM    7  N   UNL     1      27.117  48.688  48.782  1.00  0.00    -0.168 NA
HETATM    8  C   UNL     1      26.098  48.104  49.450  1.00  0.00     0.156 A 
HETATM    9  C   UNL     1      24.207  50.585  47.689  1.00  0.00     0.034 A 
HETATM   10  C   UNL     1      22.877  50.397  48.091  1.00  0.00     0.032 A 
ENDROOT
BRANCH   1  11
HETATM   11  N   UNL     1      21.192  49.176  49.431  1.00  0.00    -0.327 N 
HETATM   12  C   UNL     1      20.342  50.086  50.022  1.00  0.00     0.227 C 
HETATM   13  O   UNL     1      20.601  51.234  50.356  1.00  0.00    -0.273 OA
HETATM   14  H   UNL     1      20.845  48.230  49.338  1.00  0.00     0.169 HD
BRANCH  12  15
HETATM   15  C   UNL     1      19.001  49.538  50.368  1.00  0.00     0.087 A 
HETATM   16  C   UNL     1      17.860  49.502  49.364  1.00  0.00     0.032 A 
HETATM   17  C   UNL     1      18.480  48.218  49.869  1.00  0.00     0.025 A 
BRANCH  16  18
HETATM   18  C   UNL     1      18.003  49.840  47.897  1.00  0.00    -0.053 A 
HETATM   19  C   UNL     1      17.766  51.149  47.434  1.00  0.00     0.009 A 
HETATM   20  C   UNL     1      17.917  51.489  46.086  1.00  0.00     0.024 A 
HETATM   21  C   UNL     1      18.315  50.521  45.171  1.00  0.00     0.034 A 
HETATM   22  C   UNL     1      18.574  49.224  45.597  1.00  0.00     0.024 A 
HETATM   23 CL   UNL     1      18.497  50.933  43.511  1.00  0.00    -0.084 Cl
HETATM   24  C   UNL     1      18.431  48.895  46.949  1.00  0.00     0.009 A 
ENDBRANCH  16  18
ENDBRANCH  12  15
ENDBRANCH   1  11
BRANCH   8  25
HETATM   25  C   UNL     1      26.328  46.983  50.372  1.00  0.00     0.270 C 
HETATM   26  N   UNL     1      26.780  45.843  49.763  1.00  0.00    -0.365 N 
HETATM   27  H   UNL     1      26.925  45.855  48.760  1.00  0.00     0.159 HD
HETATM   28  H   UNL     1      26.976  45.023  50.314  1.00  0.00     0.159 HD
HETATM   29  O   UNL     1      26.144  47.032  51.583  1.00  0.00    -0.266 OA
ENDBRANCH   8  25
TORSDOF 4
ENDMDL
MODEL 5
REMARK VINA RESULT:      -8.2      7.506      9.322
REMARK  4 active torsions:
REMARK  status: ('A' for Active; 'I' for Inactive)
REMARK    1  A    between atoms: C_2  and  C_3 
REMARK    2  A    between atoms: C_4  and  C_5 
REMARK       I    between atoms: C_5  and  N_6 
REMARK    3  A    between atoms: N_6  and  C_7 
REMARK    4  A    between atoms: C_14  and  C_15 
REMARK       I    between atoms: C_15  and  N_16 
ROOT
HETATM    1  C   UNL     1      24.523  48.054  49.561  1.00  0.00     0.035 A 
HETATM    2  C   UNL     1      23.935  46.778  49.556  1.00  0.00     0.046 A 
HETATM    3  C   UNL     1      24.754  45.630  49.605  1.00  0.00     0.030 A 
HETATM    4  C   UNL     1      26.132  45.793  49.643  1.00  0.00     0.063 A 
HETATM    5  N   UNL     1      26.647  44.527  49.684  1.00  0.00    -0.277 N 
HETATM    6  H   UNL     1      27.625  44.265  49.717  1.00  0.00     0.189 HD
HETATM    7  N   UNL     1      25.722  43.552  49.685  1.00  0.00    -0.168 NA
HETATM    8  C   UNL     1      24.548  44.219  49.635  1.00  0.00     0.156 A 
HETATM    9  C   UNL     1      26.749  47.045  49.636  1.00  0.00     0.034 A 
HETATM   10  C   UNL     1      25.914  48.171  49.596  1.00  0.00     0.032 A 
ENDROOT
BRANCH   1  11
HETATM   11  N   UNL     1      23.646  49.159  49.523  1.00  0.00    -0.327 N 
HETATM   12  C   UNL     1      23.297  49.910  48.421  1.00  0.00     0.227 C 
HETATM   13  O   UNL     1      23.742  49.812  47.286  1.00  0.00    -0.273 OA
HETATM   14  H   UNL     1      23.269  49.459  50.412  1.00  0.00     0.169 HD
BRANCH  12  15
HETATM   15  C   UNL     1      22.346  51.018  48.712  1.00  0.00     0.087 A 
HETATM   16  C   UNL     1      20.841  50.844  48.589  1.00  0.00     0.032 A 
HETATM   17  C   UNL     1      21.480  51.081  49.940  1.00  0.00     0.025 A 
BRANCH  16  18
HETATM   18  C   UNL     1      20.152  49.520  48.342  1.00  0.00    -0.053 A 
HETATM   19  C   UNL     1      19.851  48.656  49.413  1.00  0.00     0.009 A 
HETATM   20  C   UNL     1      19.192  47.439  49.211  1.00  0.00     0.024 A 
HETATM   21  C   UNL     1      18.815  47.064  47.926  1.00  0.00     0.034 A 
HETATM   22  C   UNL     1      19.080  47.903  46.850  1.00  0.00     0.024 A 
HETATM   23 CL   UNL     1      18.009  45.566  47.671  1.00  0.00    -0.084 Cl
HETATM   24  C   UNL     1      19.730  49.123  47.063  1.00  0.00     0.009 A 
ENDBRANCH  16  18
ENDBRANCH  12  15
ENDBRANCH   1  11
BRANCH   8  25
HETATM   25  C   UNL     1      23.261  43.509  49.627  1.00  0.00     0.270 C 
HETATM   26  N   UNL     1      22.667  43.445  48.396  1.00  0.00    -0.365 N 
HETATM   27  H   UNL     1      23.140  43.870  47.607  1.00  0.00     0.159 HD
HETATM   28  H   UNL     1      21.785  42.970  48.288  1.00  0.00     0.159 HD
HETATM   29  O   UNL     1      22.742  43.005  50.617  1.00  0.00    -0.266 OA
ENDBRANCH   8  25
TORSDOF 4
ENDMDL
MODEL 6
REMARK VINA RESULT:      -8.0      2.042      2.804
REMARK  4 active torsions:
REMARK  status: ('A' for Active; 'I' for Inactive)
REMARK    1  A    between atoms: C_2  and  C_3 
REMARK    2  A    between atoms: C_4  and  C_5 
REMARK       I    between atoms: C_5  and  N_6 
REMARK    3  A    between atoms: N_6  and  C_7 
REMARK    4  A    between atoms: C_14  and  C_15 
REMARK       I    between atoms: C_15  and  N_16 
ROOT
HETATM    1  C   UNL     1      27.247  42.312  51.457  1.00  0.00     0.035 A 
HETATM    2  C   UNL     1      27.255  41.515  50.300  1.00  0.00     0.046 A 
HETATM    3  C   UNL     1      28.045  40.346  50.261  1.00  0.00     0.030 A 
HETATM    4  C   UNL     1      28.813  40.021  51.372  1.00  0.00     0.063 A 
HETATM    5  N   UNL     1      29.457  38.861  51.040  1.00  0.00    -0.277 N 
HETATM    6  H   UNL     1      30.104  38.335  51.616  1.00  0.00     0.189 HD
HETATM    7  N   UNL     1      29.168  38.397  49.812  1.00  0.00    -0.168 NA
HETATM    8  C   UNL     1      28.298  39.306  49.319  1.00  0.00     0.156 A 
HETATM    9  C   UNL     1      28.838  40.797  52.531  1.00  0.00     0.034 A 
HETATM   10  C   UNL     1      28.037  41.948  52.549  1.00  0.00     0.032 A 
ENDROOT
BRANCH   1  11
HETATM   11  N   UNL     1      26.426  43.459  51.433  1.00  0.00    -0.327 N 
HETATM   12  C   UNL     1      26.648  44.632  50.744  1.00  0.00     0.227 C 
HETATM   13  O   UNL     1      27.637  44.929  50.088  1.00  0.00    -0.273 OA
HETATM   14  H   UNL     1      25.606  43.433  52.026  1.00  0.00     0.169 HD
BRANCH  12  15
HETATM   15  C   UNL     1      25.589  45.662  50.929  1.00  0.00     0.087 A 
HETATM   16  C   UNL     1      25.407  46.408  52.241  1.00  0.00     0.032 A 
HETATM   17  C   UNL     1      25.858  47.140  50.996  1.00  0.00     0.025 A 
BRANCH  16  18
HETATM   18  C   UNL     1      26.363  46.323  53.410  1.00  0.00    -0.053 A 
HETATM   19  C   UNL     1      27.048  47.467  53.863  1.00  0.00     0.009 A 
HETATM   20  C   UNL     1      27.917  47.417  54.958  1.00  0.00     0.024 A 
HETATM   21  C   UNL     1      28.114  46.215  55.627  1.00  0.00     0.034 A 
HETATM   22  C   UNL     1      27.439  45.070  55.217  1.00  0.00     0.024 A 
HETATM   23 CL   UNL     1      29.185  46.146  56.971  1.00  0.00    -0.084 Cl
HETATM   24  C   UNL     1      26.564  45.132  54.128  1.00  0.00     0.009 A 
ENDBRANCH  16  18
ENDBRANCH  12  15
ENDBRANCH   1  11
BRANCH   8  25
HETATM   25  C   UNL     1      27.721  39.165  47.975  1.00  0.00     0.270 C 
HETATM   26  N   UNL     1      28.132  40.122  47.088  1.00  0.00    -0.365 N 
HETATM   27  H   UNL     1      28.784  40.830  47.406  1.00  0.00     0.159 HD
HETATM   28  H   UNL     1      27.797  40.104  46.137  1.00  0.00     0.159 HD
HETATM   29  O   UNL     1      26.941  38.278  47.645  1.00  0.00    -0.266 OA
ENDBRANCH   8  25
TORSDOF 4
ENDMDL
MODEL 7
REMARK VINA RESULT:      -7.8      2.932      4.623
REMARK  4 active torsions:
REMARK  status: ('A' for Active; 'I' for Inactive)
REMARK    1  A    between atoms: C_2  and  C_3 
REMARK    2  A    between atoms: C_4  and  C_5 
REMARK       I    between atoms: C_5  and  N_6 
REMARK    3  A    between atoms: N_6  and  C_7 
REMARK    4  A    between atoms: C_14  and  C_15 
REMARK       I    between atoms: C_15  and  N_16 
ROOT
HETATM    1  C   UNL     1      27.724  43.460  51.460  1.00  0.00     0.035 A 
HETATM    2  C   UNL     1      27.141  44.700  51.148  1.00  0.00     0.046 A 
HETATM    3  C   UNL     1      26.050  44.755  50.255  1.00  0.00     0.030 A 
HETATM    4  C   UNL     1      25.587  43.573  49.691  1.00  0.00     0.063 A 
HETATM    5  N   UNL     1      24.545  43.940  48.885  1.00  0.00    -0.277 N 
HETATM    6  H   UNL     1      23.970  43.331  48.314  1.00  0.00     0.189 HD
HETATM    7  N   UNL     1      24.283  45.258  48.882  1.00  0.00    -0.168 NA
HETATM    8  C   UNL     1      25.207  45.774  49.723  1.00  0.00     0.156 A 
HETATM    9  C   UNL     1      26.151  42.327  49.969  1.00  0.00     0.034 A 
HETATM   10  C   UNL     1      27.228  42.297  50.866  1.00  0.00     0.032 A 
ENDROOT
BRANCH   1  11
HETATM   11  N   UNL     1      28.803  43.475  52.368  1.00  0.00    -0.327 N 
HETATM   12  C   UNL     1      28.820  42.977  53.653  1.00  0.00     0.227 C 
HETATM   13  O   UNL     1      27.882  42.501  54.276  1.00  0.00    -0.273 OA
HETATM   14  H   UNL     1      29.643  43.945  52.055  1.00  0.00     0.169 HD
BRANCH  12  15
HETATM   15  C   UNL     1      30.120  43.150  54.361  1.00  0.00     0.087 A 
HETATM   16  C   UNL     1      30.424  44.380  55.201  1.00  0.00     0.032 A 
HETATM   17  C   UNL     1      30.289  43.019  55.849  1.00  0.00     0.025 A 
BRANCH  16  18
HETATM   18  C   UNL     1      29.411  45.446  55.552  1.00  0.00    -0.053 A 
HETATM   19  C   UNL     1      28.716  46.139  54.542  1.00  0.00     0.009 A 
HETATM   20  C   UNL     1      27.757  47.111  54.843  1.00  0.00     0.024 A 
HETATM   21  C   UNL     1      27.469  47.405  56.171  1.00  0.00     0.034 A 
HETATM   22  C   UNL     1      28.122  46.727  57.193  1.00  0.00     0.024 A 
HETATM   23 CL   UNL     1      26.293  48.603  56.549  1.00  0.00    -0.084 Cl
HETATM   24  C   UNL     1      29.073  45.749  56.882  1.00  0.00     0.009 A 
ENDBRANCH  16  18
ENDBRANCH  12  15
ENDBRANCH   1  11
BRANCH   8  25
HETATM   25  C   UNL     1      25.263  47.214  50.010  1.00  0.00     0.270 C 
HETATM   26  N   UNL     1      26.447  47.806  49.662  1.00  0.00    -0.365 N 
HETATM   27  H   UNL     1      27.170  47.234  49.242  1.00  0.00     0.159 HD
HETATM   28  H   UNL     1      26.577  48.794  49.812  1.00  0.00     0.159 HD
HETATM   29  O   UNL     1      24.348  47.857  50.513  1.00  0.00    -0.266 OA
ENDBRANCH   8  25
TORSDOF 4
ENDMDL
MODEL 8
REMARK VINA RESULT:      -7.8      2.570      3.633
REMARK  4 active torsions:
REMARK  status: ('A' for Active; 'I' for Inactive)
REMARK    1  A    between atoms: C_2  and  C_3 
REMARK    2  A    between atoms: C_4  and  C_5 
REMARK       I    between atoms: C_5  and  N_6 
REMARK    3  A    between atoms: N_6  and  C_7 
REMARK    4  A    between atoms: C_14  and  C_15 
REMARK       I    between atoms: C_15  and  N_16 
ROOT
HETATM    1  C   UNL     1      24.956  45.092  51.308  1.00  0.00     0.035 A 
HETATM    2  C   UNL     1      25.450  43.777  51.358  1.00  0.00     0.046 A 
HETATM    3  C   UNL     1      25.398  42.967  50.204  1.00  0.00     0.030 A 
HETATM    4  C   UNL     1      24.842  43.489  49.044  1.00  0.00     0.063 A 
HETATM    5  N   UNL     1      24.930  42.489  48.117  1.00  0.00    -0.277 N 
HETATM    6  H   UNL     1      24.618  42.519  47.153  1.00  0.00     0.189 HD
HETATM    7  N   UNL     1      25.504  41.361  48.569  1.00  0.00    -0.168 NA
HETATM    8  C   UNL     1      25.796  41.642  49.859  1.00  0.00     0.156 A 
HETATM    9  C   UNL     1      24.331  44.786  48.964  1.00  0.00     0.034 A 
HETATM   10  C   UNL     1      24.403  45.575  50.121  1.00  0.00     0.032 A 
ENDROOT
BRANCH   1  11
HETATM   11  N   UNL     1      25.050  45.852  52.493  1.00  0.00    -0.327 N 
HETATM   12  C   UNL     1      25.778  47.005  52.691  1.00  0.00     0.227 C 
HETATM   13  O   UNL     1      26.543  47.543  51.903  1.00  0.00    -0.273 OA
HETATM   14  H   UNL     1      24.564  45.481  53.299  1.00  0.00     0.169 HD
BRANCH  12  15
HETATM   15  C   UNL     1      25.671  47.569  54.065  1.00  0.00     0.087 A 
HETATM   16  C   UNL     1      26.450  46.996  55.237  1.00  0.00     0.032 A 
HETATM   17  C   UNL     1      26.748  48.387  54.723  1.00  0.00     0.025 A 
BRANCH  16  18
HETATM   18  C   UNL     1      27.525  45.939  55.112  1.00  0.00    -0.053 A 
HETATM   19  C   UNL     1      27.218  44.655  54.620  1.00  0.00     0.009 A 
HETATM   20  C   UNL     1      28.200  43.671  54.472  1.00  0.00     0.024 A 
HETATM   21  C   UNL     1      29.518  43.956  54.811  1.00  0.00     0.034 A 
HETATM   22  C   UNL     1      29.859  45.219  55.282  1.00  0.00     0.024 A 
HETATM   23 CL   UNL     1      30.730  42.748  54.636  1.00  0.00    -0.084 Cl
HETATM   24  C   UNL     1      28.872  46.200  55.417  1.00  0.00     0.009 A 
ENDBRANCH  16  18
ENDBRANCH  12  15
ENDBRANCH   1  11
BRANCH   8  25
HETATM   25  C   UNL     1      26.453  40.656  50.728  1.00  0.00     0.270 C 
HETATM   26  N   UNL     1      26.115  39.358  50.456  1.00  0.00    -0.365 N 
HETATM   27  H   UNL     1      25.467  39.176  49.699  1.00  0.00     0.159 HD
HETATM   28  H   UNL     1      26.522  38.609  50.993  1.00  0.00     0.159 HD
HETATM   29  O   UNL     1      27.240  40.939  51.626  1.00  0.00    -0.266 OA
ENDBRANCH   8  25
TORSDOF 4
ENDMDL
MODEL 9
REMARK VINA RESULT:      -7.8      3.427      7.056
REMARK  4 active torsions:
REMARK  status: ('A' for Active; 'I' for Inactive)
REMARK    1  A    between atoms: C_2  and  C_3 
REMARK    2  A    between atoms: C_4  and  C_5 
REMARK       I    between atoms: C_5  and  N_6 
REMARK    3  A    between atoms: N_6  and  C_7 
REMARK    4  A    between atoms: C_14  and  C_15 
REMARK       I    between atoms: C_15  and  N_16 
ROOT
HETATM    1  C   UNL     1      26.007  45.726  52.666  1.00  0.00     0.035 A 
HETATM    2  C   UNL     1      27.054  44.904  53.119  1.00  0.00     0.046 A 
HETATM    3  C   UNL     1      27.852  45.322  54.205  1.00  0.00     0.030 A 
HETATM    4  C   UNL     1      27.589  46.552  54.793  1.00  0.00     0.063 A 
HETATM    5  N   UNL     1      28.509  46.678  55.796  1.00  0.00    -0.277 N 
HETATM    6  H   UNL     1      28.614  47.457  56.436  1.00  0.00     0.189 HD
HETATM    7  N   UNL     1      29.344  45.631  55.920  1.00  0.00    -0.168 NA
HETATM    8  C   UNL     1      28.949  44.787  54.941  1.00  0.00     0.156 A 
HETATM    9  C   UNL     1      26.567  47.398  54.360  1.00  0.00     0.034 A 
HETATM   10  C   UNL     1      25.782  46.957  53.285  1.00  0.00     0.032 A 
ENDROOT
BRANCH   1  11
HETATM   11  N   UNL     1      25.241  45.243  51.585  1.00  0.00    -0.327 N 
HETATM   12  C   UNL     1      25.560  45.298  50.245  1.00  0.00     0.227 C 
HETATM   13  O   UNL     1      26.526  45.847  49.735  1.00  0.00    -0.273 OA
HETATM   14  H   UNL     1      24.337  44.854  51.818  1.00  0.00     0.169 HD
BRANCH  12  15
HETATM   15  C   UNL     1      24.534  44.699  49.346  1.00  0.00     0.087 A 
HETATM   16  C   UNL     1      24.659  43.283  48.807  1.00  0.00     0.032 A 
HETATM   17  C   UNL     1      23.555  43.642  49.777  1.00  0.00     0.025 A 
BRANCH  16  18
HETATM   18  C   UNL     1      25.711  42.291  49.252  1.00  0.00    -0.053 A 
HETATM   19  C   UNL     1      25.632  41.677  50.517  1.00  0.00     0.009 A 
HETATM   20  C   UNL     1      26.578  40.738  50.939  1.00  0.00     0.024 A 
HETATM   21  C   UNL     1      27.626  40.390  50.094  1.00  0.00     0.034 A 
HETATM   22  C   UNL     1      27.724  40.963  48.832  1.00  0.00     0.024 A 
HETATM   23 CL   UNL     1      28.797  39.239  50.610  1.00  0.00    -0.084 Cl
HETATM   24  C   UNL     1      26.767  41.893  48.414  1.00  0.00     0.009 A 
ENDBRANCH  16  18
ENDBRANCH  12  15
ENDBRANCH   1  11
BRANCH   8  25
HETATM   25  C   UNL     1      29.613  43.492  54.732  1.00  0.00     0.270 C 
HETATM   26  N   UNL     1      28.770  42.492  54.330  1.00  0.00    -0.365 N 
HETATM   27  H   UNL     1      27.788  42.707  54.203  1.00  0.00     0.159 HD
HETATM   28  H   UNL     1      29.134  41.569  54.152  1.00  0.00     0.159 HD
HETATM   29  O   UNL     1      30.812  43.294  54.893  1.00  0.00    -0.266 OA
ENDBRANCH   8  25
TORSDOF 4
ENDMDL
MODEL 10
REMARK VINA RESULT:      -7.7      3.754      7.260
REMARK  4 active torsions:
REMARK  status: ('A' for Active; 'I' for Inactive)
REMARK    1  A    between atoms: C_2  and  C_3 
REMARK    2  A    between atoms: C_4  and  C_5 
REMARK       I    between atoms: C_5  and  N_6 
REMARK    3  A    between atoms: N_6  and  C_7 
REMARK    4  A    between atoms: C_14  and  C_15 
REMARK       I    between atoms: C_15  and  N_16 
ROOT
HETATM    1  C   UNL     1      27.821  42.788  53.445  1.00  0.00     0.035 A 
HETATM    2  C   UNL     1      27.501  44.093  53.856  1.00  0.00     0.046 A 
HETATM    3  C   UNL     1      28.383  44.796  54.704  1.00  0.00     0.030 A 
HETATM    4  C   UNL     1      29.547  44.168  55.127  1.00  0.00     0.063 A 
HETATM    5  N   UNL     1      30.183  45.079  55.922  1.00  0.00    -0.277 N 
HETATM    6  H   UNL     1      31.066  44.960  56.405  1.00  0.00     0.189 HD
HETATM    7  N   UNL     1      29.538  46.253  56.048  1.00  0.00    -0.168 NA
HETATM    8  C   UNL     1      28.423  46.090  55.301  1.00  0.00     0.156 A 
HETATM    9  C   UNL     1      29.889  42.868  54.749  1.00  0.00     0.034 A 
HETATM   10  C   UNL     1      29.001  42.194  53.898  1.00  0.00     0.032 A 
ENDROOT
BRANCH   1  11
HETATM   11  N   UNL     1      26.902  42.147  52.588  1.00  0.00    -0.327 N 
HETATM   12  C   UNL     1      26.986  42.022  51.218  1.00  0.00     0.227 C 
HETATM   13  O   UNL     1      27.829  42.510  50.479  1.00  0.00    -0.273 OA
HETATM   14  H   UNL     1      26.067  41.780  53.025  1.00  0.00     0.169 HD
BRANCH  12  15
HETATM   15  C   UNL     1      25.847  41.288  50.599  1.00  0.00     0.087 A 
HETATM   16  C   UNL     1      24.595  42.000  50.113  1.00  0.00     0.032 A 
HETATM   17  C   UNL     1      25.524  41.323  49.130  1.00  0.00     0.025 A 
BRANCH  16  18
HETATM   18  C   UNL     1      24.443  43.504  50.039  1.00  0.00    -0.053 A 
HETATM   19  C   UNL     1      23.962  44.121  48.868  1.00  0.00     0.009 A 
HETATM   20  C   UNL     1      23.789  45.506  48.785  1.00  0.00     0.024 A 
HETATM   21  C   UNL     1      24.093  46.305  49.882  1.00  0.00     0.034 A 
HETATM   22  C   UNL     1      24.553  45.726  51.059  1.00  0.00     0.024 A 
HETATM   23 CL   UNL     1      23.888  48.010  49.784  1.00  0.00    -0.084 Cl
HETATM   24  C   UNL     1      24.712  44.339  51.136  1.00  0.00     0.009 A 
ENDBRANCH  16  18
ENDBRANCH  12  15
ENDBRANCH   1  11
BRANCH   8  25
HETATM   25  C   UNL     1      27.430  47.164  55.163  1.00  0.00     0.270 C 
HETATM   26  N   UNL     1      27.106  47.462  53.868  1.00  0.00    -0.365 N 
HETATM   27  H   UNL     1      27.551  46.936  53.124  1.00  0.00     0.159 HD
HETATM   28  H   UNL     1      26.426  48.178  53.671  1.00  0.00     0.159 HD
HETATM   29  O   UNL     1      26.916  47.758  56.105  1.00  0.00    -0.266 OA
ENDBRANCH   8  25
TORSDOF 4
ENDMDL
