MODEL 1
REMARK VINA RESULT:      -8.6      0.000      0.000
REMARK  3 active torsions:
REMARK  status: ('A' for Active; 'I' for Inactive)
REMARK    1  A    between atoms: C_4  and  N_5 
REMARK       I    between atoms: N_5  and  C_6 
REMARK    2  A    between atoms: C_6  and  C_7 
REMARK    3  A    between atoms: C_7  and  C_8 
ROOT
HETATM    1  C   UNL     1      26.577  46.331  54.166  1.00  0.00     0.286 C 
HETATM    2  N   UNL     1      27.592  45.399  53.507  1.00  0.00    -0.056 N 
HETATM    3  H   UNL     1      27.044  44.728  52.928  1.00  0.00     0.278 HD
HETATM    4  H   UNL     1      28.188  45.921  52.853  1.00  0.00     0.278 HD
HETATM    5  C   UNL     1      28.400  44.683  54.545  1.00  0.00     0.209 C 
HETATM    6  C   UNL     1      29.176  45.741  55.364  1.00  0.00     0.115 C 
HETATM    7  N   UNL     1      28.304  46.788  55.892  1.00  0.00    -0.353 N 
HETATM    8  C   UNL     1      27.251  47.302  55.160  1.00  0.00     0.249 C 
HETATM    9  O   UNL     1      26.847  48.439  55.368  1.00  0.00    -0.271 OA
HETATM   10  C   UNL     1      29.351  43.689  53.894  1.00  0.00     0.035 C 
HETATM   11  C   UNL     1      30.190  42.995  54.970  1.00  0.00     0.002 C 
HETATM   12  C   UNL     1      30.917  43.992  55.876  1.00  0.00     0.002 C 
HETATM   13  C   UNL     1      29.980  45.050  56.465  1.00  0.00     0.027 C 
HETATM   14  H   UNL     1      28.720  47.483  56.511  1.00  0.00     0.163 HD
ENDROOT
BRANCH   1  15
HETATM   15  C   UNL     1      25.738  47.072  53.120  1.00  0.00     0.146 C 
BRANCH  15  16
HETATM   16  C   UNL     1      25.207  46.090  52.106  1.00  0.00     0.224 C 
HETATM   17  N   UNL     1      25.089  46.392  50.788  1.00  0.00    -0.327 N 
HETATM   18  H   UNL     1      24.584  45.672  50.277  1.00  0.00     0.169 HD
HETATM   19  O   UNL     1      24.856  44.968  52.500  1.00  0.00    -0.273 OA
BRANCH  17  20
HETATM   20  C   UNL     1      25.482  47.500  50.014  1.00  0.00     0.034 A 
HETATM   21  C   UNL     1      26.800  47.855  49.726  1.00  0.00     0.029 A 
HETATM   22  C   UNL     1      27.075  48.984  48.945  1.00  0.00     0.002 A 
HETATM   23  C   UNL     1      26.038  49.761  48.436  1.00  0.00     0.000 A 
HETATM   24  C   UNL     1      24.720  49.400  48.693  1.00  0.00     0.002 A 
HETATM   25  C   UNL     1      24.445  48.271  49.469  1.00  0.00     0.029 A 
ENDBRANCH  17  20
ENDBRANCH  15  16
ENDBRANCH   1  15
TORSDOF 3
ENDMDL
MODEL 2
REMARK VINA RESULT:      -8.2      3.569      6.994
REMARK  3 active torsions:
REMARK  status: ('A' for Active; 'I' for Inactive)
REMARK    1  A    between atoms: C_4  and  N_5 
REMARK       I    between atoms: N_5  and  C_6 
REMARK    2  A    between atoms: C_6  and  C_7 
REMARK    3  A    between atoms: C_7  and  C_8 
ROOT
HETATM    1  C   UNL     1      26.988  43.937  53.273  1.00  0.00     0.286 C 
HETATM    2  N   UNL     1      27.676  42.573  53.247  1.00  0.00    -0.056 N 
HETATM    3  H   UNL     1      28.646  42.726  53.596  1.00  0.00     0.278 HD
HETATM    4  H   UNL     1      27.230  41.932  53.914  1.00  0.00     0.278 HD
HETATM    5  C   UNL     1      27.682  42.013  51.858  1.00  0.00     0.209 C 
HETATM    6  C   UNL     1      26.214  41.823  51.410  1.00  0.00     0.115 C 
HETATM    7  N   UNL     1      25.420  43.039  51.569  1.00  0.00    -0.353 N 
HETATM    8  C   UNL     1      25.574  43.878  52.656  1.00  0.00     0.249 C 
HETATM    9  O   UNL     1      24.645  44.580  53.035  1.00  0.00    -0.271 OA
HETATM   10  C   UNL     1      28.443  40.696  51.813  1.00  0.00     0.035 C 
HETATM   11  C   UNL     1      28.407  40.126  50.392  1.00  0.00     0.002 C 
HETATM   12  C   UNL     1      26.980  39.995  49.853  1.00  0.00     0.002 C 
HETATM   13  C   UNL     1      26.178  41.294  49.976  1.00  0.00     0.027 C 
HETATM   14  H   UNL     1      24.461  43.027  51.224  1.00  0.00     0.163 HD
ENDROOT
BRANCH   1  15
HETATM   15  C   UNL     1      26.973  44.528  54.686  1.00  0.00     0.146 C 
BRANCH  15  16
HETATM   16  C   UNL     1      27.659  45.871  54.683  1.00  0.00     0.224 C 
HETATM   17  N   UNL     1      28.833  46.094  55.324  1.00  0.00    -0.327 N 
HETATM   18  H   UNL     1      29.077  47.081  55.340  1.00  0.00     0.169 HD
HETATM   19  O   UNL     1      27.117  46.808  54.078  1.00  0.00    -0.273 OA
BRANCH  17  20
HETATM   20  C   UNL     1      29.740  45.252  55.996  1.00  0.00     0.034 A 
HETATM   21  C   UNL     1      30.344  44.119  55.450  1.00  0.00     0.029 A 
HETATM   22  C   UNL     1      31.231  43.351  56.213  1.00  0.00     0.002 A 
HETATM   23  C   UNL     1      31.532  43.714  57.523  1.00  0.00     0.000 A 
HETATM   24  C   UNL     1      30.959  44.857  58.068  1.00  0.00     0.002 A 
HETATM   25  C   UNL     1      30.077  45.626  57.305  1.00  0.00     0.029 A 
ENDBRANCH  17  20
ENDBRANCH  15  16
ENDBRANCH   1  15
TORSDOF 3
ENDMDL
MODEL 3
REMARK VINA RESULT:      -8.0      2.259      3.573
REMARK  3 active torsions:
REMARK  status: ('A' for Active; 'I' for Inactive)
REMARK    1  A    between atoms: C_4  and  N_5 
REMARK       I    between atoms: N_5  and  C_6 
REMARK    2  A    between atoms: C_6  and  C_7 
REMARK    3  A    between atoms: C_7  and  C_8 
ROOT
HETATM    1  C   UNL     1      26.859  44.242  50.389  1.00  0.00     0.286 C 
HETATM    2  N   UNL     1      26.836  44.617  51.870  1.00  0.00    -0.056 N 
HETATM    3  H   UNL     1      26.740  45.654  51.910  1.00  0.00     0.278 HD
HETATM    4  H   UNL     1      25.998  44.235  52.325  1.00  0.00     0.278 HD
HETATM    5  C   UNL     1      28.092  44.163  52.547  1.00  0.00     0.209 C 
HETATM    6  C   UNL     1      28.166  42.622  52.439  1.00  0.00     0.115 C 
HETATM    7  N   UNL     1      28.015  42.150  51.065  1.00  0.00    -0.353 N 
HETATM    8  C   UNL     1      27.126  42.736  50.183  1.00  0.00     0.249 C 
HETATM    9  O   UNL     1      26.658  42.090  49.255  1.00  0.00    -0.271 OA
HETATM   10  C   UNL     1      28.112  44.611  54.001  1.00  0.00     0.035 C 
HETATM   11  C   UNL     1      29.387  44.107  54.681  1.00  0.00     0.002 C 
HETATM   12  C   UNL     1      29.567  42.594  54.534  1.00  0.00     0.002 C 
HETATM   13  C   UNL     1      29.461  42.123  53.081  1.00  0.00     0.027 C 
HETATM   14  H   UNL     1      28.130  41.152  50.891  1.00  0.00     0.163 HD
ENDROOT
BRANCH   1  15
HETATM   15  C   UNL     1      25.582  44.700  49.678  1.00  0.00     0.146 C 
BRANCH  15  16
HETATM   16  C   UNL     1      24.717  45.478  50.638  1.00  0.00     0.224 C 
HETATM   17  N   UNL     1      24.717  46.834  50.686  1.00  0.00    -0.327 N 
HETATM   18  H   UNL     1      24.189  47.186  51.481  1.00  0.00     0.169 HD
HETATM   19  O   UNL     1      23.989  44.849  51.418  1.00  0.00    -0.273 OA
BRANCH  17  20
HETATM   20  C   UNL     1      25.325  47.828  49.896  1.00  0.00     0.034 A 
HETATM   21  C   UNL     1      26.700  48.031  49.774  1.00  0.00     0.029 A 
HETATM   22  C   UNL     1      27.196  49.055  48.960  1.00  0.00     0.002 A 
HETATM   23  C   UNL     1      26.325  49.878  48.251  1.00  0.00     0.000 A 
HETATM   24  C   UNL     1      24.954  49.667  48.341  1.00  0.00     0.002 A 
HETATM   25  C   UNL     1      24.459  48.642  49.151  1.00  0.00     0.029 A 
ENDBRANCH  17  20
ENDBRANCH  15  16
ENDBRANCH   1  15
TORSDOF 3
ENDMDL
MODEL 4
REMARK VINA RESULT:      -7.9      3.478      7.509
REMARK  3 active torsions:
REMARK  status: ('A' for Active; 'I' for Inactive)
REMARK    1  A    between atoms: C_4  and  N_5 
REMARK       I    between atoms: N_5  and  C_6 
REMARK    2  A    between atoms: C_6  and  C_7 
REMARK    3  A    between atoms: C_7  and  C_8 
ROOT
HETATM    1  C   UNL     1      27.225  43.363  52.980  1.00  0.00     0.286 C 
HETATM    2  N   UNL     1      26.711  42.184  52.155  1.00  0.00    -0.056 N 
HETATM    3  H   UNL     1      27.550  41.638  51.866  1.00  0.00     0.278 HD
HETATM    4  H   UNL     1      26.147  41.555  52.739  1.00  0.00     0.278 HD
HETATM    5  C   UNL     1      25.945  42.671  50.963  1.00  0.00     0.209 C 
HETATM    6  C   UNL     1      24.725  43.475  51.472  1.00  0.00     0.115 C 
HETATM    7  N   UNL     1      25.102  44.523  52.418  1.00  0.00    -0.353 N 
HETATM    8  C   UNL     1      26.088  44.332  53.368  1.00  0.00     0.249 C 
HETATM    9  O   UNL     1      26.074  44.969  54.413  1.00  0.00    -0.271 OA
HETATM   10  C   UNL     1      25.507  41.503  50.093  1.00  0.00     0.035 C 
HETATM   11  C   UNL     1      24.697  42.021  48.901  1.00  0.00     0.002 C 
HETATM   12  C   UNL     1      23.522  42.901  49.333  1.00  0.00     0.002 C 
HETATM   13  C   UNL     1      23.942  44.028  50.281  1.00  0.00     0.027 C 
HETATM   14  H   UNL     1      24.370  45.153  52.742  1.00  0.00     0.163 HD
ENDROOT
BRANCH   1  15
HETATM   15  C   UNL     1      28.014  42.885  54.204  1.00  0.00     0.146 C 
BRANCH  15  16
HETATM   16  C   UNL     1      29.466  42.716  53.838  1.00  0.00     0.224 C 
HETATM   17  N   UNL     1      30.469  43.312  54.531  1.00  0.00    -0.327 N 
HETATM   18  H   UNL     1      31.367  43.208  54.065  1.00  0.00     0.169 HD
HETATM   19  O   UNL     1      29.749  42.012  52.857  1.00  0.00    -0.273 OA
BRANCH  17  20
HETATM   20  C   UNL     1      30.505  44.066  55.719  1.00  0.00     0.034 A 
HETATM   21  C   UNL     1      29.769  45.227  55.958  1.00  0.00     0.029 A 
HETATM   22  C   UNL     1      29.885  45.901  57.180  1.00  0.00     0.002 A 
HETATM   23  C   UNL     1      30.726  45.415  58.177  1.00  0.00     0.000 A 
HETATM   24  C   UNL     1      31.442  44.243  57.961  1.00  0.00     0.002 A 
HETATM   25  C   UNL     1      31.324  43.569  56.743  1.00  0.00     0.029 A 
ENDBRANCH  17  20
ENDBRANCH  15  16
ENDBRANCH   1  15
TORSDOF 3
ENDMDL
MODEL 5
REMARK VINA RESULT:      -7.9      4.235      7.368
REMARK  3 active torsions:
REMARK  status: ('A' for Active; 'I' for Inactive)
REMARK    1  A    between atoms: C_4  and  N_5 
REMARK       I    between atoms: N_5  and  C_6 
REMARK    2  A    between atoms: C_6  and  C_7 
REMARK    3  A    between atoms: C_7  and  C_8 
ROOT
HETATM    1  C   UNL     1      27.535  42.079  53.402  1.00  0.00     0.286 C 
HETATM    2  N   UNL     1      26.546  42.311  52.260  1.00  0.00    -0.056 N 
HETATM    3  H   UNL     1      25.596  42.310  52.688  1.00  0.00     0.278 HD
HETATM    4  H   UNL     1      26.677  43.246  51.855  1.00  0.00     0.278 HD
HETATM    5  C   UNL     1      26.675  41.235  51.226  1.00  0.00     0.209 C 
HETATM    6  C   UNL     1      28.108  41.296  50.646  1.00  0.00     0.115 C 
HETATM    7  N   UNL     1      29.133  41.261  51.686  1.00  0.00    -0.353 N 
HETATM    8  C   UNL     1      28.982  41.929  52.886  1.00  0.00     0.249 C 
HETATM    9  O   UNL     1      29.963  42.297  53.518  1.00  0.00    -0.271 OA
HETATM   10  C   UNL     1      25.633  41.414  50.131  1.00  0.00     0.035 C 
HETATM   11  C   UNL     1      25.806  40.325  49.069  1.00  0.00     0.002 C 
HETATM   12  C   UNL     1      27.232  40.272  48.515  1.00  0.00     0.002 C 
HETATM   13  C   UNL     1      28.293  40.180  49.616  1.00  0.00     0.027 C 
HETATM   14  H   UNL     1      30.107  41.216  51.388  1.00  0.00     0.163 HD
ENDROOT
BRANCH   1  15
HETATM   15  C   UNL     1      27.417  43.169  54.472  1.00  0.00     0.146 C 
BRANCH  15  16
HETATM   16  C   UNL     1      27.912  44.481  53.917  1.00  0.00     0.224 C 
HETATM   17  N   UNL     1      28.815  45.256  54.569  1.00  0.00    -0.327 N 
HETATM   18  H   UNL     1      28.927  46.164  54.126  1.00  0.00     0.169 HD
HETATM   19  O   UNL     1      27.465  44.866  52.827  1.00  0.00    -0.273 OA
BRANCH  17  20
HETATM   20  C   UNL     1      29.578  45.072  55.737  1.00  0.00     0.034 A 
HETATM   21  C   UNL     1      30.646  44.184  55.870  1.00  0.00     0.029 A 
HETATM   22  C   UNL     1      31.335  44.080  57.084  1.00  0.00     0.002 A 
HETATM   23  C   UNL     1      30.972  44.870  58.172  1.00  0.00     0.000 A 
HETATM   24  C   UNL     1      29.929  45.779  58.043  1.00  0.00     0.002 A 
HETATM   25  C   UNL     1      29.243  45.885  56.830  1.00  0.00     0.029 A 
ENDBRANCH  17  20
ENDBRANCH  15  16
ENDBRANCH   1  15
TORSDOF 3
ENDMDL
MODEL 6
REMARK VINA RESULT:      -7.8      3.017      4.453
REMARK  3 active torsions:
REMARK  status: ('A' for Active; 'I' for Inactive)
REMARK    1  A    between atoms: C_4  and  N_5 
REMARK       I    between atoms: N_5  and  C_6 
REMARK    2  A    between atoms: C_6  and  C_7 
REMARK    3  A    between atoms: C_7  and  C_8 
ROOT
HETATM    1  C   UNL     1      27.115  44.740  53.376  1.00  0.00     0.286 C 
HETATM    2  N   UNL     1      28.502  44.099  53.352  1.00  0.00    -0.056 N 
HETATM    3  H   UNL     1      28.382  43.151  52.937  1.00  0.00     0.278 HD
HETATM    4  H   UNL     1      29.125  44.612  52.716  1.00  0.00     0.278 HD
HETATM    5  C   UNL     1      29.067  44.016  54.736  1.00  0.00     0.209 C 
HETATM    6  C   UNL     1      29.209  45.455  55.284  1.00  0.00     0.115 C 
HETATM    7  N   UNL     1      27.966  46.216  55.183  1.00  0.00    -0.353 N 
HETATM    8  C   UNL     1      27.129  46.108  54.089  1.00  0.00     0.249 C 
HETATM    9  O   UNL     1      26.393  47.036  53.778  1.00  0.00    -0.271 OA
HETATM   10  C   UNL     1      30.410  43.300  54.727  1.00  0.00     0.035 C 
HETATM   11  C   UNL     1      30.985  43.257  56.145  1.00  0.00     0.002 C 
HETATM   12  C   UNL     1      31.068  44.647  56.782  1.00  0.00     0.002 C 
HETATM   13  C   UNL     1      29.742  45.410  56.717  1.00  0.00     0.027 C 
HETATM   14  H   UNL     1      27.947  47.148  55.594  1.00  0.00     0.163 HD
ENDROOT
BRANCH   1  15
HETATM   15  C   UNL     1      26.519  44.832  51.968  1.00  0.00     0.146 C 
BRANCH  15  16
HETATM   16  C   UNL     1      25.297  43.953  51.875  1.00  0.00     0.224 C 
HETATM   17  N   UNL     1      25.314  42.739  51.268  1.00  0.00    -0.327 N 
HETATM   18  H   UNL     1      24.380  42.350  51.171  1.00  0.00     0.169 HD
HETATM   19  O   UNL     1      24.235  44.365  52.365  1.00  0.00    -0.273 OA
BRANCH  17  20
HETATM   20  C   UNL     1      26.343  41.950  50.720  1.00  0.00     0.034 A 
HETATM   21  C   UNL     1      27.199  41.124  51.448  1.00  0.00     0.029 A 
HETATM   22  C   UNL     1      28.193  40.383  50.797  1.00  0.00     0.002 A 
HETATM   23  C   UNL     1      28.332  40.451  49.413  1.00  0.00     0.000 A 
HETATM   24  C   UNL     1      27.466  41.248  48.674  1.00  0.00     0.002 A 
HETATM   25  C   UNL     1      26.471  41.985  49.324  1.00  0.00     0.029 A 
ENDBRANCH  17  20
ENDBRANCH  15  16
ENDBRANCH   1  15
TORSDOF 3
ENDMDL
MODEL 7
REMARK VINA RESULT:      -7.7      2.988      4.076
REMARK  3 active torsions:
REMARK  status: ('A' for Active; 'I' for Inactive)
REMARK    1  A    between atoms: C_4  and  N_5 
REMARK       I    between atoms: N_5  and  C_6 
REMARK    2  A    between atoms: C_6  and  C_7 
REMARK    3  A    between atoms: C_7  and  C_8 
ROOT
HETATM    1  C   UNL     1      27.759  42.915  51.943  1.00  0.00     0.286 C 
HETATM    2  N   UNL     1      27.380  43.841  53.097  1.00  0.00    -0.056 N 
HETATM    3  H   UNL     1      26.851  44.635  52.676  1.00  0.00     0.278 HD
HETATM    4  H   UNL     1      26.728  43.371  53.737  1.00  0.00     0.278 HD
HETATM    5  C   UNL     1      28.606  44.324  53.809  1.00  0.00     0.209 C 
HETATM    6  C   UNL     1      29.336  43.093  54.396  1.00  0.00     0.115 C 
HETATM    7  N   UNL     1      29.586  42.061  53.393  1.00  0.00    -0.353 N 
HETATM    8  C   UNL     1      28.662  41.754  52.412  1.00  0.00     0.249 C 
HETATM    9  O   UNL     1      28.639  40.638  51.909  1.00  0.00    -0.271 OA
HETATM   10  C   UNL     1      28.237  45.315  54.903  1.00  0.00     0.035 C 
HETATM   11  C   UNL     1      29.501  45.768  55.639  1.00  0.00     0.002 C 
HETATM   12  C   UNL     1      30.320  44.589  56.170  1.00  0.00     0.002 C 
HETATM   13  C   UNL     1      30.620  43.542  55.094  1.00  0.00     0.027 C 
HETATM   14  H   UNL     1      30.133  41.249  53.676  1.00  0.00     0.163 HD
ENDROOT
BRANCH   1  15
HETATM   15  C   UNL     1      26.517  42.411  51.200  1.00  0.00     0.146 C 
BRANCH  15  16
HETATM   16  C   UNL     1      26.722  42.552  49.713  1.00  0.00     0.224 C 
HETATM   17  N   UNL     1      26.332  43.653  49.022  1.00  0.00    -0.327 N 
HETATM   18  H   UNL     1      26.415  43.521  48.018  1.00  0.00     0.169 HD
HETATM   19  O   UNL     1      27.259  41.617  49.101  1.00  0.00    -0.273 OA
BRANCH  17  20
HETATM   20  C   UNL     1      25.806  44.899  49.411  1.00  0.00     0.034 A 
HETATM   21  C   UNL     1      24.448  45.215  49.477  1.00  0.00     0.029 A 
HETATM   22  C   UNL     1      24.036  46.492  49.876  1.00  0.00     0.002 A 
HETATM   23  C   UNL     1      24.974  47.460  50.223  1.00  0.00     0.000 A 
HETATM   24  C   UNL     1      26.328  47.148  50.190  1.00  0.00     0.002 A 
HETATM   25  C   UNL     1      26.739  45.872  49.795  1.00  0.00     0.029 A 
ENDBRANCH  17  20
ENDBRANCH  15  16
ENDBRANCH   1  15
TORSDOF 3
ENDMDL
MODEL 8
REMARK VINA RESULT:      -7.7      1.425      7.597
REMARK  3 active torsions:
REMARK  status: ('A' for Active; 'I' for Inactive)
REMARK    1  A    between atoms: C_4  and  N_5 
REMARK       I    between atoms: N_5  and  C_6 
REMARK    2  A    between atoms: C_6  and  C_7 
REMARK    3  A    between atoms: C_7  and  C_8 
ROOT
HETATM    1  C   UNL     1      25.215  46.114  51.974  1.00  0.00     0.286 C 
HETATM    2  N   UNL     1      25.516  47.162  50.903  1.00  0.00    -0.056 N 
HETATM    3  H   UNL     1      25.939  47.975  51.398  1.00  0.00     0.278 HD
HETATM    4  H   UNL     1      26.234  46.817  50.254  1.00  0.00     0.278 HD
HETATM    5  C   UNL     1      24.262  47.555  50.186  1.00  0.00     0.209 C 
HETATM    6  C   UNL     1      23.693  46.299  49.487  1.00  0.00     0.115 C 
HETATM    7  N   UNL     1      23.537  45.172  50.405  1.00  0.00    -0.353 N 
HETATM    8  C   UNL     1      24.464  44.898  51.392  1.00  0.00     0.249 C 
HETATM    9  O   UNL     1      24.601  43.757  51.815  1.00  0.00    -0.271 OA
HETATM   10  C   UNL     1      24.543  48.661  49.179  1.00  0.00     0.035 C 
HETATM   11  C   UNL     1      23.256  49.024  48.435  1.00  0.00     0.002 C 
HETATM   12  C   UNL     1      22.591  47.804  47.792  1.00  0.00     0.002 C 
HETATM   13  C   UNL     1      22.384  46.652  48.780  1.00  0.00     0.027 C 
HETATM   14  H   UNL     1      23.093  44.328  50.046  1.00  0.00     0.163 HD
ENDROOT
BRANCH   1  15
HETATM   15  C   UNL     1      26.487  45.699  52.721  1.00  0.00     0.146 C 
BRANCH  15  16
HETATM   16  C   UNL     1      26.512  46.348  54.082  1.00  0.00     0.224 C 
HETATM   17  N   UNL     1      27.360  45.952  55.065  1.00  0.00    -0.327 N 
HETATM   18  H   UNL     1      27.144  46.396  55.954  1.00  0.00     0.169 HD
HETATM   19  O   UNL     1      25.716  47.270  54.310  1.00  0.00    -0.273 OA
BRANCH  17  20
HETATM   20  C   UNL     1      28.428  45.037  55.106  1.00  0.00     0.034 A 
HETATM   21  C   UNL     1      28.463  43.809  54.443  1.00  0.00     0.029 A 
HETATM   22  C   UNL     1      29.580  42.973  54.558  1.00  0.00     0.002 A 
HETATM   23  C   UNL     1      30.675  43.360  55.326  1.00  0.00     0.000 A 
HETATM   24  C   UNL     1      30.664  44.593  55.967  1.00  0.00     0.002 A 
HETATM   25  C   UNL     1      29.551  45.429  55.850  1.00  0.00     0.029 A 
ENDBRANCH  17  20
ENDBRANCH  15  16
ENDBRANCH   1  15
TORSDOF 3
ENDMDL
MODEL 9
REMARK VINA RESULT:      -7.6      2.473      7.818
REMARK  3 active torsions:
REMARK  status: ('A' for Active; 'I' for Inactive)
REMARK    1  A    between atoms: C_4  and  N_5 
REMARK       I    between atoms: N_5  and  C_6 
REMARK    2  A    between atoms: C_6  and  C_7 
REMARK    3  A    between atoms: C_7  and  C_8 
ROOT
HETATM    1  C   UNL     1      25.272  47.155  49.813  1.00  0.00     0.286 C 
HETATM    2  N   UNL     1      23.804  47.479  50.089  1.00  0.00    -0.056 N 
HETATM    3  H   UNL     1      23.319  46.565  50.210  1.00  0.00     0.278 HD
HETATM    4  H   UNL     1      23.707  47.975  50.983  1.00  0.00     0.278 HD
HETATM    5  C   UNL     1      23.216  48.259  48.954  1.00  0.00     0.209 C 
HETATM    6  C   UNL     1      23.991  49.592  48.833  1.00  0.00     0.115 C 
HETATM    7  N   UNL     1      25.435  49.391  48.744  1.00  0.00    -0.353 N 
HETATM    8  C   UNL     1      26.087  48.424  49.485  1.00  0.00     0.249 C 
HETATM    9  O   UNL     1      27.268  48.560  49.780  1.00  0.00    -0.271 OA
HETATM   10  C   UNL     1      21.732  48.507  49.185  1.00  0.00     0.035 C 
HETATM   11  C   UNL     1      21.159  49.334  48.031  1.00  0.00     0.002 C 
HETATM   12  C   UNL     1      21.940  50.630  47.800  1.00  0.00     0.002 C 
HETATM   13  C   UNL     1      23.446  50.397  47.653  1.00  0.00     0.027 C 
HETATM   14  H   UNL     1      26.017  50.212  48.582  1.00  0.00     0.163 HD
ENDROOT
BRANCH   1  15
HETATM   15  C   UNL     1      25.893  46.355  50.963  1.00  0.00     0.146 C 
BRANCH  15  16
HETATM   16  C   UNL     1      25.478  44.910  50.858  1.00  0.00     0.224 C 
HETATM   17  N   UNL     1      26.132  43.913  51.506  1.00  0.00    -0.327 N 
HETATM   18  H   UNL     1      25.812  42.994  51.211  1.00  0.00     0.169 HD
HETATM   19  O   UNL     1      24.507  44.625  50.141  1.00  0.00    -0.273 OA
BRANCH  17  20
HETATM   20  C   UNL     1      27.174  43.899  52.452  1.00  0.00     0.034 A 
HETATM   21  C   UNL     1      27.084  44.385  53.756  1.00  0.00     0.029 A 
HETATM   22  C   UNL     1      28.189  44.324  54.614  1.00  0.00     0.002 A 
HETATM   23  C   UNL     1      29.388  43.765  54.181  1.00  0.00     0.000 A 
HETATM   24  C   UNL     1      29.482  43.251  52.893  1.00  0.00     0.002 A 
HETATM   25  C   UNL     1      28.378  43.309  52.038  1.00  0.00     0.029 A 
ENDBRANCH  17  20
ENDBRANCH  15  16
ENDBRANCH   1  15
TORSDOF 3
ENDMDL
MODEL 10
REMARK VINA RESULT:      -7.6      2.764      7.517
REMARK  3 active torsions:
REMARK  status: ('A' for Active; 'I' for Inactive)
REMARK    1  A    between atoms: C_4  and  N_5 
REMARK       I    between atoms: N_5  and  C_6 
REMARK    2  A    between atoms: C_6  and  C_7 
REMARK    3  A    between atoms: C_7  and  C_8 
ROOT
HETATM    1  C   UNL     1      24.763  44.702  51.215  1.00  0.00     0.286 C 
HETATM    2  N   UNL     1      25.499  45.824  50.483  1.00  0.00    -0.056 N 
HETATM    3  H   UNL     1      26.247  46.156  51.128  1.00  0.00     0.278 HD
HETATM    4  H   UNL     1      25.979  45.458  49.652  1.00  0.00     0.278 HD
HETATM    5  C   UNL     1      24.554  46.933  50.135  1.00  0.00     0.209 C 
HETATM    6  C   UNL     1      23.474  46.364  49.186  1.00  0.00     0.115 C 
HETATM    7  N   UNL     1      22.831  45.168  49.726  1.00  0.00    -0.353 N 
HETATM    8  C   UNL     1      23.540  44.204  50.417  1.00  0.00     0.249 C 
HETATM    9  O   UNL     1      23.148  43.044  50.441  1.00  0.00    -0.271 OA
HETATM   10  C   UNL     1      25.299  48.090  49.485  1.00  0.00     0.035 C 
HETATM   11  C   UNL     1      24.310  49.196  49.107  1.00  0.00     0.002 C 
HETATM   12  C   UNL     1      23.162  48.678  48.238  1.00  0.00     0.002 C 
HETATM   13  C   UNL     1      22.463  47.458  48.844  1.00  0.00     0.027 C 
HETATM   14  H   UNL     1      22.051  44.773  49.202  1.00  0.00     0.163 HD
ENDROOT
BRANCH   1  15
HETATM   15  C   UNL     1      25.714  43.558  51.581  1.00  0.00     0.146 C 
BRANCH  15  16
HETATM   16  C   UNL     1      26.949  43.628  50.718  1.00  0.00     0.224 C 
HETATM   17  N   UNL     1      28.194  43.784  51.235  1.00  0.00    -0.327 N 
HETATM   18  H   UNL     1      28.887  43.954  50.511  1.00  0.00     0.169 HD
HETATM   19  O   UNL     1      26.814  43.550  49.489  1.00  0.00    -0.273 OA
BRANCH  17  20
HETATM   20  C   UNL     1      28.697  43.800  52.549  1.00  0.00     0.034 A 
HETATM   21  C   UNL     1      28.168  44.541  53.606  1.00  0.00     0.029 A 
HETATM   22  C   UNL     1      28.753  44.483  54.877  1.00  0.00     0.002 A 
HETATM   23  C   UNL     1      29.865  43.677  55.105  1.00  0.00     0.000 A 
HETATM   24  C   UNL     1      30.384  42.912  54.068  1.00  0.00     0.002 A 
HETATM   25  C   UNL     1      29.797  42.966  52.801  1.00  0.00     0.029 A 
ENDBRANCH  17  20
ENDBRANCH  15  16
ENDBRANCH   1  15
TORSDOF 3
ENDMDL
