MODEL 1
REMARK VINA RESULT:      -7.7      0.000      0.000
REMARK  7 active torsions:
REMARK  status: ('A' for Active; 'I' for Inactive)
REMARK    1  A    between atoms: C_2  and  O_3 
REMARK    2  A    between atoms: O_3  and  C_4 
REMARK    3  A    between atoms: C_4  and  C_5 
REMARK    4  A    between atoms: C_12  and  C_13 
REMARK    5  A    between atoms: C_13  and  N_14 
REMARK    6  A    between atoms: C_19  and  N_20 
REMARK    7  A    between atoms: N_23  and  C_25 
ROOT
HETATM    1  C   UNL     1      28.071  40.343  50.852  1.00  0.00     0.089 C 
HETATM    2  S   UNL     1      29.070  40.694  52.195  1.00  0.00    -0.063 SA
HETATM    3  C   UNL     1      28.183  42.084  52.584  1.00  0.00     0.115 C 
HETATM    4  C   UNL     1      27.175  42.365  51.680  1.00  0.00     0.053 C 
HETATM    5  C   UNL     1      26.995  41.231  50.782  1.00  0.00    -0.022 C 
HETATM    6  C   UNL     1      25.823  41.028  49.864  1.00  0.00     0.051 C 
HETATM    7  N   UNL     1      28.510  42.792  53.676  1.00  0.00    -0.224 NA
HETATM    8  C   UNL     1      27.752  43.883  53.836  1.00  0.00     0.155 C 
HETATM    9  N   UNL     1      26.830  44.345  52.966  1.00  0.00    -0.213 NA
HETATM   10  C   UNL     1      26.522  43.619  51.853  1.00  0.00     0.141 C 
ENDROOT
BRANCH  10  11
HETATM   11  N   UNL     1      25.585  44.132  50.958  1.00  0.00    -0.362 N 
HETATM   12  C   UNL     1      26.069  44.469  49.603  1.00  0.00     0.152 C 
HETATM   13  C   UNL     1      26.452  45.955  49.468  1.00  0.00     0.255 C 
HETATM   14  N   UNL     1      25.302  46.860  49.913  1.00  0.00    -0.064 N 
HETATM   15  H   UNL     1      24.488  46.621  49.329  1.00  0.00     0.280 HD
HETATM   16  C   UNL     1      24.929  46.516  51.365  1.00  0.00     0.255 C 
HETATM   17  C   UNL     1      24.542  45.026  51.486  1.00  0.00     0.152 C 
BRANCH  14  18
HETATM   18  C   UNL     1      25.598  48.327  49.696  1.00  0.00     0.188 C 
HETATM   19  C   UNL     1      26.987  48.540  49.099  1.00  0.00     0.033 C 
HETATM   20  C   UNL     1      26.910  49.952  48.539  1.00  0.00     0.002 C 
HETATM   21  C   UNL     1      25.472  50.117  48.058  1.00  0.00     0.002 C 
HETATM   22  C   UNL     1      24.686  48.938  48.635  1.00  0.00     0.033 C 
ENDBRANCH  14  18
ENDBRANCH  10  11
BRANCH   8  23
HETATM   23  C   UNL     1      27.924  44.598  55.173  1.00  0.00     0.314 C 
BRANCH  23  24
HETATM   24  N   UNL     1      28.813  45.843  55.103  1.00  0.00    -0.072 N 
HETATM   25  H   UNL     1      29.287  45.764  54.186  1.00  0.00     0.279 HD
HETATM   26  C   UNL     1      28.027  47.119  55.044  1.00  0.00     0.269 C 
HETATM   27  C   UNL     1      29.874  45.873  56.158  1.00  0.00     0.269 C 
ENDBRANCH  23  24
ENDBRANCH   8  23
BRANCH   1  28
HETATM   28  C   UNL     1      28.359  39.228  49.951  1.00  0.00     0.300 C 
HETATM   29  O   UNL     1      27.960  38.084  50.126  1.00  0.00    -0.259 OA
BRANCH  28  30
HETATM   30  O   UNL     1      29.040  39.643  48.847  1.00  0.00    -0.317 OA
BRANCH  30  31
HETATM   31  C   UNL     1      28.392  39.416  47.585  1.00  0.00     0.174 C 
HETATM   32  C   UNL     1      28.065  40.744  46.926  1.00  0.00     0.034 C 
ENDBRANCH  30  31
ENDBRANCH  28  30
ENDBRANCH   1  28
TORSDOF 7
ENDMDL
MODEL 2
REMARK VINA RESULT:      -7.5      3.147      5.904
REMARK  7 active torsions:
REMARK  status: ('A' for Active; 'I' for Inactive)
REMARK    1  A    between atoms: C_2  and  O_3 
REMARK    2  A    between atoms: O_3  and  C_4 
REMARK    3  A    between atoms: C_4  and  C_5 
REMARK    4  A    between atoms: C_12  and  C_13 
REMARK    5  A    between atoms: C_13  and  N_14 
REMARK    6  A    between atoms: C_19  and  N_20 
REMARK    7  A    between atoms: N_23  and  C_25 
ROOT
HETATM    1  C   UNL     1      29.041  44.992  55.441  1.00  0.00     0.089 C 
HETATM    2  S   UNL     1      29.681  43.534  54.817  1.00  0.00    -0.063 SA
HETATM    3  C   UNL     1      28.603  43.533  53.511  1.00  0.00     0.115 C 
HETATM    4  C   UNL     1      27.689  44.569  53.551  1.00  0.00     0.053 C 
HETATM    5  C   UNL     1      28.081  45.527  54.578  1.00  0.00    -0.022 C 
HETATM    6  C   UNL     1      27.522  46.913  54.732  1.00  0.00     0.051 C 
HETATM    7  N   UNL     1      28.691  42.569  52.583  1.00  0.00    -0.224 NA
HETATM    8  C   UNL     1      27.753  42.670  51.634  1.00  0.00     0.155 C 
HETATM    9  N   UNL     1      26.726  43.546  51.623  1.00  0.00    -0.213 NA
HETATM   10  C   UNL     1      26.644  44.510  52.585  1.00  0.00     0.141 C 
ENDROOT
BRANCH  10  11
HETATM   11  N   UNL     1      25.559  45.384  52.565  1.00  0.00    -0.362 N 
HETATM   12  C   UNL     1      24.442  45.044  51.661  1.00  0.00     0.152 C 
HETATM   13  C   UNL     1      24.553  45.750  50.296  1.00  0.00     0.255 C 
HETATM   14  N   UNL     1      24.713  47.261  50.474  1.00  0.00    -0.064 N 
HETATM   15  H   UNL     1      23.896  47.590  51.008  1.00  0.00     0.280 HD
HETATM   16  C   UNL     1      25.955  47.534  51.339  1.00  0.00     0.255 C 
HETATM   17  C   UNL     1      25.829  46.825  52.705  1.00  0.00     0.152 C 
BRANCH  14  18
HETATM   18  C   UNL     1      24.719  48.004  49.157  1.00  0.00     0.188 C 
HETATM   19  C   UNL     1      23.596  49.036  49.085  1.00  0.00     0.033 C 
HETATM   20  C   UNL     1      24.041  49.954  47.958  1.00  0.00     0.002 C 
HETATM   21  C   UNL     1      25.564  49.995  48.048  1.00  0.00     0.002 C 
HETATM   22  C   UNL     1      25.969  48.867  48.998  1.00  0.00     0.033 C 
ENDBRANCH  14  18
ENDBRANCH  10  11
BRANCH   8  23
HETATM   23  C   UNL     1      27.942  41.745  50.437  1.00  0.00     0.314 C 
BRANCH  23  24
HETATM   24  N   UNL     1      27.576  40.283  50.716  1.00  0.00    -0.072 N 
HETATM   25  H   UNL     1      27.579  40.215  51.748  1.00  0.00     0.279 HD
HETATM   26  C   UNL     1      26.179  39.939  50.290  1.00  0.00     0.269 C 
HETATM   27  C   UNL     1      28.588  39.311  50.196  1.00  0.00     0.269 C 
ENDBRANCH  23  24
ENDBRANCH   8  23
BRANCH   1  28
HETATM   28  C   UNL     1      29.502  45.554  56.709  1.00  0.00     0.300 C 
HETATM   29  O   UNL     1      28.761  46.031  57.559  1.00  0.00    -0.259 OA
BRANCH  28  30
HETATM   30  O   UNL     1      30.846  45.390  56.867  1.00  0.00    -0.317 OA
BRANCH  30  31
HETATM   31  C   UNL     1      31.252  44.514  57.932  1.00  0.00     0.174 C 
HETATM   32  C   UNL     1      32.079  43.371  57.373  1.00  0.00     0.034 C 
ENDBRANCH  30  31
ENDBRANCH  28  30
ENDBRANCH   1  28
TORSDOF 7
ENDMDL
MODEL 3
REMARK VINA RESULT:      -7.5      1.569      2.281
REMARK  7 active torsions:
REMARK  status: ('A' for Active; 'I' for Inactive)
REMARK    1  A    between atoms: C_2  and  O_3 
REMARK    2  A    between atoms: O_3  and  C_4 
REMARK    3  A    between atoms: C_4  and  C_5 
REMARK    4  A    between atoms: C_12  and  C_13 
REMARK    5  A    between atoms: C_13  and  N_14 
REMARK    6  A    between atoms: C_19  and  N_20 
REMARK    7  A    between atoms: N_23  and  C_25 
ROOT
HETATM    1  C   UNL     1      28.055  41.002  50.445  1.00  0.00     0.089 C 
HETATM    2  S   UNL     1      28.374  41.201  52.114  1.00  0.00    -0.063 SA
HETATM    3  C   UNL     1      27.608  42.710  52.155  1.00  0.00     0.115 C 
HETATM    4  C   UNL     1      27.169  43.140  50.916  1.00  0.00     0.053 C 
HETATM    5  C   UNL     1      27.262  42.044  49.959  1.00  0.00    -0.022 C 
HETATM    6  C   UNL     1      26.618  42.020  48.601  1.00  0.00     0.051 C 
HETATM    7  N   UNL     1      27.498  43.364  53.322  1.00  0.00    -0.224 NA
HETATM    8  C   UNL     1      26.908  44.558  53.198  1.00  0.00     0.155 C 
HETATM    9  N   UNL     1      26.554  45.153  52.039  1.00  0.00    -0.213 NA
HETATM   10  C   UNL     1      26.689  44.479  50.860  1.00  0.00     0.141 C 
ENDROOT
BRANCH  10  11
HETATM   11  N   UNL     1      26.341  45.127  49.676  1.00  0.00    -0.362 N 
HETATM   12  C   UNL     1      26.938  46.458  49.441  1.00  0.00     0.152 C 
HETATM   13  C   UNL     1      26.015  47.605  49.897  1.00  0.00     0.255 C 
HETATM   14  N   UNL     1      24.627  47.474  49.267  1.00  0.00    -0.064 N 
HETATM   15  H   UNL     1      24.759  47.473  48.245  1.00  0.00     0.280 HD
HETATM   16  C   UNL     1      24.034  46.106  49.644  1.00  0.00     0.255 C 
HETATM   17  C   UNL     1      24.965  44.965  49.178  1.00  0.00     0.152 C 
BRANCH  14  18
HETATM   18  C   UNL     1      23.723  48.638  49.604  1.00  0.00     0.188 C 
HETATM   19  C   UNL     1      24.125  49.903  48.849  1.00  0.00     0.033 C 
HETATM   20  C   UNL     1      22.883  50.773  48.945  1.00  0.00     0.002 C 
HETATM   21  C   UNL     1      21.706  49.802  48.910  1.00  0.00     0.002 C 
HETATM   22  C   UNL     1      22.294  48.406  49.119  1.00  0.00     0.033 C 
ENDBRANCH  14  18
ENDBRANCH  10  11
BRANCH   8  23
HETATM   23  C   UNL     1      26.552  45.243  54.513  1.00  0.00     0.314 C 
BRANCH  23  24
HETATM   24  N   UNL     1      27.534  46.342  54.930  1.00  0.00    -0.072 N 
HETATM   25  H   UNL     1      28.091  46.520  54.076  1.00  0.00     0.279 HD
HETATM   26  C   UNL     1      26.856  47.641  55.250  1.00  0.00     0.269 C 
HETATM   27  C   UNL     1      28.482  45.911  56.004  1.00  0.00     0.269 C 
ENDBRANCH  23  24
ENDBRANCH   8  23
BRANCH   1  28
HETATM   28  C   UNL     1      28.564  39.854  49.697  1.00  0.00     0.300 C 
HETATM   29  O   UNL     1      29.098  39.932  48.598  1.00  0.00    -0.259 OA
BRANCH  28  30
HETATM   30  O   UNL     1      28.457  38.702  50.418  1.00  0.00    -0.317 OA
BRANCH  30  31
HETATM   31  C   UNL     1      29.471  37.713  50.177  1.00  0.00     0.174 C 
HETATM   32  C   UNL     1      29.895  37.078  51.489  1.00  0.00     0.034 C 
ENDBRANCH  30  31
ENDBRANCH  28  30
ENDBRANCH   1  28
TORSDOF 7
ENDMDL
MODEL 4
REMARK VINA RESULT:      -7.3      3.501      6.271
REMARK  7 active torsions:
REMARK  status: ('A' for Active; 'I' for Inactive)
REMARK    1  A    between atoms: C_2  and  O_3 
REMARK    2  A    between atoms: O_3  and  C_4 
REMARK    3  A    between atoms: C_4  and  C_5 
REMARK    4  A    between atoms: C_12  and  C_13 
REMARK    5  A    between atoms: C_13  and  N_14 
REMARK    6  A    between atoms: C_19  and  N_20 
REMARK    7  A    between atoms: N_23  and  C_25 
ROOT
HETATM    1  C   UNL     1      29.066  44.898  55.204  1.00  0.00     0.089 C 
HETATM    2  S   UNL     1      29.728  43.421  54.654  1.00  0.00    -0.063 SA
HETATM    3  C   UNL     1      28.692  43.369  53.316  1.00  0.00     0.115 C 
HETATM    4  C   UNL     1      27.774  44.404  53.289  1.00  0.00     0.053 C 
HETATM    5  C   UNL     1      28.133  45.399  54.293  1.00  0.00    -0.022 C 
HETATM    6  C   UNL     1      27.567  46.789  54.379  1.00  0.00     0.051 C 
HETATM    7  N   UNL     1      28.810  42.373  52.426  1.00  0.00    -0.224 NA
HETATM    8  C   UNL     1      27.902  42.437  51.446  1.00  0.00     0.155 C 
HETATM    9  N   UNL     1      26.875  43.309  51.370  1.00  0.00    -0.213 NA
HETATM   10  C   UNL     1      26.761  44.307  52.294  1.00  0.00     0.141 C 
ENDROOT
BRANCH  10  11
HETATM   11  N   UNL     1      25.675  45.177  52.208  1.00  0.00    -0.362 N 
HETATM   12  C   UNL     1      24.328  44.571  52.235  1.00  0.00     0.152 C 
HETATM   13  C   UNL     1      23.764  44.329  50.822  1.00  0.00     0.255 C 
HETATM   14  N   UNL     1      23.804  45.613  49.990  1.00  0.00    -0.064 N 
HETATM   15  H   UNL     1      23.260  46.321  50.502  1.00  0.00     0.280 HD
HETATM   16  C   UNL     1      25.254  46.121  49.925  1.00  0.00     0.255 C 
HETATM   17  C   UNL     1      25.807  46.363  51.346  1.00  0.00     0.152 C 
BRANCH  14  18
HETATM   18  C   UNL     1      23.161  45.446  48.632  1.00  0.00     0.188 C 
HETATM   19  C   UNL     1      21.969  44.494  48.684  1.00  0.00     0.033 C 
HETATM   20  C   UNL     1      21.211  44.817  47.407  1.00  0.00     0.002 C 
HETATM   21  C   UNL     1      21.411  46.313  47.187  1.00  0.00     0.002 C 
HETATM   22  C   UNL     1      22.523  46.745  48.143  1.00  0.00     0.033 C 
ENDBRANCH  14  18
ENDBRANCH  10  11
BRANCH   8  23
HETATM   23  C   UNL     1      28.130  41.469  50.289  1.00  0.00     0.314 C 
BRANCH  23  24
HETATM   24  N   UNL     1      27.649  40.042  50.568  1.00  0.00    -0.072 N 
HETATM   25  H   UNL     1      27.745  39.938  51.593  1.00  0.00     0.279 HD
HETATM   26  C   UNL     1      26.191  39.849  50.275  1.00  0.00     0.269 C 
HETATM   27  C   UNL     1      28.505  38.994  49.928  1.00  0.00     0.269 C 
ENDBRANCH  23  24
ENDBRANCH   8  23
BRANCH   1  28
HETATM   28  C   UNL     1      29.486  45.507  56.465  1.00  0.00     0.300 C 
HETATM   29  O   UNL     1      28.721  46.033  57.263  1.00  0.00    -0.259 OA
BRANCH  28  30
HETATM   30  O   UNL     1      30.819  45.328  56.685  1.00  0.00    -0.317 OA
BRANCH  30  31
HETATM   31  C   UNL     1      31.166  44.529  57.828  1.00  0.00     0.174 C 
HETATM   32  C   UNL     1      32.005  43.342  57.392  1.00  0.00     0.034 C 
ENDBRANCH  30  31
ENDBRANCH  28  30
ENDBRANCH   1  28
TORSDOF 7
ENDMDL
MODEL 5
REMARK VINA RESULT:      -7.3      2.858      6.289
REMARK  7 active torsions:
REMARK  status: ('A' for Active; 'I' for Inactive)
REMARK    1  A    between atoms: C_2  and  O_3 
REMARK    2  A    between atoms: O_3  and  C_4 
REMARK    3  A    between atoms: C_4  and  C_5 
REMARK    4  A    between atoms: C_12  and  C_13 
REMARK    5  A    between atoms: C_13  and  N_14 
REMARK    6  A    between atoms: C_19  and  N_20 
REMARK    7  A    between atoms: N_23  and  C_25 
ROOT
HETATM    1  C   UNL     1      23.874  42.683  48.504  1.00  0.00     0.089 C 
HETATM    2  S   UNL     1      23.627  44.336  48.141  1.00  0.00    -0.063 SA
HETATM    3  C   UNL     1      24.730  44.836  49.325  1.00  0.00     0.115 C 
HETATM    4  C   UNL     1      25.246  43.794  50.073  1.00  0.00     0.053 C 
HETATM    5  C   UNL     1      24.887  42.524  49.453  1.00  0.00    -0.022 C 
HETATM    6  C   UNL     1      25.493  41.191  49.789  1.00  0.00     0.051 C 
HETATM    7  N   UNL     1      25.003  46.142  49.464  1.00  0.00    -0.224 NA
HETATM    8  C   UNL     1      25.858  46.393  50.462  1.00  0.00     0.155 C 
HETATM    9  N   UNL     1      26.331  45.492  51.349  1.00  0.00    -0.213 NA
HETATM   10  C   UNL     1      26.029  44.170  51.201  1.00  0.00     0.141 C 
ENDROOT
BRANCH  10  11
HETATM   11  N   UNL     1      26.509  43.265  52.146  1.00  0.00    -0.362 N 
HETATM   12  C   UNL     1      26.221  43.561  53.564  1.00  0.00     0.152 C 
HETATM   13  C   UNL     1      27.374  44.314  54.254  1.00  0.00     0.255 C 
HETATM   14  N   UNL     1      28.698  43.568  54.077  1.00  0.00    -0.064 N 
HETATM   15  H   UNL     1      28.567  42.625  54.471  1.00  0.00     0.280 HD
HETATM   16  C   UNL     1      28.975  43.391  52.575  1.00  0.00     0.255 C 
HETATM   17  C   UNL     1      27.815  42.631  51.896  1.00  0.00     0.152 C 
BRANCH  14  18
HETATM   18  C   UNL     1      29.837  44.218  54.830  1.00  0.00     0.188 C 
HETATM   19  C   UNL     1      29.330  45.132  55.942  1.00  0.00     0.033 C 
HETATM   20  C   UNL     1      30.548  45.299  56.836  1.00  0.00     0.002 C 
HETATM   21  C   UNL     1      31.288  43.966  56.763  1.00  0.00     0.002 C 
HETATM   22  C   UNL     1      30.666  43.192  55.599  1.00  0.00     0.033 C 
ENDBRANCH  14  18
ENDBRANCH  10  11
BRANCH   8  23
HETATM   23  C   UNL     1      26.379  47.825  50.522  1.00  0.00     0.314 C 
BRANCH  23  24
HETATM   24  N   UNL     1      26.487  48.506  49.154  1.00  0.00    -0.072 N 
HETATM   25  H   UNL     1      26.519  47.720  48.482  1.00  0.00     0.279 HD
HETATM   26  C   UNL     1      25.263  49.296  48.796  1.00  0.00     0.269 C 
HETATM   27  C   UNL     1      27.747  49.296  48.983  1.00  0.00     0.269 C 
ENDBRANCH  23  24
ENDBRANCH   8  23
BRANCH   1  28
HETATM   28  C   UNL     1      23.101  41.629  47.850  1.00  0.00     0.300 C 
HETATM   29  O   UNL     1      22.226  40.974  48.403  1.00  0.00    -0.259 OA
BRANCH  28  30
HETATM   30  O   UNL     1      23.406  41.535  46.525  1.00  0.00    -0.317 OA
BRANCH  30  31
HETATM   31  C   UNL     1      24.560  40.743  46.200  1.00  0.00     0.174 C 
HETATM   32  C   UNL     1      24.361  40.070  44.854  1.00  0.00     0.034 C 
ENDBRANCH  30  31
ENDBRANCH  28  30
ENDBRANCH   1  28
TORSDOF 7
ENDMDL
MODEL 6
REMARK VINA RESULT:      -7.1      1.928      5.914
REMARK  7 active torsions:
REMARK  status: ('A' for Active; 'I' for Inactive)
REMARK    1  A    between atoms: C_2  and  O_3 
REMARK    2  A    between atoms: O_3  and  C_4 
REMARK    3  A    between atoms: C_4  and  C_5 
REMARK    4  A    between atoms: C_12  and  C_13 
REMARK    5  A    between atoms: C_13  and  N_14 
REMARK    6  A    between atoms: C_19  and  N_20 
REMARK    7  A    between atoms: N_23  and  C_25 
ROOT
HETATM    1  C   UNL     1      27.232  39.727  48.717  1.00  0.00     0.089 C 
HETATM    2  S   UNL     1      26.531  41.070  47.922  1.00  0.00    -0.063 SA
HETATM    3  C   UNL     1      26.961  42.128  49.173  1.00  0.00     0.115 C 
HETATM    4  C   UNL     1      27.562  41.496  50.247  1.00  0.00     0.053 C 
HETATM    5  C   UNL     1      27.891  40.123  49.883  1.00  0.00    -0.022 C 
HETATM    6  C   UNL     1      28.802  39.213  50.659  1.00  0.00     0.051 C 
HETATM    7  N   UNL     1      26.690  43.436  49.055  1.00  0.00    -0.224 NA
HETATM    8  C   UNL     1      27.047  44.143  50.133  1.00  0.00     0.155 C 
HETATM    9  N   UNL     1      27.517  43.639  51.294  1.00  0.00    -0.213 NA
HETATM   10  C   UNL     1      27.772  42.303  51.401  1.00  0.00     0.141 C 
ENDROOT
BRANCH  10  11
HETATM   11  N   UNL     1      28.231  41.805  52.620  1.00  0.00    -0.362 N 
HETATM   12  C   UNL     1      27.498  42.222  53.832  1.00  0.00     0.152 C 
HETATM   13  C   UNL     1      28.142  43.443  54.518  1.00  0.00     0.255 C 
HETATM   14  N   UNL     1      29.626  43.194  54.796  1.00  0.00    -0.064 N 
HETATM   15  H   UNL     1      29.685  42.350  55.384  1.00  0.00     0.280 HD
HETATM   16  C   UNL     1      30.335  42.868  53.471  1.00  0.00     0.255 C 
HETATM   17  C   UNL     1      29.684  41.641  52.796  1.00  0.00     0.152 C 
BRANCH  14  18
HETATM   18  C   UNL     1      30.270  44.325  55.565  1.00  0.00     0.188 C 
HETATM   19  C   UNL     1      29.230  45.287  56.134  1.00  0.00     0.033 C 
HETATM   20  C   UNL     1      30.001  46.032  57.212  1.00  0.00     0.002 C 
HETATM   21  C   UNL     1      30.983  45.014  57.784  1.00  0.00     0.002 C 
HETATM   22  C   UNL     1      30.979  43.825  56.822  1.00  0.00     0.033 C 
ENDBRANCH  14  18
ENDBRANCH  10  11
BRANCH   8  23
HETATM   23  C   UNL     1      26.974  45.657  49.967  1.00  0.00     0.314 C 
BRANCH  23  24
HETATM   24  N   UNL     1      25.547  46.214  49.958  1.00  0.00    -0.072 N 
HETATM   25  H   UNL     1      25.116  45.790  49.119  1.00  0.00     0.279 HD
HETATM   26  C   UNL     1      24.727  45.738  51.120  1.00  0.00     0.269 C 
HETATM   27  C   UNL     1      25.493  47.700  49.791  1.00  0.00     0.269 C 
ENDBRANCH  23  24
ENDBRANCH   8  23
BRANCH   1  28
HETATM   28  C   UNL     1      27.129  38.374  48.174  1.00  0.00     0.300 C 
HETATM   29  O   UNL     1      26.472  37.476  48.686  1.00  0.00    -0.259 OA
BRANCH  28  30
HETATM   30  O   UNL     1      27.774  38.266  46.978  1.00  0.00    -0.317 OA
BRANCH  30  31
HETATM   31  C   UNL     1      27.748  36.967  46.364  1.00  0.00     0.174 C 
HETATM   32  C   UNL     1      29.099  36.662  45.745  1.00  0.00     0.034 C 
ENDBRANCH  30  31
ENDBRANCH  28  30
ENDBRANCH   1  28
TORSDOF 7
ENDMDL
MODEL 7
REMARK VINA RESULT:      -7.1      3.312      6.947
REMARK  7 active torsions:
REMARK  status: ('A' for Active; 'I' for Inactive)
REMARK    1  A    between atoms: C_2  and  O_3 
REMARK    2  A    between atoms: O_3  and  C_4 
REMARK    3  A    between atoms: C_4  and  C_5 
REMARK    4  A    between atoms: C_12  and  C_13 
REMARK    5  A    between atoms: C_13  and  N_14 
REMARK    6  A    between atoms: C_19  and  N_20 
REMARK    7  A    between atoms: N_23  and  C_25 
ROOT
HETATM    1  C   UNL     1      27.651  46.063  54.868  1.00  0.00     0.089 C 
HETATM    2  S   UNL     1      27.309  47.556  54.107  1.00  0.00    -0.063 SA
HETATM    3  C   UNL     1      26.372  46.814  52.907  1.00  0.00     0.115 C 
HETATM    4  C   UNL     1      26.359  45.433  52.994  1.00  0.00     0.053 C 
HETATM    5  C   UNL     1      26.949  45.019  54.261  1.00  0.00    -0.022 C 
HETATM    6  C   UNL     1      26.854  43.641  54.854  1.00  0.00     0.051 C 
HETATM    7  N   UNL     1      25.753  47.571  51.989  1.00  0.00    -0.224 NA
HETATM    8  C   UNL     1      25.085  46.850  51.082  1.00  0.00     0.155 C 
HETATM    9  N   UNL     1      25.096  45.504  50.971  1.00  0.00    -0.213 NA
HETATM   10  C   UNL     1      25.746  44.751  51.905  1.00  0.00     0.141 C 
ENDROOT
BRANCH  10  11
HETATM   11  N   UNL     1      25.764  43.366  51.752  1.00  0.00    -0.362 N 
HETATM   12  C   UNL     1      27.055  42.750  51.384  1.00  0.00     0.152 C 
HETATM   13  C   UNL     1      27.196  42.542  49.864  1.00  0.00     0.255 C 
HETATM   14  N   UNL     1      26.004  41.762  49.306  1.00  0.00    -0.064 N 
HETATM   15  H   UNL     1      25.966  40.866  49.812  1.00  0.00     0.280 HD
HETATM   16  C   UNL     1      24.709  42.521  49.641  1.00  0.00     0.255 C 
HETATM   17  C   UNL     1      24.577  42.719  51.167  1.00  0.00     0.152 C 
BRANCH  14  18
HETATM   18  C   UNL     1      26.154  41.443  47.836  1.00  0.00     0.188 C 
HETATM   19  C   UNL     1      27.586  41.046  47.487  1.00  0.00     0.033 C 
HETATM   20  C   UNL     1      27.434  40.339  46.150  1.00  0.00     0.002 C 
HETATM   21  C   UNL     1      26.085  39.630  46.219  1.00  0.00     0.002 C 
HETATM   22  C   UNL     1      25.362  40.198  47.441  1.00  0.00     0.033 C 
ENDBRANCH  14  18
ENDBRANCH  10  11
BRANCH   8  23
HETATM   23  C   UNL     1      24.180  47.655  50.155  1.00  0.00     0.314 C 
BRANCH  23  24
HETATM   24  N   UNL     1      24.927  48.381  49.032  1.00  0.00    -0.072 N 
HETATM   25  H   UNL     1      24.802  47.769  48.208  1.00  0.00     0.279 HD
HETATM   26  C   UNL     1      24.297  49.692  48.664  1.00  0.00     0.269 C 
HETATM   27  C   UNL     1      26.397  48.505  49.283  1.00  0.00     0.269 C 
ENDBRANCH  23  24
ENDBRANCH   8  23
BRANCH   1  28
HETATM   28  C   UNL     1      28.555  45.974  56.013  1.00  0.00     0.300 C 
HETATM   29  O   UNL     1      28.191  46.018  57.181  1.00  0.00    -0.259 OA
BRANCH  28  30
HETATM   30  O   UNL     1      29.838  45.738  55.618  1.00  0.00    -0.317 OA
BRANCH  30  31
HETATM   31  C   UNL     1      30.530  44.693  56.321  1.00  0.00     0.174 C 
HETATM   32  C   UNL     1      30.628  43.458  55.444  1.00  0.00     0.034 C 
ENDBRANCH  30  31
ENDBRANCH  28  30
ENDBRANCH   1  28
TORSDOF 7
ENDMDL
MODEL 8
REMARK VINA RESULT:      -7.1     10.639     12.930
REMARK  7 active torsions:
REMARK  status: ('A' for Active; 'I' for Inactive)
REMARK    1  A    between atoms: C_2  and  O_3 
REMARK    2  A    between atoms: O_3  and  C_4 
REMARK    3  A    between atoms: C_4  and  C_5 
REMARK    4  A    between atoms: C_12  and  C_13 
REMARK    5  A    between atoms: C_13  and  N_14 
REMARK    6  A    between atoms: C_19  and  N_20 
REMARK    7  A    between atoms: N_23  and  C_25 
ROOT
HETATM    1  C   UNL     1      27.004  46.893  39.792  1.00  0.00     0.089 C 
HETATM    2  S   UNL     1      26.003  48.270  39.957  1.00  0.00    -0.063 SA
HETATM    3  C   UNL     1      27.299  49.245  40.444  1.00  0.00     0.115 C 
HETATM    4  C   UNL     1      28.490  48.553  40.575  1.00  0.00     0.053 C 
HETATM    5  C   UNL     1      28.346  47.221  40.001  1.00  0.00    -0.022 C 
HETATM    6  C   UNL     1      29.478  46.283  39.687  1.00  0.00     0.051 C 
HETATM    7  N   UNL     1      27.094  50.550  40.676  1.00  0.00    -0.224 NA
HETATM    8  C   UNL     1      28.195  51.186  41.092  1.00  0.00     0.155 C 
HETATM    9  N   UNL     1      29.380  50.612  41.388  1.00  0.00    -0.213 NA
HETATM   10  C   UNL     1      29.566  49.280  41.161  1.00  0.00     0.141 C 
ENDROOT
BRANCH  10  11
HETATM   11  N   UNL     1      30.790  48.708  41.501  1.00  0.00    -0.362 N 
HETATM   12  C   UNL     1      31.235  48.861  42.901  1.00  0.00     0.152 C 
HETATM   13  C   UNL     1      32.174  50.068  43.091  1.00  0.00     0.255 C 
HETATM   14  N   UNL     1      33.350  50.005  42.114  1.00  0.00    -0.064 N 
HETATM   15  H   UNL     1      33.836  49.113  42.284  1.00  0.00     0.280 HD
HETATM   16  C   UNL     1      32.804  49.952  40.677  1.00  0.00     0.255 C 
HETATM   17  C   UNL     1      31.869  48.736  40.499  1.00  0.00     0.152 C 
BRANCH  14  18
HETATM   18  C   UNL     1      34.353  51.115  42.339  1.00  0.00     0.188 C 
HETATM   19  C   UNL     1      34.229  51.713  43.738  1.00  0.00     0.033 C 
HETATM   20  C   UNL     1      35.556  52.431  43.926  1.00  0.00     0.002 C 
HETATM   21  C   UNL     1      36.583  51.582  43.182  1.00  0.00     0.002 C 
HETATM   22  C   UNL     1      35.788  50.592  42.330  1.00  0.00     0.033 C 
ENDBRANCH  14  18
ENDBRANCH  10  11
BRANCH   8  23
HETATM   23  C   UNL     1      28.080  52.706  41.151  1.00  0.00     0.314 C 
BRANCH  23  24
HETATM   24  N   UNL     1      28.927  53.435  40.104  1.00  0.00    -0.072 N 
HETATM   25  H   UNL     1      28.495  54.373  40.038  1.00  0.00     0.279 HD
HETATM   26  C   UNL     1      30.338  53.670  40.555  1.00  0.00     0.269 C 
HETATM   27  C   UNL     1      28.857  52.810  38.746  1.00  0.00     0.269 C 
ENDBRANCH  23  24
ENDBRANCH   8  23
BRANCH   1  28
HETATM   28  C   UNL     1      26.456  45.580  39.454  1.00  0.00     0.300 C 
HETATM   29  O   UNL     1      26.196  45.218  38.314  1.00  0.00    -0.259 OA
BRANCH  28  30
HETATM   30  O   UNL     1      26.365  44.780  40.554  1.00  0.00    -0.317 OA
BRANCH  30  31
HETATM   31  C   UNL     1      26.632  43.385  40.340  1.00  0.00     0.174 C 
HETATM   32  C   UNL     1      27.504  42.848  41.461  1.00  0.00     0.034 C 
ENDBRANCH  30  31
ENDBRANCH  28  30
ENDBRANCH   1  28
TORSDOF 7
ENDMDL
MODEL 9
REMARK VINA RESULT:      -7.0      5.318      8.102
REMARK  7 active torsions:
REMARK  status: ('A' for Active; 'I' for Inactive)
REMARK    1  A    between atoms: C_2  and  O_3 
REMARK    2  A    between atoms: O_3  and  C_4 
REMARK    3  A    between atoms: C_4  and  C_5 
REMARK    4  A    between atoms: C_12  and  C_13 
REMARK    5  A    between atoms: C_13  and  N_14 
REMARK    6  A    between atoms: C_19  and  N_20 
REMARK    7  A    between atoms: N_23  and  C_25 
ROOT
HETATM    1  C   UNL     1      25.499  45.846  50.069  1.00  0.00     0.089 C 
HETATM    2  S   UNL     1      25.723  47.529  50.276  1.00  0.00    -0.063 SA
HETATM    3  C   UNL     1      24.173  47.882  49.692  1.00  0.00     0.115 C 
HETATM    4  C   UNL     1      23.483  46.767  49.252  1.00  0.00     0.053 C 
HETATM    5  C   UNL     1      24.194  45.561  49.661  1.00  0.00    -0.022 C 
HETATM    6  C   UNL     1      23.629  44.168  49.633  1.00  0.00     0.051 C 
HETATM    7  N   UNL     1      23.745  49.153  49.677  1.00  0.00    -0.224 NA
HETATM    8  C   UNL     1      22.522  49.287  49.153  1.00  0.00     0.155 C 
HETATM    9  N   UNL     1      21.796  48.309  48.570  1.00  0.00    -0.213 NA
HETATM   10  C   UNL     1      22.255  47.025  48.580  1.00  0.00     0.141 C 
ENDROOT
BRANCH  10  11
HETATM   11  N   UNL     1      21.498  46.040  47.947  1.00  0.00    -0.362 N 
HETATM   12  C   UNL     1      21.270  46.200  46.496  1.00  0.00     0.152 C 
HETATM   13  C   UNL     1      19.931  46.896  46.185  1.00  0.00     0.255 C 
HETATM   14  N   UNL     1      18.769  46.183  46.877  1.00  0.00    -0.064 N 
HETATM   15  H   UNL     1      18.776  45.206  46.550  1.00  0.00     0.280 HD
HETATM   16  C   UNL     1      19.034  46.150  48.392  1.00  0.00     0.255 C 
HETATM   17  C   UNL     1      20.375  45.445  48.691  1.00  0.00     0.152 C 
BRANCH  14  18
HETATM   18  C   UNL     1      17.425  46.771  46.511  1.00  0.00     0.188 C 
HETATM   19  C   UNL     1      16.696  47.320  47.735  1.00  0.00     0.033 C 
HETATM   20  C   UNL     1      15.651  48.244  47.131  1.00  0.00     0.002 C 
HETATM   21  C   UNL     1      16.308  48.837  45.887  1.00  0.00     0.002 C 
HETATM   22  C   UNL     1      17.569  48.010  45.631  1.00  0.00     0.033 C 
ENDBRANCH  14  18
ENDBRANCH  10  11
BRANCH   8  23
HETATM   23  C   UNL     1      21.895  50.667  49.319  1.00  0.00     0.314 C 
BRANCH  23  24
HETATM   24  N   UNL     1      20.371  50.682  49.162  1.00  0.00    -0.072 N 
HETATM   25  H   UNL     1      20.178  49.910  48.502  1.00  0.00     0.279 HD
HETATM   26  C   UNL     1      19.650  50.325  50.428  1.00  0.00     0.269 C 
HETATM   27  C   UNL     1      19.852  51.943  48.545  1.00  0.00     0.269 C 
ENDBRANCH  23  24
ENDBRANCH   8  23
BRANCH   1  28
HETATM   28  C   UNL     1      26.575  44.891  50.325  1.00  0.00     0.300 C 
HETATM   29  O   UNL     1      27.167  44.273  49.449  1.00  0.00    -0.259 OA
BRANCH  28  30
HETATM   30  O   UNL     1      26.900  44.849  51.647  1.00  0.00    -0.317 OA
BRANCH  30  31
HETATM   31  C   UNL     1      26.262  43.818  52.420  1.00  0.00     0.174 C 
HETATM   32  C   UNL     1      25.422  44.443  53.519  1.00  0.00     0.034 C 
ENDBRANCH  30  31
ENDBRANCH  28  30
ENDBRANCH   1  28
TORSDOF 7
ENDMDL
MODEL 10
REMARK VINA RESULT:      -6.9      3.955      7.289
REMARK  7 active torsions:
REMARK  status: ('A' for Active; 'I' for Inactive)
REMARK    1  A    between atoms: C_2  and  O_3 
REMARK    2  A    between atoms: O_3  and  C_4 
REMARK    3  A    between atoms: C_4  and  C_5 
REMARK    4  A    between atoms: C_12  and  C_13 
REMARK    5  A    between atoms: C_13  and  N_14 
REMARK    6  A    between atoms: C_19  and  N_20 
REMARK    7  A    between atoms: N_23  and  C_25 
ROOT
HETATM    1  C   UNL     1      23.025  43.142  47.639  1.00  0.00     0.089 C 
HETATM    2  S   UNL     1      23.569  41.583  47.195  1.00  0.00    -0.063 SA
HETATM    3  C   UNL     1      24.686  41.530  48.467  1.00  0.00     0.115 C 
HETATM    4  C   UNL     1      24.739  42.700  49.203  1.00  0.00     0.053 C 
HETATM    5  C   UNL     1      23.624  43.562  48.830  1.00  0.00    -0.022 C 
HETATM    6  C   UNL     1      23.167  44.772  49.595  1.00  0.00     0.051 C 
HETATM    7  N   UNL     1      25.418  40.423  48.658  1.00  0.00    -0.224 NA
HETATM    8  C   UNL     1      26.285  40.538  49.671  1.00  0.00     0.155 C 
HETATM    9  N   UNL     1      26.533  41.658  50.381  1.00  0.00    -0.213 NA
HETATM   10  C   UNL     1      25.788  42.781  50.162  1.00  0.00     0.141 C 
ENDROOT
BRANCH  10  11
HETATM   11  N   UNL     1      26.084  43.932  50.890  1.00  0.00    -0.362 N 
HETATM   12  C   UNL     1      27.474  44.426  50.826  1.00  0.00     0.152 C 
HETATM   13  C   UNL     1      28.334  43.919  51.999  1.00  0.00     0.255 C 
HETATM   14  N   UNL     1      27.670  44.234  53.340  1.00  0.00    -0.064 N 
HETATM   15  H   UNL     1      27.537  45.255  53.378  1.00  0.00     0.280 HD
HETATM   16  C   UNL     1      26.270  43.598  53.367  1.00  0.00     0.255 C 
HETATM   17  C   UNL     1      25.417  44.118  52.190  1.00  0.00     0.152 C 
BRANCH  14  18
HETATM   18  C   UNL     1      28.532  43.848  54.521  1.00  0.00     0.188 C 
HETATM   19  C   UNL     1      29.804  43.127  54.080  1.00  0.00     0.033 C 
HETATM   20  C   UNL     1      30.709  43.248  55.296  1.00  0.00     0.002 C 
HETATM   21  C   UNL     1      30.374  44.601  55.916  1.00  0.00     0.002 C 
HETATM   22  C   UNL     1      29.083  45.074  55.246  1.00  0.00     0.033 C 
ENDBRANCH  14  18
ENDBRANCH  10  11
BRANCH   8  23
HETATM   23  C   UNL     1      26.979  39.242  50.078  1.00  0.00     0.314 C 
BRANCH  23  24
HETATM   24  N   UNL     1      27.476  38.404  48.897  1.00  0.00    -0.072 N 
HETATM   25  H   UNL     1      27.082  38.878  48.066  1.00  0.00     0.279 HD
HETATM   26  C   UNL     1      28.966  38.461  48.726  1.00  0.00     0.269 C 
HETATM   27  C   UNL     1      26.955  37.001  48.905  1.00  0.00     0.269 C 
ENDBRANCH  23  24
ENDBRANCH   8  23
BRANCH   1  28
HETATM   28  C   UNL     1      22.043  43.870  46.838  1.00  0.00     0.300 C 
HETATM   29  O   UNL     1      22.333  44.656  45.944  1.00  0.00    -0.259 OA
BRANCH  28  30
HETATM   30  O   UNL     1      20.770  43.492  47.143  1.00  0.00    -0.317 OA
BRANCH  30  31
HETATM   31  C   UNL     1      19.764  44.510  47.020  1.00  0.00     0.174 C 
HETATM   32  C   UNL     1      19.696  45.326  48.298  1.00  0.00     0.034 C 
ENDBRANCH  30  31
ENDBRANCH  28  30
ENDBRANCH   1  28
TORSDOF 7
ENDMDL
