MODEL 1
REMARK VINA RESULT:     -10.2      0.000      0.000
REMARK  7 active torsions:
REMARK  status: ('A' for Active; 'I' for Inactive)
REMARK    1  A    between atoms: C_6  and  N_7 
REMARK    2  A    between atoms: N_7  and  C_8 
REMARK    3  A    between atoms: C_13  and  C_14 
REMARK       I    between atoms: C_14  and  N_15 
REMARK    4  A    between atoms: N_15  and  C_16 
REMARK    5  A    between atoms: C_16  and  C_17 
REMARK    6  A    between atoms: C_17  and  N_18 
REMARK       I    between atoms: N_18  and  C_19 
REMARK    7  A    between atoms: C_19  and  C_20 
ROOT
HETATM    1  C   UNL     1      25.056  46.898  50.910  1.00  0.00     0.255 C 
HETATM    2  N   UNL     1      24.670  45.700  50.350  1.00  0.00    -0.355 N 
HETATM    3  O   UNL     1      25.023  47.127  52.115  1.00  0.00    -0.268 OA
HETATM    4  H   UNL     1      24.822  45.523  49.366  1.00  0.00     0.162 HD
ENDROOT
BRANCH   1   5
HETATM    5  C   UNL     1      25.528  47.941  49.969  1.00  0.00     0.077 A 
HETATM    6  C   UNL     1      24.606  48.776  49.311  1.00  0.00     0.143 A 
HETATM    7  N   UNL     1      25.040  49.712  48.432  1.00  0.00    -0.242 NA
HETATM    8  C   UNL     1      26.364  49.809  48.177  1.00  0.00     0.119 A 
HETATM    9  C   UNL     1      27.322  49.010  48.770  1.00  0.00     0.020 A 
HETATM   10  C   UNL     1      26.896  48.056  49.683  1.00  0.00     0.022 A 
BRANCH   6  11
HETATM   11  N   UNL     1      23.230  48.683  49.631  1.00  0.00    -0.340 N 
HETATM   12  H   UNL     1      23.060  47.831  50.172  1.00  0.00     0.167 HD
BRANCH  11  13
HETATM   13  C   UNL     1      22.085  49.144  48.952  1.00  0.00     0.036 A 
HETATM   14  C   UNL     1      21.733  50.496  49.071  1.00  0.00     0.071 A 
HETATM   15  C   UNL     1      20.643  51.012  48.372  1.00  0.00     0.118 A 
HETATM   16  C   UNL     1      19.889  50.212  47.527  1.00  0.00     0.042 A 
HETATM   17  F   UNL     1      20.323  52.305  48.514  1.00  0.00    -0.206 F 
HETATM   18  C   UNL     1      20.240  48.876  47.370  1.00  0.00     0.005 A 
HETATM   19  C   UNL     1      21.336  48.353  48.070  1.00  0.00     0.029 A 
ENDBRANCH  11  13
ENDBRANCH   6  11
ENDBRANCH   1   5
BRANCH   2  20
HETATM   20  C   UNL     1      24.177  44.602  51.163  1.00  0.00     0.142 C 
BRANCH  20  21
HETATM   21  C   UNL     1      25.113  43.388  51.124  1.00  0.00     0.142 C 
BRANCH  21  22
HETATM   22  N   UNL     1      26.136  43.425  52.153  1.00  0.00    -0.355 N 
HETATM   23  C   UNL     1      27.368  43.996  51.913  1.00  0.00     0.251 C 
HETATM   24  O   UNL     1      27.666  44.529  50.851  1.00  0.00    -0.268 OA
HETATM   25  H   UNL     1      25.986  42.861  52.977  1.00  0.00     0.162 HD
BRANCH  23  26
HETATM   26  C   UNL     1      28.369  43.916  53.012  1.00  0.00     0.033 A 
HETATM   27  C   UNL     1      28.212  44.769  54.112  1.00  0.00     0.042 A 
HETATM   28  C   UNL     1      29.124  44.730  55.172  1.00  0.00     0.056 A 
HETATM   29 CL   UNL     1      28.875  45.820  56.488  1.00  0.00    -0.083 Cl
HETATM   30  C   UNL     1      30.193  43.827  55.139  1.00  0.00     0.055 A 
HETATM   31 CL   UNL     1      31.360  43.723  56.409  1.00  0.00    -0.083 Cl
HETATM   32  C   UNL     1      30.341  42.963  54.049  1.00  0.00     0.026 A 
HETATM   33  C   UNL     1      29.430  43.002  52.989  1.00  0.00     0.019 A 
ENDBRANCH  23  26
ENDBRANCH  21  22
ENDBRANCH  20  21
ENDBRANCH   2  20
TORSDOF 7
ENDMDL
MODEL 2
REMARK VINA RESULT:     -10.0      1.047      1.727
REMARK  7 active torsions:
REMARK  status: ('A' for Active; 'I' for Inactive)
REMARK    1  A    between atoms: C_6  and  N_7 
REMARK    2  A    between atoms: N_7  and  C_8 
REMARK    3  A    between atoms: C_13  and  C_14 
REMARK       I    between atoms: C_14  and  N_15 
REMARK    4  A    between atoms: N_15  and  C_16 
REMARK    5  A    between atoms: C_16  and  C_17 
REMARK    6  A    between atoms: C_17  and  N_18 
REMARK       I    between atoms: N_18  and  C_19 
REMARK    7  A    between atoms: C_19  and  C_20 
ROOT
HETATM    1  C   UNL     1      25.496  46.952  50.796  1.00  0.00     0.255 C 
HETATM    2  N   UNL     1      25.736  45.680  50.323  1.00  0.00    -0.355 N 
HETATM    3  O   UNL     1      25.019  47.186  51.903  1.00  0.00    -0.268 OA
HETATM    4  H   UNL     1      26.234  45.545  49.452  1.00  0.00     0.162 HD
ENDROOT
BRANCH   1   5
HETATM    5  C   UNL     1      25.845  48.068  49.886  1.00  0.00     0.077 A 
HETATM    6  C   UNL     1      24.839  48.742  49.169  1.00  0.00     0.143 A 
HETATM    7  N   UNL     1      25.165  49.747  48.318  1.00  0.00    -0.242 NA
HETATM    8  C   UNL     1      26.467  50.069  48.151  1.00  0.00     0.119 A 
HETATM    9  C   UNL     1      27.506  49.438  48.807  1.00  0.00     0.020 A 
HETATM   10  C   UNL     1      27.189  48.416  49.691  1.00  0.00     0.022 A 
BRANCH   6  11
HETATM   11  N   UNL     1      23.481  48.415  49.397  1.00  0.00    -0.340 N 
HETATM   12  H   UNL     1      23.407  47.433  49.676  1.00  0.00     0.167 HD
BRANCH  11  13
HETATM   13  C   UNL     1      22.296  48.919  48.827  1.00  0.00     0.036 A 
HETATM   14  C   UNL     1      21.953  50.258  49.063  1.00  0.00     0.071 A 
HETATM   15  C   UNL     1      20.821  50.818  48.474  1.00  0.00     0.118 A 
HETATM   16  C   UNL     1      20.014  50.077  47.625  1.00  0.00     0.042 A 
HETATM   17  F   UNL     1      20.512  52.097  48.727  1.00  0.00    -0.206 F 
HETATM   18  C   UNL     1      20.352  48.756  47.353  1.00  0.00     0.005 A 
HETATM   19  C   UNL     1      21.490  48.189  47.942  1.00  0.00     0.029 A 
ENDBRANCH  11  13
ENDBRANCH   6  11
ENDBRANCH   1   5
BRANCH   2  20
HETATM   20  C   UNL     1      25.428  44.502  51.112  1.00  0.00     0.142 C 
BRANCH  20  21
HETATM   21  C   UNL     1      26.690  43.736  51.526  1.00  0.00     0.142 C 
BRANCH  21  22
HETATM   22  N   UNL     1      27.319  44.278  52.716  1.00  0.00    -0.355 N 
HETATM   23  C   UNL     1      28.555  43.833  53.135  1.00  0.00     0.251 C 
HETATM   24  O   UNL     1      29.207  42.993  52.527  1.00  0.00    -0.268 OA
HETATM   25  H   UNL     1      26.748  44.848  53.324  1.00  0.00     0.162 HD
BRANCH  23  26
HETATM   26  C   UNL     1      29.077  44.403  54.407  1.00  0.00     0.033 A 
HETATM   27  C   UNL     1      30.103  43.717  55.068  1.00  0.00     0.042 A 
HETATM   28  C   UNL     1      30.629  44.214  56.265  1.00  0.00     0.056 A 
HETATM   29 CL   UNL     1      31.883  43.307  57.030  1.00  0.00    -0.083 Cl
HETATM   30  C   UNL     1      30.135  45.408  56.801  1.00  0.00     0.055 A 
HETATM   31 CL   UNL     1      30.732  46.082  58.275  1.00  0.00    -0.083 Cl
HETATM   32  C   UNL     1      29.121  46.103  56.133  1.00  0.00     0.026 A 
HETATM   33  C   UNL     1      28.595  45.608  54.936  1.00  0.00     0.019 A 
ENDBRANCH  23  26
ENDBRANCH  21  22
ENDBRANCH  20  21
ENDBRANCH   2  20
TORSDOF 7
ENDMDL
MODEL 3
REMARK VINA RESULT:      -9.3      4.813      9.436
REMARK  7 active torsions:
REMARK  status: ('A' for Active; 'I' for Inactive)
REMARK    1  A    between atoms: C_6  and  N_7 
REMARK    2  A    between atoms: N_7  and  C_8 
REMARK    3  A    between atoms: C_13  and  C_14 
REMARK       I    between atoms: C_14  and  N_15 
REMARK    4  A    between atoms: N_15  and  C_16 
REMARK    5  A    between atoms: C_16  and  C_17 
REMARK    6  A    between atoms: C_17  and  N_18 
REMARK       I    between atoms: N_18  and  C_19 
REMARK    7  A    between atoms: C_19  and  C_20 
ROOT
HETATM    1  C   UNL     1      27.032  44.449  53.056  1.00  0.00     0.255 C 
HETATM    2  N   UNL     1      27.205  44.525  51.691  1.00  0.00    -0.355 N 
HETATM    3  O   UNL     1      26.926  43.392  53.670  1.00  0.00    -0.268 OA
HETATM    4  H   UNL     1      27.400  45.414  51.248  1.00  0.00     0.162 HD
ENDROOT
BRANCH   1   5
HETATM    5  C   UNL     1      26.975  45.739  53.783  1.00  0.00     0.077 A 
HETATM    6  C   UNL     1      27.935  46.045  54.765  1.00  0.00     0.143 A 
HETATM    7  N   UNL     1      27.865  47.216  55.446  1.00  0.00    -0.242 NA
HETATM    8  C   UNL     1      26.846  48.066  55.186  1.00  0.00     0.119 A 
HETATM    9  C   UNL     1      25.860  47.823  54.250  1.00  0.00     0.020 A 
HETATM   10  C   UNL     1      25.925  46.635  53.536  1.00  0.00     0.022 A 
BRANCH   6  11
HETATM   11  N   UNL     1      29.016  45.158  54.984  1.00  0.00    -0.340 N 
HETATM   12  H   UNL     1      28.889  44.316  54.417  1.00  0.00     0.167 HD
BRANCH  11  13
HETATM   13  C   UNL     1      29.828  44.945  56.115  1.00  0.00     0.036 A 
HETATM   14  C   UNL     1      30.799  43.935  56.063  1.00  0.00     0.071 A 
HETATM   15  C   UNL     1      31.665  43.724  57.135  1.00  0.00     0.118 A 
HETATM   16  C   UNL     1      31.604  44.515  58.272  1.00  0.00     0.042 A 
HETATM   17  F   UNL     1      32.576  42.744  57.062  1.00  0.00    -0.206 F 
HETATM   18  C   UNL     1      30.668  45.542  58.332  1.00  0.00     0.005 A 
HETATM   19  C   UNL     1      29.797  45.759  57.256  1.00  0.00     0.029 A 
ENDBRANCH  11  13
ENDBRANCH   6  11
ENDBRANCH   1   5
BRANCH   2  20
HETATM   20  C   UNL     1      27.266  43.334  50.863  1.00  0.00     0.142 C 
BRANCH  20  21
HETATM   21  C   UNL     1      26.302  43.406  49.673  1.00  0.00     0.142 C 
BRANCH  21  22
HETATM   22  N   UNL     1      25.923  44.764  49.330  1.00  0.00    -0.355 N 
HETATM   23  C   UNL     1      24.875  45.395  49.967  1.00  0.00     0.251 C 
HETATM   24  O   UNL     1      24.228  44.876  50.869  1.00  0.00    -0.268 OA
HETATM   25  H   UNL     1      26.324  45.160  48.492  1.00  0.00     0.162 HD
BRANCH  23  26
HETATM   26  C   UNL     1      24.524  46.760  49.488  1.00  0.00     0.033 A 
HETATM   27  C   UNL     1      25.561  47.683  49.306  1.00  0.00     0.042 A 
HETATM   28  C   UNL     1      25.282  48.978  48.855  1.00  0.00     0.056 A 
HETATM   29 CL   UNL     1      26.609  50.066  48.666  1.00  0.00    -0.083 Cl
HETATM   30  C   UNL     1      23.963  49.350  48.574  1.00  0.00     0.055 A 
HETATM   31 CL   UNL     1      23.542  50.930  48.016  1.00  0.00    -0.083 Cl
HETATM   32  C   UNL     1      22.929  48.423  48.739  1.00  0.00     0.026 A 
HETATM   33  C   UNL     1      23.206  47.129  49.190  1.00  0.00     0.019 A 
ENDBRANCH  23  26
ENDBRANCH  21  22
ENDBRANCH  20  21
ENDBRANCH   2  20
TORSDOF 7
ENDMDL
MODEL 4
REMARK VINA RESULT:      -9.2      2.478      3.766
REMARK  7 active torsions:
REMARK  status: ('A' for Active; 'I' for Inactive)
REMARK    1  A    between atoms: C_6  and  N_7 
REMARK    2  A    between atoms: N_7  and  C_8 
REMARK    3  A    between atoms: C_13  and  C_14 
REMARK       I    between atoms: C_14  and  N_15 
REMARK    4  A    between atoms: N_15  and  C_16 
REMARK    5  A    between atoms: C_16  and  C_17 
REMARK    6  A    between atoms: C_17  and  N_18 
REMARK       I    between atoms: N_18  and  C_19 
REMARK    7  A    between atoms: C_19  and  C_20 
ROOT
HETATM    1  C   UNL     1      24.772  44.886  49.691  1.00  0.00     0.255 C 
HETATM    2  N   UNL     1      26.031  44.593  49.216  1.00  0.00    -0.355 N 
HETATM    3  O   UNL     1      24.557  45.341  50.810  1.00  0.00    -0.268 OA
HETATM    4  H   UNL     1      26.163  44.326  48.248  1.00  0.00     0.162 HD
ENDROOT
BRANCH   1   5
HETATM    5  C   UNL     1      23.643  44.620  48.768  1.00  0.00     0.077 A 
HETATM    6  C   UNL     1      22.590  45.546  48.647  1.00  0.00     0.143 A 
HETATM    7  N   UNL     1      21.547  45.287  47.820  1.00  0.00    -0.242 NA
HETATM    8  C   UNL     1      21.521  44.119  47.141  1.00  0.00     0.119 A 
HETATM    9  C   UNL     1      22.509  43.157  47.227  1.00  0.00     0.020 A 
HETATM   10  C   UNL     1      23.590  43.412  48.058  1.00  0.00     0.022 A 
BRANCH   6  11
HETATM   11  N   UNL     1      22.665  46.781  49.334  1.00  0.00    -0.340 N 
HETATM   12  H   UNL     1      22.007  46.778  50.117  1.00  0.00     0.167 HD
BRANCH  11  13
HETATM   13  C   UNL     1      22.981  48.077  48.882  1.00  0.00     0.036 A 
HETATM   14  C   UNL     1      24.297  48.538  49.032  1.00  0.00     0.071 A 
HETATM   15  C   UNL     1      24.672  49.791  48.549  1.00  0.00     0.118 A 
HETATM   16  C   UNL     1      23.764  50.607  47.892  1.00  0.00     0.042 A 
HETATM   17  F   UNL     1      25.934  50.209  48.717  1.00  0.00    -0.206 F 
HETATM   18  C   UNL     1      22.462  50.157  47.706  1.00  0.00     0.005 A 
HETATM   19  C   UNL     1      22.081  48.898  48.188  1.00  0.00     0.029 A 
ENDBRANCH  11  13
ENDBRANCH   6  11
ENDBRANCH   1   5
BRANCH   2  20
HETATM   20  C   UNL     1      27.218  44.797  50.025  1.00  0.00     0.142 C 
BRANCH  20  21
HETATM   21  C   UNL     1      27.354  43.743  51.130  1.00  0.00     0.142 C 
BRANCH  21  22
HETATM   22  N   UNL     1      27.909  44.277  52.360  1.00  0.00    -0.355 N 
HETATM   23  C   UNL     1      28.793  43.542  53.122  1.00  0.00     0.251 C 
HETATM   24  O   UNL     1      29.187  42.427  52.804  1.00  0.00    -0.268 OA
HETATM   25  H   UNL     1      27.488  45.117  52.733  1.00  0.00     0.162 HD
BRANCH  23  26
HETATM   26  C   UNL     1      29.244  44.155  54.402  1.00  0.00     0.033 A 
HETATM   27  C   UNL     1      30.316  43.559  55.078  1.00  0.00     0.042 A 
HETATM   28  C   UNL     1      30.780  44.100  56.282  1.00  0.00     0.056 A 
HETATM   29 CL   UNL     1      32.096  43.304  57.067  1.00  0.00    -0.083 Cl
HETATM   30  C   UNL     1      30.176  45.247  56.810  1.00  0.00     0.055 A 
HETATM   31 CL   UNL     1      30.692  45.969  58.291  1.00  0.00    -0.083 Cl
HETATM   32  C   UNL     1      29.117  45.853  56.126  1.00  0.00     0.026 A 
HETATM   33  C   UNL     1      28.653  45.313  54.922  1.00  0.00     0.019 A 
ENDBRANCH  23  26
ENDBRANCH  21  22
ENDBRANCH  20  21
ENDBRANCH   2  20
TORSDOF 7
ENDMDL
MODEL 5
REMARK VINA RESULT:      -9.1      5.028     10.444
REMARK  7 active torsions:
REMARK  status: ('A' for Active; 'I' for Inactive)
REMARK    1  A    between atoms: C_6  and  N_7 
REMARK    2  A    between atoms: N_7  and  C_8 
REMARK    3  A    between atoms: C_13  and  C_14 
REMARK       I    between atoms: C_14  and  N_15 
REMARK    4  A    between atoms: N_15  and  C_16 
REMARK    5  A    between atoms: C_16  and  C_17 
REMARK    6  A    between atoms: C_17  and  N_18 
REMARK       I    between atoms: N_18  and  C_19 
REMARK    7  A    between atoms: C_19  and  C_20 
ROOT
HETATM    1  C   UNL     1      26.663  44.755  52.728  1.00  0.00     0.255 C 
HETATM    2  N   UNL     1      26.221  45.241  51.517  1.00  0.00    -0.355 N 
HETATM    3  O   UNL     1      26.478  45.325  53.799  1.00  0.00    -0.268 OA
HETATM    4  H   UNL     1      26.301  44.678  50.680  1.00  0.00     0.162 HD
ENDROOT
BRANCH   1   5
HETATM    5  C   UNL     1      27.402  43.470  52.689  1.00  0.00     0.077 A 
HETATM    6  C   UNL     1      28.620  43.329  53.378  1.00  0.00     0.143 A 
HETATM    7  N   UNL     1      29.306  42.160  53.320  1.00  0.00    -0.242 NA
HETATM    8  C   UNL     1      28.815  41.149  52.569  1.00  0.00     0.119 A 
HETATM    9  C   UNL     1      27.637  41.224  51.852  1.00  0.00     0.020 A 
HETATM   10  C   UNL     1      26.917  42.409  51.912  1.00  0.00     0.022 A 
BRANCH   6  11
HETATM   11  N   UNL     1      29.087  44.389  54.193  1.00  0.00    -0.340 N 
HETATM   12  H   UNL     1      29.223  45.226  53.622  1.00  0.00     0.167 HD
BRANCH  11  13
HETATM   13  C   UNL     1      29.872  44.384  55.363  1.00  0.00     0.036 A 
HETATM   14  C   UNL     1      29.715  45.432  56.281  1.00  0.00     0.071 A 
HETATM   15  C   UNL     1      30.427  45.442  57.479  1.00  0.00     0.118 A 
HETATM   16  C   UNL     1      31.293  44.410  57.807  1.00  0.00     0.042 A 
HETATM   17  F   UNL     1      30.265  46.462  58.332  1.00  0.00    -0.206 F 
HETATM   18  C   UNL     1      31.441  43.345  56.924  1.00  0.00     0.005 A 
HETATM   19  C   UNL     1      30.726  43.331  55.719  1.00  0.00     0.029 A 
ENDBRANCH  11  13
ENDBRANCH   6  11
ENDBRANCH   1   5
BRANCH   2  20
HETATM   20  C   UNL     1      25.495  46.495  51.419  1.00  0.00     0.142 C 
BRANCH  20  21
HETATM   21  C   UNL     1      25.290  46.932  49.964  1.00  0.00     0.142 C 
BRANCH  21  22
HETATM   22  N   UNL     1      24.291  47.975  49.819  1.00  0.00    -0.355 N 
HETATM   23  C   UNL     1      23.134  47.760  49.101  1.00  0.00     0.251 C 
HETATM   24  O   UNL     1      22.859  46.687  48.576  1.00  0.00    -0.268 OA
HETATM   25  H   UNL     1      24.553  48.910  50.098  1.00  0.00     0.162 HD
BRANCH  23  26
HETATM   26  C   UNL     1      22.211  48.919  48.954  1.00  0.00     0.033 A 
HETATM   27  C   UNL     1      20.837  48.693  49.102  1.00  0.00     0.042 A 
HETATM   28  C   UNL     1      19.930  49.750  48.976  1.00  0.00     0.056 A 
HETATM   29 CL   UNL     1      18.250  49.394  49.157  1.00  0.00    -0.083 Cl
HETATM   30  C   UNL     1      20.397  51.043  48.711  1.00  0.00     0.055 A 
HETATM   31 CL   UNL     1      19.338  52.396  48.541  1.00  0.00    -0.083 Cl
HETATM   32  C   UNL     1      21.771  51.272  48.581  1.00  0.00     0.026 A 
HETATM   33  C   UNL     1      22.678  50.216  48.706  1.00  0.00     0.019 A 
ENDBRANCH  23  26
ENDBRANCH  21  22
ENDBRANCH  20  21
ENDBRANCH   2  20
TORSDOF 7
ENDMDL
MODEL 6
REMARK VINA RESULT:      -9.0      4.957     10.008
REMARK  7 active torsions:
REMARK  status: ('A' for Active; 'I' for Inactive)
REMARK    1  A    between atoms: C_6  and  N_7 
REMARK    2  A    between atoms: N_7  and  C_8 
REMARK    3  A    between atoms: C_13  and  C_14 
REMARK       I    between atoms: C_14  and  N_15 
REMARK    4  A    between atoms: N_15  and  C_16 
REMARK    5  A    between atoms: C_16  and  C_17 
REMARK    6  A    between atoms: C_17  and  N_18 
REMARK       I    between atoms: N_18  and  C_19 
REMARK    7  A    between atoms: C_19  and  C_20 
ROOT
HETATM    1  C   UNL     1      25.292  44.034  51.151  1.00  0.00     0.255 C 
HETATM    2  N   UNL     1      25.549  45.288  50.642  1.00  0.00    -0.355 N 
HETATM    3  O   UNL     1      24.389  43.795  51.948  1.00  0.00    -0.268 OA
HETATM    4  H   UNL     1      26.231  45.410  49.904  1.00  0.00     0.162 HD
ENDROOT
BRANCH   1   5
HETATM    5  C   UNL     1      26.179  42.941  50.686  1.00  0.00     0.077 A 
HETATM    6  C   UNL     1      27.001  42.255  51.598  1.00  0.00     0.143 A 
HETATM    7  N   UNL     1      27.830  41.273  51.165  1.00  0.00    -0.242 NA
HETATM    8  C   UNL     1      27.873  40.986  49.844  1.00  0.00     0.119 A 
HETATM    9  C   UNL     1      27.109  41.631  48.891  1.00  0.00     0.020 A 
HETATM   10  C   UNL     1      26.246  42.630  49.320  1.00  0.00     0.022 A 
BRANCH   6  11
HETATM   11  N   UNL     1      26.902  42.545  52.980  1.00  0.00    -0.340 N 
HETATM   12  H   UNL     1      25.918  42.547  53.260  1.00  0.00     0.167 HD
BRANCH  11  13
HETATM   13  C   UNL     1      27.720  43.317  53.828  1.00  0.00     0.036 A 
HETATM   14  C   UNL     1      28.989  42.826  54.166  1.00  0.00     0.071 A 
HETATM   15  C   UNL     1      29.857  43.579  54.956  1.00  0.00     0.118 A 
HETATM   16  C   UNL     1      29.501  44.839  55.412  1.00  0.00     0.042 A 
HETATM   17  F   UNL     1      31.059  43.079  55.272  1.00  0.00    -0.206 F 
HETATM   18  C   UNL     1      28.259  45.358  55.062  1.00  0.00     0.005 A 
HETATM   19  C   UNL     1      27.384  44.605  54.268  1.00  0.00     0.029 A 
ENDBRANCH  11  13
ENDBRANCH   6  11
ENDBRANCH   1   5
BRANCH   2  20
HETATM   20  C   UNL     1      24.760  46.443  51.027  1.00  0.00     0.142 C 
BRANCH  20  21
HETATM   21  C   UNL     1      24.673  47.485  49.905  1.00  0.00     0.142 C 
BRANCH  21  22
HETATM   22  N   UNL     1      23.344  48.048  49.754  1.00  0.00    -0.355 N 
HETATM   23  C   UNL     1      23.154  49.282  49.168  1.00  0.00     0.251 C 
HETATM   24  O   UNL     1      24.070  49.958  48.716  1.00  0.00    -0.268 OA
HETATM   25  H   UNL     1      22.590  47.597  50.253  1.00  0.00     0.162 HD
BRANCH  23  26
HETATM   26  C   UNL     1      21.758  49.797  49.128  1.00  0.00     0.033 A 
HETATM   27  C   UNL     1      20.718  48.915  49.449  1.00  0.00     0.042 A 
HETATM   28  C   UNL     1      19.390  49.352  49.430  1.00  0.00     0.056 A 
HETATM   29 CL   UNL     1      18.160  48.206  49.823  1.00  0.00    -0.083 Cl
HETATM   30  C   UNL     1      19.097  50.680  49.098  1.00  0.00     0.055 A 
HETATM   31 CL   UNL     1      17.482  51.291  49.050  1.00  0.00    -0.083 Cl
HETATM   32  C   UNL     1      20.136  51.566  48.794  1.00  0.00     0.026 A 
HETATM   33  C   UNL     1      21.464  51.130  48.813  1.00  0.00     0.019 A 
ENDBRANCH  23  26
ENDBRANCH  21  22
ENDBRANCH  20  21
ENDBRANCH   2  20
TORSDOF 7
ENDMDL
MODEL 7
REMARK VINA RESULT:      -8.8      4.561      9.254
REMARK  7 active torsions:
REMARK  status: ('A' for Active; 'I' for Inactive)
REMARK    1  A    between atoms: C_6  and  N_7 
REMARK    2  A    between atoms: N_7  and  C_8 
REMARK    3  A    between atoms: C_13  and  C_14 
REMARK       I    between atoms: C_14  and  N_15 
REMARK    4  A    between atoms: N_15  and  C_16 
REMARK    5  A    between atoms: C_16  and  C_17 
REMARK    6  A    between atoms: C_17  and  N_18 
REMARK       I    between atoms: N_18  and  C_19 
REMARK    7  A    between atoms: C_19  and  C_20 
ROOT
HETATM    1  C   UNL     1      25.016  43.626  50.732  1.00  0.00     0.255 C 
HETATM    2  N   UNL     1      25.126  44.430  49.619  1.00  0.00    -0.355 N 
HETATM    3  O   UNL     1      24.031  43.610  51.464  1.00  0.00    -0.268 OA
HETATM    4  H   UNL     1      25.909  44.324  48.986  1.00  0.00     0.162 HD
ENDROOT
BRANCH   1   5
HETATM    5  C   UNL     1      26.174  42.750  51.026  1.00  0.00     0.077 A 
HETATM    6  C   UNL     1      26.827  42.826  52.270  1.00  0.00     0.143 A 
HETATM    7  N   UNL     1      27.902  42.040  52.526  1.00  0.00    -0.242 NA
HETATM    8  C   UNL     1      28.350  41.207  51.560  1.00  0.00     0.119 A 
HETATM    9  C   UNL     1      27.771  41.094  50.311  1.00  0.00     0.020 A 
HETATM   10  C   UNL     1      26.662  41.882  50.038  1.00  0.00     0.022 A 
BRANCH   6  11
HETATM   11  N   UNL     1      26.308  43.673  53.278  1.00  0.00    -0.340 N 
HETATM   12  H   UNL     1      25.286  43.631  53.270  1.00  0.00     0.167 HD
BRANCH  11  13
HETATM   13  C   UNL     1      26.807  44.867  53.836  1.00  0.00     0.036 A 
HETATM   14  C   UNL     1      25.977  45.997  53.855  1.00  0.00     0.071 A 
HETATM   15  C   UNL     1      26.405  47.184  54.447  1.00  0.00     0.118 A 
HETATM   16  C   UNL     1      27.650  47.277  55.050  1.00  0.00     0.042 A 
HETATM   17  F   UNL     1      25.595  48.252  54.439  1.00  0.00    -0.206 F 
HETATM   18  C   UNL     1      28.476  46.159  55.070  1.00  0.00     0.005 A 
HETATM   19  C   UNL     1      28.050  44.963  54.477  1.00  0.00     0.029 A 
ENDBRANCH  11  13
ENDBRANCH   6  11
ENDBRANCH   1   5
BRANCH   2  20
HETATM   20  C   UNL     1      24.066  45.342  49.229  1.00  0.00     0.142 C 
BRANCH  20  21
HETATM   21  C   UNL     1      24.320  46.771  49.724  1.00  0.00     0.142 C 
BRANCH  21  22
HETATM   22  N   UNL     1      23.140  47.613  49.660  1.00  0.00    -0.355 N 
HETATM   23  C   UNL     1      23.076  48.689  48.800  1.00  0.00     0.251 C 
HETATM   24  O   UNL     1      23.978  48.981  48.024  1.00  0.00    -0.268 OA
HETATM   25  H   UNL     1      22.450  47.500  50.390  1.00  0.00     0.162 HD
BRANCH  23  26
HETATM   26  C   UNL     1      21.849  49.529  48.867  1.00  0.00     0.033 A 
HETATM   27  C   UNL     1      20.654  48.923  49.274  1.00  0.00     0.042 A 
HETATM   28  C   UNL     1      19.475  49.670  49.357  1.00  0.00     0.056 A 
HETATM   29 CL   UNL     1      18.037  48.853  49.853  1.00  0.00    -0.083 Cl
HETATM   30  C   UNL     1      19.490  51.034  49.041  1.00  0.00     0.055 A 
HETATM   31 CL   UNL     1      18.074  52.020  49.117  1.00  0.00    -0.083 Cl
HETATM   32  C   UNL     1      20.686  51.644  48.651  1.00  0.00     0.026 A 
HETATM   33  C   UNL     1      21.866  50.898  48.569  1.00  0.00     0.019 A 
ENDBRANCH  23  26
ENDBRANCH  21  22
ENDBRANCH  20  21
ENDBRANCH   2  20
TORSDOF 7
ENDMDL
MODEL 8
REMARK VINA RESULT:      -8.6      2.515      3.520
REMARK  7 active torsions:
REMARK  status: ('A' for Active; 'I' for Inactive)
REMARK    1  A    between atoms: C_6  and  N_7 
REMARK    2  A    between atoms: N_7  and  C_8 
REMARK    3  A    between atoms: C_13  and  C_14 
REMARK       I    between atoms: C_14  and  N_15 
REMARK    4  A    between atoms: N_15  and  C_16 
REMARK    5  A    between atoms: C_16  and  C_17 
REMARK    6  A    between atoms: C_17  and  N_18 
REMARK       I    between atoms: N_18  and  C_19 
REMARK    7  A    between atoms: C_19  and  C_20 
ROOT
HETATM    1  C   UNL     1      23.324  47.397  48.998  1.00  0.00     0.255 C 
HETATM    2  N   UNL     1      24.313  47.242  49.945  1.00  0.00    -0.355 N 
HETATM    3  O   UNL     1      22.935  46.490  48.267  1.00  0.00    -0.268 OA
HETATM    4  H   UNL     1      24.517  47.988  50.597  1.00  0.00     0.162 HD
ENDROOT
BRANCH   1   5
HETATM    5  C   UNL     1      22.725  48.748  48.889  1.00  0.00     0.077 A 
HETATM    6  C   UNL     1      21.353  48.940  49.138  1.00  0.00     0.143 A 
HETATM    7  N   UNL     1      20.804  50.174  49.013  1.00  0.00    -0.242 NA
HETATM    8  C   UNL     1      21.586  51.203  48.618  1.00  0.00     0.119 A 
HETATM    9  C   UNL     1      22.933  51.083  48.338  1.00  0.00     0.020 A 
HETATM   10  C   UNL     1      23.513  49.830  48.474  1.00  0.00     0.022 A 
BRANCH   6  11
HETATM   11  N   UNL     1      20.569  47.854  49.595  1.00  0.00    -0.340 N 
HETATM   12  H   UNL     1      21.135  47.249  50.194  1.00  0.00     0.167 HD
BRANCH  11  13
HETATM   13  C   UNL     1      19.479  47.183  49.005  1.00  0.00     0.036 A 
HETATM   14  C   UNL     1      18.195  47.723  49.160  1.00  0.00     0.071 A 
HETATM   15  C   UNL     1      17.094  47.127  48.548  1.00  0.00     0.118 A 
HETATM   16  C   UNL     1      17.237  45.999  47.754  1.00  0.00     0.042 A 
HETATM   17  F   UNL     1      15.876  47.659  48.723  1.00  0.00    -0.206 F 
HETATM   18  C   UNL     1      18.507  45.465  47.563  1.00  0.00     0.005 A 
HETATM   19  C   UNL     1      19.617  46.061  48.175  1.00  0.00     0.029 A 
ENDBRANCH  11  13
ENDBRANCH   6  11
ENDBRANCH   1   5
BRANCH   2  20
HETATM   20  C   UNL     1      24.987  45.972  50.143  1.00  0.00     0.142 C 
BRANCH  20  21
HETATM   21  C   UNL     1      24.674  45.358  51.513  1.00  0.00     0.142 C 
BRANCH  21  22
HETATM   22  N   UNL     1      25.707  45.612  52.500  1.00  0.00    -0.355 N 
HETATM   23  C   UNL     1      26.491  44.590  52.991  1.00  0.00     0.251 C 
HETATM   24  O   UNL     1      26.395  43.429  52.613  1.00  0.00    -0.268 OA
HETATM   25  H   UNL     1      25.707  46.518  52.948  1.00  0.00     0.162 HD
BRANCH  23  26
HETATM   26  C   UNL     1      27.471  44.949  54.053  1.00  0.00     0.033 A 
HETATM   27  C   UNL     1      28.548  44.083  54.278  1.00  0.00     0.042 A 
HETATM   28  C   UNL     1      29.498  44.378  55.262  1.00  0.00     0.056 A 
HETATM   29 CL   UNL     1      30.791  43.258  55.493  1.00  0.00    -0.083 Cl
HETATM   30  C   UNL     1      29.377  45.549  56.019  1.00  0.00     0.055 A 
HETATM   31 CL   UNL     1      30.508  45.978  57.252  1.00  0.00    -0.083 Cl
HETATM   32  C   UNL     1      28.311  46.423  55.783  1.00  0.00     0.026 A 
HETATM   33  C   UNL     1      27.362  46.129  54.799  1.00  0.00     0.019 A 
ENDBRANCH  23  26
ENDBRANCH  21  22
ENDBRANCH  20  21
ENDBRANCH   2  20
TORSDOF 7
ENDMDL
MODEL 9
REMARK VINA RESULT:      -8.6      6.444      9.818
REMARK  7 active torsions:
REMARK  status: ('A' for Active; 'I' for Inactive)
REMARK    1  A    between atoms: C_6  and  N_7 
REMARK    2  A    between atoms: N_7  and  C_8 
REMARK    3  A    between atoms: C_13  and  C_14 
REMARK       I    between atoms: C_14  and  N_15 
REMARK    4  A    between atoms: N_15  and  C_16 
REMARK    5  A    between atoms: C_16  and  C_17 
REMARK    6  A    between atoms: C_17  and  N_18 
REMARK       I    between atoms: N_18  and  C_19 
REMARK    7  A    between atoms: C_19  and  C_20 
ROOT
HETATM    1  C   UNL     1      21.712  46.237  47.675  1.00  0.00     0.255 C 
HETATM    2  N   UNL     1      20.677  45.512  48.224  1.00  0.00    -0.355 N 
HETATM    3  O   UNL     1      21.820  46.465  46.473  1.00  0.00    -0.268 OA
HETATM    4  H   UNL     1      20.574  45.449  49.228  1.00  0.00     0.162 HD
ENDROOT
BRANCH   1   5
HETATM    5  C   UNL     1      22.730  46.750  48.622  1.00  0.00     0.077 A 
HETATM    6  C   UNL     1      22.850  48.132  48.858  1.00  0.00     0.143 A 
HETATM    7  N   UNL     1      23.799  48.599  49.707  1.00  0.00    -0.242 NA
HETATM    8  C   UNL     1      24.642  47.721  50.296  1.00  0.00     0.119 A 
HETATM    9  C   UNL     1      24.595  46.356  50.095  1.00  0.00     0.020 A 
HETATM   10  C   UNL     1      23.620  45.860  49.240  1.00  0.00     0.022 A 
BRANCH   6  11
HETATM   11  N   UNL     1      21.925  49.023  48.264  1.00  0.00    -0.340 N 
HETATM   12  H   UNL     1      22.343  49.446  47.431  1.00  0.00     0.167 HD
BRANCH  11  13
HETATM   13  C   UNL     1      20.899  49.808  48.826  1.00  0.00     0.036 A 
HETATM   14  C   UNL     1      20.618  51.056  48.253  1.00  0.00     0.071 A 
HETATM   15  C   UNL     1      19.574  51.843  48.738  1.00  0.00     0.118 A 
HETATM   16  C   UNL     1      18.774  51.408  49.783  1.00  0.00     0.042 A 
HETATM   17  F   UNL     1      19.336  53.037  48.178  1.00  0.00    -0.206 F 
HETATM   18  C   UNL     1      19.016  50.160  50.345  1.00  0.00     0.005 A 
HETATM   19  C   UNL     1      20.063  49.365  49.861  1.00  0.00     0.029 A 
ENDBRANCH  11  13
ENDBRANCH   6  11
ENDBRANCH   1   5
BRANCH   2  20
HETATM   20  C   UNL     1      19.623  44.946  47.402  1.00  0.00     0.142 C 
BRANCH  20  21
HETATM   21  C   UNL     1      18.275  45.640  47.630  1.00  0.00     0.142 C 
BRANCH  21  22
HETATM   22  N   UNL     1      18.216  46.970  47.052  1.00  0.00    -0.355 N 
HETATM   23  C   UNL     1      17.491  47.978  47.654  1.00  0.00     0.251 C 
HETATM   24  O   UNL     1      16.890  47.832  48.711  1.00  0.00    -0.268 OA
HETATM   25  H   UNL     1      18.562  47.083  46.110  1.00  0.00     0.162 HD
BRANCH  23  26
HETATM   26  C   UNL     1      17.438  49.283  46.940  1.00  0.00     0.033 A 
HETATM   27  C   UNL     1      16.484  50.222  47.350  1.00  0.00     0.042 A 
HETATM   28  C   UNL     1      16.396  51.464  46.712  1.00  0.00     0.056 A 
HETATM   29 CL   UNL     1      15.186  52.567  47.263  1.00  0.00    -0.083 Cl
HETATM   30  C   UNL     1      17.272  51.775  45.666  1.00  0.00     0.055 A 
HETATM   31 CL   UNL     1      17.222  53.286  44.831  1.00  0.00    -0.083 Cl
HETATM   32  C   UNL     1      18.236  50.844  45.267  1.00  0.00     0.026 A 
HETATM   33  C   UNL     1      18.325  49.602  45.904  1.00  0.00     0.019 A 
ENDBRANCH  23  26
ENDBRANCH  21  22
ENDBRANCH  20  21
ENDBRANCH   2  20
TORSDOF 7
ENDMDL
MODEL 10
REMARK VINA RESULT:      -8.6      5.196      9.550
REMARK  7 active torsions:
REMARK  status: ('A' for Active; 'I' for Inactive)
REMARK    1  A    between atoms: C_6  and  N_7 
REMARK    2  A    between atoms: N_7  and  C_8 
REMARK    3  A    between atoms: C_13  and  C_14 
REMARK       I    between atoms: C_14  and  N_15 
REMARK    4  A    between atoms: N_15  and  C_16 
REMARK    5  A    between atoms: C_16  and  C_17 
REMARK    6  A    between atoms: C_17  and  N_18 
REMARK       I    between atoms: N_18  and  C_19 
REMARK    7  A    between atoms: C_19  and  C_20 
ROOT
HETATM    1  C   UNL     1      27.215  44.039  53.087  1.00  0.00     0.255 C 
HETATM    2  N   UNL     1      26.992  43.901  51.735  1.00  0.00    -0.355 N 
HETATM    3  O   UNL     1      27.543  43.111  53.821  1.00  0.00    -0.268 OA
HETATM    4  H   UNL     1      26.834  44.717  51.157  1.00  0.00     0.162 HD
ENDROOT
BRANCH   1   5
HETATM    5  C   UNL     1      27.034  45.400  53.647  1.00  0.00     0.077 A 
HETATM    6  C   UNL     1      27.984  45.934  54.538  1.00  0.00     0.143 A 
HETATM    7  N   UNL     1      27.802  47.169  55.067  1.00  0.00    -0.242 NA
HETATM    8  C   UNL     1      26.686  47.862  54.749  1.00  0.00     0.119 A 
HETATM    9  C   UNL     1      25.704  47.392  53.899  1.00  0.00     0.020 A 
HETATM   10  C   UNL     1      25.881  46.135  53.338  1.00  0.00     0.022 A 
BRANCH   6  11
HETATM   11  N   UNL     1      29.165  45.206  54.817  1.00  0.00    -0.340 N 
HETATM   12  H   UNL     1      29.242  44.416  54.171  1.00  0.00     0.167 HD
BRANCH  11  13
HETATM   13  C   UNL     1      29.871  45.007  56.019  1.00  0.00     0.036 A 
HETATM   14  C   UNL     1      30.810  43.967  56.082  1.00  0.00     0.071 A 
HETATM   15  C   UNL     1      31.574  43.767  57.231  1.00  0.00     0.118 A 
HETATM   16  C   UNL     1      31.444  44.599  58.333  1.00  0.00     0.042 A 
HETATM   17  F   UNL     1      32.455  42.758  57.267  1.00  0.00    -0.206 F 
HETATM   18  C   UNL     1      30.542  45.656  58.279  1.00  0.00     0.005 A 
HETATM   19  C   UNL     1      29.772  45.861  57.127  1.00  0.00     0.029 A 
ENDBRANCH  11  13
ENDBRANCH   6  11
ENDBRANCH   1   5
BRANCH   2  20
HETATM   20  C   UNL     1      27.124  42.619  51.067  1.00  0.00     0.142 C 
BRANCH  20  21
HETATM   21  C   UNL     1      26.895  42.727  49.555  1.00  0.00     0.142 C 
BRANCH  21  22
HETATM   22  N   UNL     1      25.961  43.777  49.195  1.00  0.00    -0.355 N 
HETATM   23  C   UNL     1      24.611  43.523  49.081  1.00  0.00     0.251 C 
HETATM   24  O   UNL     1      24.114  42.425  49.303  1.00  0.00    -0.268 OA
HETATM   25  H   UNL     1      26.349  44.645  48.853  1.00  0.00     0.162 HD
BRANCH  23  26
HETATM   26  C   UNL     1      23.751  44.654  48.636  1.00  0.00     0.033 A 
HETATM   27  C   UNL     1      23.917  45.896  49.260  1.00  0.00     0.042 A 
HETATM   28  C   UNL     1      23.136  46.990  48.875  1.00  0.00     0.056 A 
HETATM   29 CL   UNL     1      23.387  48.487  49.699  1.00  0.00    -0.083 Cl
HETATM   30  C   UNL     1      22.190  46.847  47.854  1.00  0.00     0.055 A 
HETATM   31 CL   UNL     1      21.188  48.152  47.327  1.00  0.00    -0.083 Cl
HETATM   32  C   UNL     1      22.035  45.611  47.218  1.00  0.00     0.026 A 
HETATM   33  C   UNL     1      22.816  44.517  47.602  1.00  0.00     0.019 A 
ENDBRANCH  23  26
ENDBRANCH  21  22
ENDBRANCH  20  21
ENDBRANCH   2  20
TORSDOF 7
ENDMDL
